data_str_m3_o10_o16_pcu_sym.158
_audit_creation_date              2020-01-03
_audit_creation_method            'Materials Studio'
_symmetry_space_group_name_H-M    'P1'
_symmetry_Int_Tables_number       1
_symmetry_cell_setting            triclinic
loop_
_symmetry_equiv_pos_as_xyz
  x,y,z
_cell_length_a                    23.4710
_cell_length_b                    25.6984
_cell_length_c                    24.0944
_cell_angle_alpha                 92.3258
_cell_angle_beta                  101.0603
_cell_angle_gamma                 94.2194
loop_
_atom_site_label
_atom_site_type_symbol
_atom_site_fract_x
_atom_site_fract_y
_atom_site_fract_z
_atom_site_U_iso_or_equiv
_atom_site_adp_type
_atom_site_occupancy
C1     C     0.01492   0.26493   0.24871   0.00000  Uiso   1.00
C2     C     0.13242   0.15954   0.49480   0.00000  Uiso   1.00
C3     C     0.10266   0.14299   0.44009   0.00000  Uiso   1.00
C4     C     0.18933   0.14447   0.01261   0.00000  Uiso   1.00
C5     C     0.21175   0.10582   0.48067   0.00000  Uiso   1.00
C6     C     0.17761   0.08409   0.42924   0.00000  Uiso   1.00
C7     C     0.12357   0.10292   0.40964   0.00000  Uiso   1.00
C8     C     0.22492   0.16805   0.06120   0.00000  Uiso   1.00
C9     C     0.29879   0.10834   0.05466   0.00000  Uiso   1.00
C10    C     0.05295   0.16781   0.41648   0.00000  Uiso   1.00
C11    C     0.02273   0.31953   0.24810   0.00000  Uiso   1.00
C12    C     0.03530   0.16808   0.35531   0.00000  Uiso   1.00
C13    C     0.31083   0.01386   0.25259   0.00000  Uiso   1.00
C14    C     0.31849   0.06842   0.25153   0.00000  Uiso   1.00
C15    C     0.29732   0.16106   0.14469   0.00000  Uiso   1.00
C16    C     0.26726   0.08922   0.00185   0.00000  Uiso   1.00
C17    C     0.27654   0.14781   0.08472   0.00000  Uiso   1.00
C18    C     0.02553   0.19884   0.45093   0.00000  Uiso   1.00
C19    C     0.05016   0.20861   0.00785   0.00000  Uiso   1.00
C20    C     0.10393   0.19046   0.02954   0.00000  Uiso   1.00
H21    H     0.26827   0.33000   0.25693   0.00000  Uiso   1.00
H22    H     0.15655   0.12494   0.20809   0.00000  Uiso   1.00
H23    H     0.17678   0.20838   0.29192   0.00000  Uiso   1.00
H24    H     0.28537   0.05938   0.47919   0.00000  Uiso   1.00
H25    H     0.21192   0.20111   0.08346   0.00000  Uiso   1.00
H26    H     0.31965   0.21702   0.43343   0.00000  Uiso   1.00
H27    H     0.12125   0.19965   0.07395   0.00000  Uiso   1.00
H28    H     0.02877   0.23208   0.03470   0.00000  Uiso   1.00
H29    H     0.09731   0.08551   0.37048   0.00000  Uiso   1.00
H30    H     0.06532   0.00341   0.24385   0.00000  Uiso   1.00
N31    N     0.14493   0.15223   0.23542   0.00000  Uiso   1.00
N32    N     0.18840   0.18110   0.26457   0.00000  Uiso   1.00
O33    O     0.29769   0.24629   0.25358   0.00000  Uiso   1.00
O34    O     0.05742   0.23704   0.24424   0.00000  Uiso   1.00
O35    O     0.31490   0.17358   0.33380   0.00000  Uiso   1.00
O36    O     0.07463   0.16433   0.32446   0.00000  Uiso   1.00
O37    O     0.27592   0.09629   0.25576   0.00000  Uiso   1.00
O38    O     0.03565   0.08704   0.24642   0.00000  Uiso   1.00
O39    O     0.25870   0.16901   0.17554   0.00000  Uiso   1.00
O40    O     0.01843   0.15976   0.16620   0.00000  Uiso   1.00
Zn41   Zn    0.27119   0.17284   0.25623   0.00000  Uiso   1.00
Zn42   Zn    0.06214   0.16049   0.24376   0.00000  Uiso   1.00
I43    I     0.04199   0.07095   0.08676   0.00000  Uiso   1.00
C44    C     0.19810   0.04201   0.39397   0.00000  Uiso   1.00
H45    H     0.20592   0.00693   0.41889   0.00000  Uiso   1.00
H46    H     0.16547   0.02986   0.35490   0.00000  Uiso   1.00
H47    H     0.23896   0.05668   0.38087   0.00000  Uiso   1.00
C48    C     0.34825   0.26493   0.24871   0.00000  Uiso   1.00
C49    C     0.46575   0.15954   0.49480   0.00000  Uiso   1.00
C50    C     0.43599   0.14299   0.44009   0.00000  Uiso   1.00
C51    C     0.52266   0.14447   0.01261   0.00000  Uiso   1.00
C52    C     0.54508   0.10582   0.48067   0.00000  Uiso   1.00
C53    C     0.51094   0.08409   0.42924   0.00000  Uiso   1.00
C54    C     0.45691   0.10292   0.40964   0.00000  Uiso   1.00
C55    C     0.55826   0.16805   0.06120   0.00000  Uiso   1.00
C56    C     0.63212   0.10834   0.05466   0.00000  Uiso   1.00
C57    C     0.38629   0.16781   0.41648   0.00000  Uiso   1.00
C58    C     0.35606   0.31953   0.24810   0.00000  Uiso   1.00
C59    C     0.36864   0.16808   0.35531   0.00000  Uiso   1.00
C60    C     0.64417   0.01386   0.25259   0.00000  Uiso   1.00
C61    C     0.65182   0.06842   0.25153   0.00000  Uiso   1.00
C62    C     0.63065   0.16106   0.14469   0.00000  Uiso   1.00
C63    C     0.60060   0.08922   0.00185   0.00000  Uiso   1.00
C64    C     0.60988   0.14781   0.08472   0.00000  Uiso   1.00
C65    C     0.35886   0.19884   0.45093   0.00000  Uiso   1.00
C66    C     0.38350   0.20861   0.00785   0.00000  Uiso   1.00
C67    C     0.43727   0.19046   0.02954   0.00000  Uiso   1.00
H68    H     0.60160   0.33000   0.25693   0.00000  Uiso   1.00
H69    H     0.48988   0.12494   0.20809   0.00000  Uiso   1.00
H70    H     0.51011   0.20838   0.29192   0.00000  Uiso   1.00
H71    H     0.61871   0.05938   0.47919   0.00000  Uiso   1.00
H72    H     0.54525   0.20111   0.08346   0.00000  Uiso   1.00
H73    H     0.65298   0.21702   0.43343   0.00000  Uiso   1.00
H74    H     0.45459   0.19965   0.07395   0.00000  Uiso   1.00
H75    H     0.36210   0.23208   0.03470   0.00000  Uiso   1.00
H76    H     0.43065   0.08551   0.37048   0.00000  Uiso   1.00
H77    H     0.39865   0.00341   0.24385   0.00000  Uiso   1.00
N78    N     0.47827   0.15223   0.23542   0.00000  Uiso   1.00
N79    N     0.52173   0.18110   0.26457   0.00000  Uiso   1.00
O80    O     0.63102   0.24629   0.25358   0.00000  Uiso   1.00
O81    O     0.39075   0.23704   0.24424   0.00000  Uiso   1.00
O82    O     0.64823   0.17358   0.33380   0.00000  Uiso   1.00
O83    O     0.40796   0.16433   0.32446   0.00000  Uiso   1.00
O84    O     0.60925   0.09629   0.25576   0.00000  Uiso   1.00
O85    O     0.36898   0.08704   0.24642   0.00000  Uiso   1.00
O86    O     0.59204   0.16901   0.17554   0.00000  Uiso   1.00
O87    O     0.35177   0.15976   0.16620   0.00000  Uiso   1.00
Zn88   Zn    0.60453   0.17284   0.25623   0.00000  Uiso   1.00
Zn89   Zn    0.39547   0.16049   0.24376   0.00000  Uiso   1.00
I90    I     0.37532   0.07095   0.08676   0.00000  Uiso   1.00
C91    C     0.53144   0.04201   0.39397   0.00000  Uiso   1.00
H92    H     0.53926   0.00693   0.41889   0.00000  Uiso   1.00
H93    H     0.49880   0.02986   0.35490   0.00000  Uiso   1.00
H94    H     0.57229   0.05668   0.38087   0.00000  Uiso   1.00
C95    C     0.68159   0.26493   0.24871   0.00000  Uiso   1.00
C96    C     0.79908   0.15954   0.49480   0.00000  Uiso   1.00
C97    C     0.76932   0.14299   0.44009   0.00000  Uiso   1.00
C98    C     0.85599   0.14447   0.01261   0.00000  Uiso   1.00
C99    C     0.87842   0.10582   0.48067   0.00000  Uiso   1.00
C100   C     0.84427   0.08409   0.42924   0.00000  Uiso   1.00
C101   C     0.79024   0.10292   0.40964   0.00000  Uiso   1.00
C102   C     0.89159   0.16805   0.06120   0.00000  Uiso   1.00
C103   C     0.96545   0.10834   0.05466   0.00000  Uiso   1.00
C104   C     0.71962   0.16781   0.41648   0.00000  Uiso   1.00
C105   C     0.68939   0.31953   0.24810   0.00000  Uiso   1.00
C106   C     0.70197   0.16808   0.35531   0.00000  Uiso   1.00
C107   C     0.97750   0.01386   0.25259   0.00000  Uiso   1.00
C108   C     0.98516   0.06842   0.25153   0.00000  Uiso   1.00
C109   C     0.96399   0.16106   0.14469   0.00000  Uiso   1.00
C110   C     0.93393   0.08922   0.00185   0.00000  Uiso   1.00
C111   C     0.94321   0.14781   0.08472   0.00000  Uiso   1.00
C112   C     0.69219   0.19884   0.45093   0.00000  Uiso   1.00
C113   C     0.71683   0.20861   0.00785   0.00000  Uiso   1.00
C114   C     0.77060   0.19046   0.02954   0.00000  Uiso   1.00
H115   H     0.93494   0.33000   0.25693   0.00000  Uiso   1.00
H116   H     0.82322   0.12494   0.20809   0.00000  Uiso   1.00
H117   H     0.84345   0.20838   0.29192   0.00000  Uiso   1.00
H118   H     0.95204   0.05938   0.47919   0.00000  Uiso   1.00
H119   H     0.87859   0.20111   0.08346   0.00000  Uiso   1.00
H120   H     0.98631   0.21702   0.43343   0.00000  Uiso   1.00
H121   H     0.78792   0.19965   0.07395   0.00000  Uiso   1.00
H122   H     0.69544   0.23208   0.03470   0.00000  Uiso   1.00
H123   H     0.76398   0.08551   0.37048   0.00000  Uiso   1.00
H124   H     0.73198   0.00341   0.24385   0.00000  Uiso   1.00
N125   N     0.81160   0.15223   0.23542   0.00000  Uiso   1.00
N126   N     0.85507   0.18110   0.26457   0.00000  Uiso   1.00
O127   O     0.96435   0.24629   0.25358   0.00000  Uiso   1.00
O128   O     0.72408   0.23704   0.24424   0.00000  Uiso   1.00
O129   O     0.98157   0.17358   0.33380   0.00000  Uiso   1.00
O130   O     0.74130   0.16433   0.32446   0.00000  Uiso   1.00
O131   O     0.94258   0.09629   0.25576   0.00000  Uiso   1.00
O132   O     0.70231   0.08704   0.24642   0.00000  Uiso   1.00
O133   O     0.92537   0.16901   0.17554   0.00000  Uiso   1.00
O134   O     0.68510   0.15976   0.16620   0.00000  Uiso   1.00
Zn135  Zn    0.93786   0.17284   0.25623   0.00000  Uiso   1.00
Zn136  Zn    0.72881   0.16049   0.24376   0.00000  Uiso   1.00
I137   I     0.70866   0.07095   0.08676   0.00000  Uiso   1.00
C138   C     0.86477   0.04201   0.39397   0.00000  Uiso   1.00
H139   H     0.87259   0.00693   0.41889   0.00000  Uiso   1.00
H140   H     0.83214   0.02986   0.35490   0.00000  Uiso   1.00
H141   H     0.90562   0.05668   0.38087   0.00000  Uiso   1.00
C142   C     0.01492   0.59827   0.24871   0.00000  Uiso   1.00
C143   C     0.13242   0.49287   0.49480   0.00000  Uiso   1.00
C144   C     0.10266   0.47632   0.44009   0.00000  Uiso   1.00
C145   C     0.18933   0.47781   0.01261   0.00000  Uiso   1.00
C146   C     0.21175   0.43916   0.48067   0.00000  Uiso   1.00
C147   C     0.17761   0.41742   0.42924   0.00000  Uiso   1.00
C148   C     0.12357   0.43626   0.40964   0.00000  Uiso   1.00
C149   C     0.22492   0.50138   0.06120   0.00000  Uiso   1.00
C150   C     0.29879   0.44168   0.05466   0.00000  Uiso   1.00
C151   C     0.05295   0.50114   0.41648   0.00000  Uiso   1.00
C152   C     0.02273   0.65286   0.24810   0.00000  Uiso   1.00
C153   C     0.03530   0.50141   0.35531   0.00000  Uiso   1.00
C154   C     0.31083   0.34720   0.25259   0.00000  Uiso   1.00
C155   C     0.31849   0.40175   0.25153   0.00000  Uiso   1.00
C156   C     0.29732   0.49439   0.14469   0.00000  Uiso   1.00
C157   C     0.26726   0.42255   0.00185   0.00000  Uiso   1.00
C158   C     0.27654   0.48115   0.08472   0.00000  Uiso   1.00
C159   C     0.02553   0.53217   0.45093   0.00000  Uiso   1.00
C160   C     0.05016   0.54194   0.00785   0.00000  Uiso   1.00
C161   C     0.10393   0.52379   0.02954   0.00000  Uiso   1.00
H162   H     0.26827   0.66333   0.25693   0.00000  Uiso   1.00
H163   H     0.15655   0.45827   0.20809   0.00000  Uiso   1.00
H164   H     0.17678   0.54171   0.29192   0.00000  Uiso   1.00
H165   H     0.28537   0.39272   0.47919   0.00000  Uiso   1.00
H166   H     0.21192   0.53444   0.08346   0.00000  Uiso   1.00
H167   H     0.31965   0.55035   0.43343   0.00000  Uiso   1.00
H168   H     0.12125   0.53299   0.07395   0.00000  Uiso   1.00
H169   H     0.02877   0.56542   0.03470   0.00000  Uiso   1.00
H170   H     0.09731   0.41884   0.37048   0.00000  Uiso   1.00
H171   H     0.06532   0.33675   0.24385   0.00000  Uiso   1.00
N172   N     0.14493   0.48556   0.23542   0.00000  Uiso   1.00
N173   N     0.18840   0.51444   0.26457   0.00000  Uiso   1.00
O174   O     0.29769   0.57963   0.25358   0.00000  Uiso   1.00
O175   O     0.05742   0.57038   0.24424   0.00000  Uiso   1.00
O176   O     0.31490   0.50691   0.33380   0.00000  Uiso   1.00
O177   O     0.07463   0.49766   0.32446   0.00000  Uiso   1.00
O178   O     0.27592   0.42962   0.25576   0.00000  Uiso   1.00
O179   O     0.03565   0.42037   0.24642   0.00000  Uiso   1.00
O180   O     0.25870   0.50234   0.17554   0.00000  Uiso   1.00
O181   O     0.01843   0.49309   0.16620   0.00000  Uiso   1.00
Zn182  Zn    0.27119   0.50618   0.25623   0.00000  Uiso   1.00
Zn183  Zn    0.06214   0.49382   0.24376   0.00000  Uiso   1.00
I184   I     0.04199   0.40428   0.08676   0.00000  Uiso   1.00
C185   C     0.19810   0.37534   0.39397   0.00000  Uiso   1.00
H186   H     0.20592   0.34026   0.41889   0.00000  Uiso   1.00
H187   H     0.16547   0.36319   0.35490   0.00000  Uiso   1.00
H188   H     0.23896   0.39002   0.38087   0.00000  Uiso   1.00
C189   C     0.34825   0.59827   0.24871   0.00000  Uiso   1.00
C190   C     0.46575   0.49287   0.49480   0.00000  Uiso   1.00
C191   C     0.43599   0.47632   0.44009   0.00000  Uiso   1.00
C192   C     0.52266   0.47781   0.01261   0.00000  Uiso   1.00
C193   C     0.54508   0.43916   0.48067   0.00000  Uiso   1.00
C194   C     0.51094   0.41742   0.42924   0.00000  Uiso   1.00
C195   C     0.45691   0.43626   0.40964   0.00000  Uiso   1.00
C196   C     0.55826   0.50138   0.06120   0.00000  Uiso   1.00
C197   C     0.63212   0.44168   0.05466   0.00000  Uiso   1.00
C198   C     0.38629   0.50114   0.41648   0.00000  Uiso   1.00
C199   C     0.35606   0.65286   0.24810   0.00000  Uiso   1.00
C200   C     0.36864   0.50141   0.35531   0.00000  Uiso   1.00
C201   C     0.64417   0.34720   0.25259   0.00000  Uiso   1.00
C202   C     0.65182   0.40175   0.25153   0.00000  Uiso   1.00
C203   C     0.63065   0.49439   0.14469   0.00000  Uiso   1.00
C204   C     0.60060   0.42255   0.00185   0.00000  Uiso   1.00
C205   C     0.60988   0.48115   0.08472   0.00000  Uiso   1.00
C206   C     0.35886   0.53217   0.45093   0.00000  Uiso   1.00
C207   C     0.38350   0.54194   0.00785   0.00000  Uiso   1.00
C208   C     0.43727   0.52379   0.02954   0.00000  Uiso   1.00
H209   H     0.60160   0.66333   0.25693   0.00000  Uiso   1.00
H210   H     0.48988   0.45827   0.20809   0.00000  Uiso   1.00
H211   H     0.51011   0.54171   0.29192   0.00000  Uiso   1.00
H212   H     0.61871   0.39272   0.47919   0.00000  Uiso   1.00
H213   H     0.54525   0.53444   0.08346   0.00000  Uiso   1.00
H214   H     0.65298   0.55035   0.43343   0.00000  Uiso   1.00
H215   H     0.45459   0.53299   0.07395   0.00000  Uiso   1.00
H216   H     0.36210   0.56542   0.03470   0.00000  Uiso   1.00
H217   H     0.43065   0.41884   0.37048   0.00000  Uiso   1.00
H218   H     0.39865   0.33675   0.24385   0.00000  Uiso   1.00
N219   N     0.47827   0.48556   0.23542   0.00000  Uiso   1.00
N220   N     0.52173   0.51444   0.26457   0.00000  Uiso   1.00
O221   O     0.63102   0.57963   0.25358   0.00000  Uiso   1.00
O222   O     0.39075   0.57038   0.24424   0.00000  Uiso   1.00
O223   O     0.64823   0.50691   0.33380   0.00000  Uiso   1.00
O224   O     0.40796   0.49766   0.32446   0.00000  Uiso   1.00
O225   O     0.60925   0.42962   0.25576   0.00000  Uiso   1.00
O226   O     0.36898   0.42037   0.24642   0.00000  Uiso   1.00
O227   O     0.59204   0.50234   0.17554   0.00000  Uiso   1.00
O228   O     0.35177   0.49309   0.16620   0.00000  Uiso   1.00
Zn229  Zn    0.60453   0.50618   0.25623   0.00000  Uiso   1.00
Zn230  Zn    0.39547   0.49382   0.24376   0.00000  Uiso   1.00
I231   I     0.37532   0.40428   0.08676   0.00000  Uiso   1.00
C232   C     0.53144   0.37534   0.39397   0.00000  Uiso   1.00
H233   H     0.53926   0.34026   0.41889   0.00000  Uiso   1.00
H234   H     0.49880   0.36319   0.35490   0.00000  Uiso   1.00
H235   H     0.57229   0.39002   0.38087   0.00000  Uiso   1.00
C236   C     0.68159   0.59827   0.24871   0.00000  Uiso   1.00
C237   C     0.79908   0.49287   0.49480   0.00000  Uiso   1.00
C238   C     0.76932   0.47632   0.44009   0.00000  Uiso   1.00
C239   C     0.85599   0.47781   0.01261   0.00000  Uiso   1.00
C240   C     0.87842   0.43916   0.48067   0.00000  Uiso   1.00
C241   C     0.84427   0.41742   0.42924   0.00000  Uiso   1.00
C242   C     0.79024   0.43626   0.40964   0.00000  Uiso   1.00
C243   C     0.89159   0.50138   0.06120   0.00000  Uiso   1.00
C244   C     0.96545   0.44168   0.05466   0.00000  Uiso   1.00
C245   C     0.71962   0.50114   0.41648   0.00000  Uiso   1.00
C246   C     0.68939   0.65286   0.24810   0.00000  Uiso   1.00
C247   C     0.70197   0.50141   0.35531   0.00000  Uiso   1.00
C248   C     0.97750   0.34720   0.25259   0.00000  Uiso   1.00
C249   C     0.98516   0.40175   0.25153   0.00000  Uiso   1.00
C250   C     0.96399   0.49439   0.14469   0.00000  Uiso   1.00
C251   C     0.93393   0.42255   0.00185   0.00000  Uiso   1.00
C252   C     0.94321   0.48115   0.08472   0.00000  Uiso   1.00
C253   C     0.69219   0.53217   0.45093   0.00000  Uiso   1.00
C254   C     0.71683   0.54194   0.00785   0.00000  Uiso   1.00
C255   C     0.77060   0.52379   0.02954   0.00000  Uiso   1.00
H256   H     0.93494   0.66333   0.25693   0.00000  Uiso   1.00
H257   H     0.82322   0.45827   0.20809   0.00000  Uiso   1.00
H258   H     0.84345   0.54171   0.29192   0.00000  Uiso   1.00
H259   H     0.95204   0.39272   0.47919   0.00000  Uiso   1.00
H260   H     0.87859   0.53444   0.08346   0.00000  Uiso   1.00
H261   H     0.98631   0.55035   0.43343   0.00000  Uiso   1.00
H262   H     0.78792   0.53299   0.07395   0.00000  Uiso   1.00
H263   H     0.69544   0.56542   0.03470   0.00000  Uiso   1.00
H264   H     0.76398   0.41884   0.37048   0.00000  Uiso   1.00
H265   H     0.73198   0.33675   0.24385   0.00000  Uiso   1.00
N266   N     0.81160   0.48556   0.23542   0.00000  Uiso   1.00
N267   N     0.85507   0.51444   0.26457   0.00000  Uiso   1.00
O268   O     0.96435   0.57963   0.25358   0.00000  Uiso   1.00
O269   O     0.72408   0.57038   0.24424   0.00000  Uiso   1.00
O270   O     0.98157   0.50691   0.33380   0.00000  Uiso   1.00
O271   O     0.74130   0.49766   0.32446   0.00000  Uiso   1.00
O272   O     0.94258   0.42962   0.25576   0.00000  Uiso   1.00
O273   O     0.70231   0.42037   0.24642   0.00000  Uiso   1.00
O274   O     0.92537   0.50234   0.17554   0.00000  Uiso   1.00
O275   O     0.68510   0.49309   0.16620   0.00000  Uiso   1.00
Zn276  Zn    0.93786   0.50618   0.25623   0.00000  Uiso   1.00
Zn277  Zn    0.72881   0.49382   0.24376   0.00000  Uiso   1.00
I278   I     0.70866   0.40428   0.08676   0.00000  Uiso   1.00
C279   C     0.86477   0.37534   0.39397   0.00000  Uiso   1.00
H280   H     0.87259   0.34026   0.41889   0.00000  Uiso   1.00
H281   H     0.83214   0.36319   0.35490   0.00000  Uiso   1.00
H282   H     0.90562   0.39002   0.38087   0.00000  Uiso   1.00
C283   C     0.01492   0.93160   0.24871   0.00000  Uiso   1.00
C284   C     0.13242   0.82620   0.49480   0.00000  Uiso   1.00
C285   C     0.10266   0.80966   0.44009   0.00000  Uiso   1.00
C286   C     0.18933   0.81114   0.01261   0.00000  Uiso   1.00
C287   C     0.21175   0.77249   0.48067   0.00000  Uiso   1.00
C288   C     0.17761   0.75076   0.42924   0.00000  Uiso   1.00
C289   C     0.12357   0.76959   0.40964   0.00000  Uiso   1.00
C290   C     0.22492   0.83471   0.06120   0.00000  Uiso   1.00
C291   C     0.29879   0.77501   0.05466   0.00000  Uiso   1.00
C292   C     0.05295   0.83448   0.41648   0.00000  Uiso   1.00
C293   C     0.02273   0.98620   0.24810   0.00000  Uiso   1.00
C294   C     0.03530   0.83475   0.35531   0.00000  Uiso   1.00
C295   C     0.31083   0.68053   0.25259   0.00000  Uiso   1.00
C296   C     0.31849   0.73508   0.25153   0.00000  Uiso   1.00
C297   C     0.29732   0.82772   0.14469   0.00000  Uiso   1.00
C298   C     0.26726   0.75588   0.00185   0.00000  Uiso   1.00
C299   C     0.27654   0.81448   0.08472   0.00000  Uiso   1.00
C300   C     0.02553   0.86550   0.45093   0.00000  Uiso   1.00
C301   C     0.05016   0.87527   0.00785   0.00000  Uiso   1.00
C302   C     0.10393   0.85713   0.02954   0.00000  Uiso   1.00
H303   H     0.26827   0.99666   0.25693   0.00000  Uiso   1.00
H304   H     0.15655   0.79161   0.20809   0.00000  Uiso   1.00
H305   H     0.17678   0.87504   0.29192   0.00000  Uiso   1.00
H306   H     0.28537   0.72605   0.47919   0.00000  Uiso   1.00
H307   H     0.21192   0.86778   0.08346   0.00000  Uiso   1.00
H308   H     0.31965   0.88368   0.43343   0.00000  Uiso   1.00
H309   H     0.12125   0.86632   0.07395   0.00000  Uiso   1.00
H310   H     0.02877   0.89875   0.03470   0.00000  Uiso   1.00
H311   H     0.09731   0.75217   0.37048   0.00000  Uiso   1.00
H312   H     0.06532   0.67008   0.24385   0.00000  Uiso   1.00
N313   N     0.14493   0.81890   0.23542   0.00000  Uiso   1.00
N314   N     0.18840   0.84777   0.26457   0.00000  Uiso   1.00
O315   O     0.29769   0.91296   0.25358   0.00000  Uiso   1.00
O316   O     0.05742   0.90371   0.24424   0.00000  Uiso   1.00
O317   O     0.31490   0.84024   0.33380   0.00000  Uiso   1.00
O318   O     0.07463   0.83099   0.32446   0.00000  Uiso   1.00
O319   O     0.27592   0.76296   0.25576   0.00000  Uiso   1.00
O320   O     0.03565   0.75371   0.24642   0.00000  Uiso   1.00
O321   O     0.25870   0.83567   0.17554   0.00000  Uiso   1.00
O322   O     0.01843   0.82642   0.16620   0.00000  Uiso   1.00
Zn323  Zn    0.27119   0.83951   0.25623   0.00000  Uiso   1.00
Zn324  Zn    0.06214   0.82716   0.24376   0.00000  Uiso   1.00
I325   I     0.04199   0.73762   0.08676   0.00000  Uiso   1.00
C326   C     0.19810   0.70867   0.39397   0.00000  Uiso   1.00
H327   H     0.20592   0.67359   0.41889   0.00000  Uiso   1.00
H328   H     0.16547   0.69652   0.35490   0.00000  Uiso   1.00
H329   H     0.23896   0.72335   0.38087   0.00000  Uiso   1.00
C330   C     0.34825   0.93160   0.24871   0.00000  Uiso   1.00
C331   C     0.46575   0.82620   0.49480   0.00000  Uiso   1.00
C332   C     0.43599   0.80966   0.44009   0.00000  Uiso   1.00
C333   C     0.52266   0.81114   0.01261   0.00000  Uiso   1.00
C334   C     0.54508   0.77249   0.48067   0.00000  Uiso   1.00
C335   C     0.51094   0.75076   0.42924   0.00000  Uiso   1.00
C336   C     0.45691   0.76959   0.40964   0.00000  Uiso   1.00
C337   C     0.55826   0.83471   0.06120   0.00000  Uiso   1.00
C338   C     0.63212   0.77501   0.05466   0.00000  Uiso   1.00
C339   C     0.38629   0.83448   0.41648   0.00000  Uiso   1.00
C340   C     0.35606   0.98620   0.24810   0.00000  Uiso   1.00
C341   C     0.36864   0.83475   0.35531   0.00000  Uiso   1.00
C342   C     0.64417   0.68053   0.25259   0.00000  Uiso   1.00
C343   C     0.65182   0.73508   0.25153   0.00000  Uiso   1.00
C344   C     0.63065   0.82772   0.14469   0.00000  Uiso   1.00
C345   C     0.60060   0.75588   0.00185   0.00000  Uiso   1.00
C346   C     0.60988   0.81448   0.08472   0.00000  Uiso   1.00
C347   C     0.35886   0.86550   0.45093   0.00000  Uiso   1.00
C348   C     0.38350   0.87527   0.00785   0.00000  Uiso   1.00
C349   C     0.43727   0.85713   0.02954   0.00000  Uiso   1.00
H350   H     0.60160   0.99666   0.25693   0.00000  Uiso   1.00
H351   H     0.48988   0.79161   0.20809   0.00000  Uiso   1.00
H352   H     0.51011   0.87504   0.29192   0.00000  Uiso   1.00
H353   H     0.61871   0.72605   0.47919   0.00000  Uiso   1.00
H354   H     0.54525   0.86778   0.08346   0.00000  Uiso   1.00
H355   H     0.65298   0.88368   0.43343   0.00000  Uiso   1.00
H356   H     0.45459   0.86632   0.07395   0.00000  Uiso   1.00
H357   H     0.36210   0.89875   0.03470   0.00000  Uiso   1.00
H358   H     0.43065   0.75217   0.37048   0.00000  Uiso   1.00
H359   H     0.39865   0.67008   0.24385   0.00000  Uiso   1.00
N360   N     0.47827   0.81890   0.23542   0.00000  Uiso   1.00
N361   N     0.52173   0.84777   0.26457   0.00000  Uiso   1.00
O362   O     0.63102   0.91296   0.25358   0.00000  Uiso   1.00
O363   O     0.39075   0.90371   0.24424   0.00000  Uiso   1.00
O364   O     0.64823   0.84024   0.33380   0.00000  Uiso   1.00
O365   O     0.40796   0.83099   0.32446   0.00000  Uiso   1.00
O366   O     0.60925   0.76296   0.25576   0.00000  Uiso   1.00
O367   O     0.36898   0.75371   0.24642   0.00000  Uiso   1.00
O368   O     0.59204   0.83567   0.17554   0.00000  Uiso   1.00
O369   O     0.35177   0.82642   0.16620   0.00000  Uiso   1.00
Zn370  Zn    0.60453   0.83951   0.25623   0.00000  Uiso   1.00
Zn371  Zn    0.39547   0.82716   0.24376   0.00000  Uiso   1.00
I372   I     0.37532   0.73762   0.08676   0.00000  Uiso   1.00
C373   C     0.53144   0.70867   0.39397   0.00000  Uiso   1.00
H374   H     0.53926   0.67359   0.41889   0.00000  Uiso   1.00
H375   H     0.49880   0.69652   0.35490   0.00000  Uiso   1.00
H376   H     0.57229   0.72335   0.38087   0.00000  Uiso   1.00
C377   C     0.68159   0.93160   0.24871   0.00000  Uiso   1.00
C378   C     0.79908   0.82620   0.49480   0.00000  Uiso   1.00
C379   C     0.76932   0.80966   0.44009   0.00000  Uiso   1.00
C380   C     0.85599   0.81114   0.01261   0.00000  Uiso   1.00
C381   C     0.87842   0.77249   0.48067   0.00000  Uiso   1.00
C382   C     0.84427   0.75076   0.42924   0.00000  Uiso   1.00
C383   C     0.79024   0.76959   0.40964   0.00000  Uiso   1.00
C384   C     0.89159   0.83471   0.06120   0.00000  Uiso   1.00
C385   C     0.96545   0.77501   0.05466   0.00000  Uiso   1.00
C386   C     0.71962   0.83448   0.41648   0.00000  Uiso   1.00
C387   C     0.68939   0.98620   0.24810   0.00000  Uiso   1.00
C388   C     0.70197   0.83475   0.35531   0.00000  Uiso   1.00
C389   C     0.97750   0.68053   0.25259   0.00000  Uiso   1.00
C390   C     0.98516   0.73508   0.25153   0.00000  Uiso   1.00
C391   C     0.96399   0.82772   0.14469   0.00000  Uiso   1.00
C392   C     0.93393   0.75588   0.00185   0.00000  Uiso   1.00
C393   C     0.94321   0.81448   0.08472   0.00000  Uiso   1.00
C394   C     0.69219   0.86550   0.45093   0.00000  Uiso   1.00
C395   C     0.71683   0.87527   0.00785   0.00000  Uiso   1.00
C396   C     0.77060   0.85713   0.02954   0.00000  Uiso   1.00
H397   H     0.93494   0.99666   0.25693   0.00000  Uiso   1.00
H398   H     0.82322   0.79161   0.20809   0.00000  Uiso   1.00
H399   H     0.84345   0.87504   0.29192   0.00000  Uiso   1.00
H400   H     0.95204   0.72605   0.47919   0.00000  Uiso   1.00
H401   H     0.87859   0.86778   0.08346   0.00000  Uiso   1.00
H402   H     0.98631   0.88368   0.43343   0.00000  Uiso   1.00
H403   H     0.78792   0.86632   0.07395   0.00000  Uiso   1.00
H404   H     0.69544   0.89875   0.03470   0.00000  Uiso   1.00
H405   H     0.76398   0.75217   0.37048   0.00000  Uiso   1.00
H406   H     0.73198   0.67008   0.24385   0.00000  Uiso   1.00
N407   N     0.81160   0.81890   0.23542   0.00000  Uiso   1.00
N408   N     0.85507   0.84777   0.26457   0.00000  Uiso   1.00
O409   O     0.96435   0.91296   0.25358   0.00000  Uiso   1.00
O410   O     0.72408   0.90371   0.24424   0.00000  Uiso   1.00
O411   O     0.98157   0.84024   0.33380   0.00000  Uiso   1.00
O412   O     0.74130   0.83099   0.32446   0.00000  Uiso   1.00
O413   O     0.94258   0.76296   0.25576   0.00000  Uiso   1.00
O414   O     0.70231   0.75371   0.24642   0.00000  Uiso   1.00
O415   O     0.92537   0.83567   0.17554   0.00000  Uiso   1.00
O416   O     0.68510   0.82642   0.16620   0.00000  Uiso   1.00
Zn417  Zn    0.93786   0.83951   0.25623   0.00000  Uiso   1.00
Zn418  Zn    0.72881   0.82716   0.24376   0.00000  Uiso   1.00
I419   I     0.70866   0.73762   0.08676   0.00000  Uiso   1.00
C420   C     0.86477   0.70867   0.39397   0.00000  Uiso   1.00
H421   H     0.87259   0.67359   0.41889   0.00000  Uiso   1.00
H422   H     0.83214   0.69652   0.35490   0.00000  Uiso   1.00
H423   H     0.90562   0.72335   0.38087   0.00000  Uiso   1.00
C424   C     0.01492   0.26493   0.74871   0.00000  Uiso   1.00
C425   C     0.13242   0.15954   0.99480   0.00000  Uiso   1.00
C426   C     0.10266   0.14299   0.94009   0.00000  Uiso   1.00
C427   C     0.18933   0.14447   0.51261   0.00000  Uiso   1.00
C428   C     0.21175   0.10582   0.98067   0.00000  Uiso   1.00
C429   C     0.17761   0.08409   0.92924   0.00000  Uiso   1.00
C430   C     0.12357   0.10292   0.90964   0.00000  Uiso   1.00
C431   C     0.22492   0.16805   0.56120   0.00000  Uiso   1.00
C432   C     0.29879   0.10834   0.55466   0.00000  Uiso   1.00
C433   C     0.05295   0.16781   0.91648   0.00000  Uiso   1.00
C434   C     0.02273   0.31953   0.74810   0.00000  Uiso   1.00
C435   C     0.03530   0.16808   0.85531   0.00000  Uiso   1.00
C436   C     0.31083   0.01386   0.75259   0.00000  Uiso   1.00
C437   C     0.31849   0.06842   0.75153   0.00000  Uiso   1.00
C438   C     0.29732   0.16106   0.64469   0.00000  Uiso   1.00
C439   C     0.26726   0.08922   0.50185   0.00000  Uiso   1.00
C440   C     0.27654   0.14781   0.58472   0.00000  Uiso   1.00
C441   C     0.02553   0.19884   0.95093   0.00000  Uiso   1.00
C442   C     0.05016   0.20861   0.50785   0.00000  Uiso   1.00
C443   C     0.10393   0.19046   0.52954   0.00000  Uiso   1.00
H444   H     0.26827   0.33000   0.75693   0.00000  Uiso   1.00
H445   H     0.15655   0.12494   0.70809   0.00000  Uiso   1.00
H446   H     0.17678   0.20838   0.79192   0.00000  Uiso   1.00
H447   H     0.28537   0.05938   0.97919   0.00000  Uiso   1.00
H448   H     0.21192   0.20111   0.58346   0.00000  Uiso   1.00
H449   H     0.31965   0.21702   0.93343   0.00000  Uiso   1.00
H450   H     0.12125   0.19965   0.57395   0.00000  Uiso   1.00
H451   H     0.02877   0.23208   0.53470   0.00000  Uiso   1.00
H452   H     0.09731   0.08551   0.87048   0.00000  Uiso   1.00
H453   H     0.06532   0.00341   0.74385   0.00000  Uiso   1.00
N454   N     0.14493   0.15223   0.73542   0.00000  Uiso   1.00
N455   N     0.18840   0.18110   0.76457   0.00000  Uiso   1.00
O456   O     0.29769   0.24629   0.75358   0.00000  Uiso   1.00
O457   O     0.05742   0.23704   0.74424   0.00000  Uiso   1.00
O458   O     0.31490   0.17358   0.83380   0.00000  Uiso   1.00
O459   O     0.07463   0.16433   0.82446   0.00000  Uiso   1.00
O460   O     0.27592   0.09629   0.75576   0.00000  Uiso   1.00
O461   O     0.03565   0.08704   0.74642   0.00000  Uiso   1.00
O462   O     0.25870   0.16901   0.67554   0.00000  Uiso   1.00
O463   O     0.01843   0.15976   0.66620   0.00000  Uiso   1.00
Zn464  Zn    0.27119   0.17284   0.75623   0.00000  Uiso   1.00
Zn465  Zn    0.06214   0.16049   0.74376   0.00000  Uiso   1.00
I466   I     0.04199   0.07095   0.58676   0.00000  Uiso   1.00
C467   C     0.19810   0.04201   0.89397   0.00000  Uiso   1.00
H468   H     0.20592   0.00693   0.91889   0.00000  Uiso   1.00
H469   H     0.16547   0.02986   0.85490   0.00000  Uiso   1.00
H470   H     0.23896   0.05668   0.88087   0.00000  Uiso   1.00
C471   C     0.34825   0.26493   0.74871   0.00000  Uiso   1.00
C472   C     0.46575   0.15954   0.99480   0.00000  Uiso   1.00
C473   C     0.43599   0.14299   0.94009   0.00000  Uiso   1.00
C474   C     0.52266   0.14447   0.51261   0.00000  Uiso   1.00
C475   C     0.54508   0.10582   0.98067   0.00000  Uiso   1.00
C476   C     0.51094   0.08409   0.92924   0.00000  Uiso   1.00
C477   C     0.45691   0.10292   0.90964   0.00000  Uiso   1.00
C478   C     0.55826   0.16805   0.56120   0.00000  Uiso   1.00
C479   C     0.63212   0.10834   0.55466   0.00000  Uiso   1.00
C480   C     0.38629   0.16781   0.91648   0.00000  Uiso   1.00
C481   C     0.35606   0.31953   0.74810   0.00000  Uiso   1.00
C482   C     0.36864   0.16808   0.85531   0.00000  Uiso   1.00
C483   C     0.64417   0.01386   0.75259   0.00000  Uiso   1.00
C484   C     0.65182   0.06842   0.75153   0.00000  Uiso   1.00
C485   C     0.63065   0.16106   0.64469   0.00000  Uiso   1.00
C486   C     0.60060   0.08922   0.50185   0.00000  Uiso   1.00
C487   C     0.60988   0.14781   0.58472   0.00000  Uiso   1.00
C488   C     0.35886   0.19884   0.95093   0.00000  Uiso   1.00
C489   C     0.38350   0.20861   0.50785   0.00000  Uiso   1.00
C490   C     0.43727   0.19046   0.52954   0.00000  Uiso   1.00
H491   H     0.60160   0.33000   0.75693   0.00000  Uiso   1.00
H492   H     0.48988   0.12494   0.70809   0.00000  Uiso   1.00
H493   H     0.51011   0.20838   0.79192   0.00000  Uiso   1.00
H494   H     0.61871   0.05938   0.97919   0.00000  Uiso   1.00
H495   H     0.54525   0.20111   0.58346   0.00000  Uiso   1.00
H496   H     0.65298   0.21702   0.93343   0.00000  Uiso   1.00
H497   H     0.45459   0.19965   0.57395   0.00000  Uiso   1.00
H498   H     0.36210   0.23208   0.53470   0.00000  Uiso   1.00
H499   H     0.43065   0.08551   0.87048   0.00000  Uiso   1.00
H500   H     0.39865   0.00341   0.74385   0.00000  Uiso   1.00
N501   N     0.47827   0.15223   0.73542   0.00000  Uiso   1.00
N502   N     0.52173   0.18110   0.76457   0.00000  Uiso   1.00
O503   O     0.63102   0.24629   0.75358   0.00000  Uiso   1.00
O504   O     0.39075   0.23704   0.74424   0.00000  Uiso   1.00
O505   O     0.64823   0.17358   0.83380   0.00000  Uiso   1.00
O506   O     0.40796   0.16433   0.82446   0.00000  Uiso   1.00
O507   O     0.60925   0.09629   0.75576   0.00000  Uiso   1.00
O508   O     0.36898   0.08704   0.74642   0.00000  Uiso   1.00
O509   O     0.59204   0.16901   0.67554   0.00000  Uiso   1.00
O510   O     0.35177   0.15976   0.66620   0.00000  Uiso   1.00
Zn511  Zn    0.60453   0.17284   0.75623   0.00000  Uiso   1.00
Zn512  Zn    0.39547   0.16049   0.74376   0.00000  Uiso   1.00
I513   I     0.37532   0.07095   0.58676   0.00000  Uiso   1.00
C514   C     0.53144   0.04201   0.89397   0.00000  Uiso   1.00
H515   H     0.53926   0.00693   0.91889   0.00000  Uiso   1.00
H516   H     0.49880   0.02986   0.85490   0.00000  Uiso   1.00
H517   H     0.57229   0.05668   0.88087   0.00000  Uiso   1.00
C518   C     0.68159   0.26493   0.74871   0.00000  Uiso   1.00
C519   C     0.79908   0.15954   0.99480   0.00000  Uiso   1.00
C520   C     0.76932   0.14299   0.94009   0.00000  Uiso   1.00
C521   C     0.85599   0.14447   0.51261   0.00000  Uiso   1.00
C522   C     0.87842   0.10582   0.98067   0.00000  Uiso   1.00
C523   C     0.84427   0.08409   0.92924   0.00000  Uiso   1.00
C524   C     0.79024   0.10292   0.90964   0.00000  Uiso   1.00
C525   C     0.89159   0.16805   0.56120   0.00000  Uiso   1.00
C526   C     0.96545   0.10834   0.55466   0.00000  Uiso   1.00
C527   C     0.71962   0.16781   0.91648   0.00000  Uiso   1.00
C528   C     0.68939   0.31953   0.74810   0.00000  Uiso   1.00
C529   C     0.70197   0.16808   0.85531   0.00000  Uiso   1.00
C530   C     0.97750   0.01386   0.75259   0.00000  Uiso   1.00
C531   C     0.98516   0.06842   0.75153   0.00000  Uiso   1.00
C532   C     0.96399   0.16106   0.64469   0.00000  Uiso   1.00
C533   C     0.93393   0.08922   0.50185   0.00000  Uiso   1.00
C534   C     0.94321   0.14781   0.58472   0.00000  Uiso   1.00
C535   C     0.69219   0.19884   0.95093   0.00000  Uiso   1.00
C536   C     0.71683   0.20861   0.50785   0.00000  Uiso   1.00
C537   C     0.77060   0.19046   0.52954   0.00000  Uiso   1.00
H538   H     0.93494   0.33000   0.75693   0.00000  Uiso   1.00
H539   H     0.82322   0.12494   0.70809   0.00000  Uiso   1.00
H540   H     0.84345   0.20838   0.79192   0.00000  Uiso   1.00
H541   H     0.95204   0.05938   0.97919   0.00000  Uiso   1.00
H542   H     0.87859   0.20111   0.58346   0.00000  Uiso   1.00
H543   H     0.98631   0.21702   0.93343   0.00000  Uiso   1.00
H544   H     0.78792   0.19965   0.57395   0.00000  Uiso   1.00
H545   H     0.69544   0.23208   0.53470   0.00000  Uiso   1.00
H546   H     0.76398   0.08551   0.87048   0.00000  Uiso   1.00
H547   H     0.73198   0.00341   0.74385   0.00000  Uiso   1.00
N548   N     0.81160   0.15223   0.73542   0.00000  Uiso   1.00
N549   N     0.85507   0.18110   0.76457   0.00000  Uiso   1.00
O550   O     0.96435   0.24629   0.75358   0.00000  Uiso   1.00
O551   O     0.72408   0.23704   0.74424   0.00000  Uiso   1.00
O552   O     0.98157   0.17358   0.83380   0.00000  Uiso   1.00
O553   O     0.74130   0.16433   0.82446   0.00000  Uiso   1.00
O554   O     0.94258   0.09629   0.75576   0.00000  Uiso   1.00
O555   O     0.70231   0.08704   0.74642   0.00000  Uiso   1.00
O556   O     0.92537   0.16901   0.67554   0.00000  Uiso   1.00
O557   O     0.68510   0.15976   0.66620   0.00000  Uiso   1.00
Zn558  Zn    0.93786   0.17284   0.75623   0.00000  Uiso   1.00
Zn559  Zn    0.72881   0.16049   0.74376   0.00000  Uiso   1.00
I560   I     0.70866   0.07095   0.58676   0.00000  Uiso   1.00
C561   C     0.86477   0.04201   0.89397   0.00000  Uiso   1.00
H562   H     0.87259   0.00693   0.91889   0.00000  Uiso   1.00
H563   H     0.83214   0.02986   0.85490   0.00000  Uiso   1.00
H564   H     0.90562   0.05668   0.88087   0.00000  Uiso   1.00
C565   C     0.01492   0.59827   0.74871   0.00000  Uiso   1.00
C566   C     0.13242   0.49287   0.99480   0.00000  Uiso   1.00
C567   C     0.10266   0.47632   0.94009   0.00000  Uiso   1.00
C568   C     0.18933   0.47781   0.51261   0.00000  Uiso   1.00
C569   C     0.21175   0.43916   0.98067   0.00000  Uiso   1.00
C570   C     0.17761   0.41742   0.92924   0.00000  Uiso   1.00
C571   C     0.12357   0.43626   0.90964   0.00000  Uiso   1.00
C572   C     0.22492   0.50138   0.56120   0.00000  Uiso   1.00
C573   C     0.29879   0.44168   0.55466   0.00000  Uiso   1.00
C574   C     0.05295   0.50114   0.91648   0.00000  Uiso   1.00
C575   C     0.02273   0.65286   0.74810   0.00000  Uiso   1.00
C576   C     0.03530   0.50141   0.85531   0.00000  Uiso   1.00
C577   C     0.31083   0.34720   0.75259   0.00000  Uiso   1.00
C578   C     0.31849   0.40175   0.75153   0.00000  Uiso   1.00
C579   C     0.29732   0.49439   0.64469   0.00000  Uiso   1.00
C580   C     0.26726   0.42255   0.50185   0.00000  Uiso   1.00
C581   C     0.27654   0.48115   0.58472   0.00000  Uiso   1.00
C582   C     0.02553   0.53217   0.95093   0.00000  Uiso   1.00
C583   C     0.05016   0.54194   0.50785   0.00000  Uiso   1.00
C584   C     0.10393   0.52379   0.52954   0.00000  Uiso   1.00
H585   H     0.26827   0.66333   0.75693   0.00000  Uiso   1.00
H586   H     0.15655   0.45827   0.70809   0.00000  Uiso   1.00
H587   H     0.17678   0.54171   0.79192   0.00000  Uiso   1.00
H588   H     0.28537   0.39272   0.97919   0.00000  Uiso   1.00
H589   H     0.21192   0.53444   0.58346   0.00000  Uiso   1.00
H590   H     0.31965   0.55035   0.93343   0.00000  Uiso   1.00
H591   H     0.12125   0.53299   0.57395   0.00000  Uiso   1.00
H592   H     0.02877   0.56542   0.53470   0.00000  Uiso   1.00
H593   H     0.09731   0.41884   0.87048   0.00000  Uiso   1.00
H594   H     0.06532   0.33675   0.74385   0.00000  Uiso   1.00
N595   N     0.14493   0.48556   0.73542   0.00000  Uiso   1.00
N596   N     0.18840   0.51444   0.76457   0.00000  Uiso   1.00
O597   O     0.29769   0.57963   0.75358   0.00000  Uiso   1.00
O598   O     0.05742   0.57038   0.74424   0.00000  Uiso   1.00
O599   O     0.31490   0.50691   0.83380   0.00000  Uiso   1.00
O600   O     0.07463   0.49766   0.82446   0.00000  Uiso   1.00
O601   O     0.27592   0.42962   0.75576   0.00000  Uiso   1.00
O602   O     0.03565   0.42037   0.74642   0.00000  Uiso   1.00
O603   O     0.25870   0.50234   0.67554   0.00000  Uiso   1.00
O604   O     0.01843   0.49309   0.66620   0.00000  Uiso   1.00
Zn605  Zn    0.27119   0.50618   0.75623   0.00000  Uiso   1.00
Zn606  Zn    0.06214   0.49382   0.74376   0.00000  Uiso   1.00
I607   I     0.04199   0.40428   0.58676   0.00000  Uiso   1.00
C608   C     0.19810   0.37534   0.89397   0.00000  Uiso   1.00
H609   H     0.20592   0.34026   0.91889   0.00000  Uiso   1.00
H610   H     0.16547   0.36319   0.85490   0.00000  Uiso   1.00
H611   H     0.23896   0.39002   0.88087   0.00000  Uiso   1.00
C612   C     0.34825   0.59827   0.74871   0.00000  Uiso   1.00
C613   C     0.46575   0.49287   0.99480   0.00000  Uiso   1.00
C614   C     0.43599   0.47632   0.94009   0.00000  Uiso   1.00
C615   C     0.52266   0.47781   0.51261   0.00000  Uiso   1.00
C616   C     0.54508   0.43916   0.98067   0.00000  Uiso   1.00
C617   C     0.51094   0.41742   0.92924   0.00000  Uiso   1.00
C618   C     0.45691   0.43626   0.90964   0.00000  Uiso   1.00
C619   C     0.55826   0.50138   0.56120   0.00000  Uiso   1.00
C620   C     0.63212   0.44168   0.55466   0.00000  Uiso   1.00
C621   C     0.38629   0.50114   0.91648   0.00000  Uiso   1.00
C622   C     0.35606   0.65286   0.74810   0.00000  Uiso   1.00
C623   C     0.36864   0.50141   0.85531   0.00000  Uiso   1.00
C624   C     0.64417   0.34720   0.75259   0.00000  Uiso   1.00
C625   C     0.65182   0.40175   0.75153   0.00000  Uiso   1.00
C626   C     0.63065   0.49439   0.64469   0.00000  Uiso   1.00
C627   C     0.60060   0.42255   0.50185   0.00000  Uiso   1.00
C628   C     0.60988   0.48115   0.58472   0.00000  Uiso   1.00
C629   C     0.35886   0.53217   0.95093   0.00000  Uiso   1.00
C630   C     0.38350   0.54194   0.50785   0.00000  Uiso   1.00
C631   C     0.43727   0.52379   0.52954   0.00000  Uiso   1.00
H632   H     0.60160   0.66333   0.75693   0.00000  Uiso   1.00
H633   H     0.48988   0.45827   0.70809   0.00000  Uiso   1.00
H634   H     0.51011   0.54171   0.79192   0.00000  Uiso   1.00
H635   H     0.61871   0.39272   0.97919   0.00000  Uiso   1.00
H636   H     0.54525   0.53444   0.58346   0.00000  Uiso   1.00
H637   H     0.65298   0.55035   0.93343   0.00000  Uiso   1.00
H638   H     0.45459   0.53299   0.57395   0.00000  Uiso   1.00
H639   H     0.36210   0.56542   0.53470   0.00000  Uiso   1.00
H640   H     0.43065   0.41884   0.87048   0.00000  Uiso   1.00
H641   H     0.39865   0.33675   0.74385   0.00000  Uiso   1.00
N642   N     0.47827   0.48556   0.73542   0.00000  Uiso   1.00
N643   N     0.52173   0.51444   0.76457   0.00000  Uiso   1.00
O644   O     0.63102   0.57963   0.75358   0.00000  Uiso   1.00
O645   O     0.39075   0.57038   0.74424   0.00000  Uiso   1.00
O646   O     0.64823   0.50691   0.83380   0.00000  Uiso   1.00
O647   O     0.40796   0.49766   0.82446   0.00000  Uiso   1.00
O648   O     0.60925   0.42962   0.75576   0.00000  Uiso   1.00
O649   O     0.36898   0.42037   0.74642   0.00000  Uiso   1.00
O650   O     0.59204   0.50234   0.67554   0.00000  Uiso   1.00
O651   O     0.35177   0.49309   0.66620   0.00000  Uiso   1.00
Zn652  Zn    0.60453   0.50618   0.75623   0.00000  Uiso   1.00
Zn653  Zn    0.39547   0.49382   0.74376   0.00000  Uiso   1.00
I654   I     0.37532   0.40428   0.58676   0.00000  Uiso   1.00
C655   C     0.53144   0.37534   0.89397   0.00000  Uiso   1.00
H656   H     0.53926   0.34026   0.91889   0.00000  Uiso   1.00
H657   H     0.49880   0.36319   0.85490   0.00000  Uiso   1.00
H658   H     0.57229   0.39002   0.88087   0.00000  Uiso   1.00
C659   C     0.68159   0.59827   0.74871   0.00000  Uiso   1.00
C660   C     0.79908   0.49287   0.99480   0.00000  Uiso   1.00
C661   C     0.76932   0.47632   0.94009   0.00000  Uiso   1.00
C662   C     0.85599   0.47781   0.51261   0.00000  Uiso   1.00
C663   C     0.87842   0.43916   0.98067   0.00000  Uiso   1.00
C664   C     0.84427   0.41742   0.92924   0.00000  Uiso   1.00
C665   C     0.79024   0.43626   0.90964   0.00000  Uiso   1.00
C666   C     0.89159   0.50138   0.56120   0.00000  Uiso   1.00
C667   C     0.96545   0.44168   0.55466   0.00000  Uiso   1.00
C668   C     0.71962   0.50114   0.91648   0.00000  Uiso   1.00
C669   C     0.68939   0.65286   0.74810   0.00000  Uiso   1.00
C670   C     0.70197   0.50141   0.85531   0.00000  Uiso   1.00
C671   C     0.97750   0.34720   0.75259   0.00000  Uiso   1.00
C672   C     0.98516   0.40175   0.75153   0.00000  Uiso   1.00
C673   C     0.96399   0.49439   0.64469   0.00000  Uiso   1.00
C674   C     0.93393   0.42255   0.50185   0.00000  Uiso   1.00
C675   C     0.94321   0.48115   0.58472   0.00000  Uiso   1.00
C676   C     0.69219   0.53217   0.95093   0.00000  Uiso   1.00
C677   C     0.71683   0.54194   0.50785   0.00000  Uiso   1.00
C678   C     0.77060   0.52379   0.52954   0.00000  Uiso   1.00
H679   H     0.93494   0.66333   0.75693   0.00000  Uiso   1.00
H680   H     0.82322   0.45827   0.70809   0.00000  Uiso   1.00
H681   H     0.84345   0.54171   0.79192   0.00000  Uiso   1.00
H682   H     0.95204   0.39272   0.97919   0.00000  Uiso   1.00
H683   H     0.87859   0.53444   0.58346   0.00000  Uiso   1.00
H684   H     0.98631   0.55035   0.93343   0.00000  Uiso   1.00
H685   H     0.78792   0.53299   0.57395   0.00000  Uiso   1.00
H686   H     0.69544   0.56542   0.53470   0.00000  Uiso   1.00
H687   H     0.76398   0.41884   0.87048   0.00000  Uiso   1.00
H688   H     0.73198   0.33675   0.74385   0.00000  Uiso   1.00
N689   N     0.81160   0.48556   0.73542   0.00000  Uiso   1.00
N690   N     0.85507   0.51444   0.76457   0.00000  Uiso   1.00
O691   O     0.96435   0.57963   0.75358   0.00000  Uiso   1.00
O692   O     0.72408   0.57038   0.74424   0.00000  Uiso   1.00
O693   O     0.98157   0.50691   0.83380   0.00000  Uiso   1.00
O694   O     0.74130   0.49766   0.82446   0.00000  Uiso   1.00
O695   O     0.94258   0.42962   0.75576   0.00000  Uiso   1.00
O696   O     0.70231   0.42037   0.74642   0.00000  Uiso   1.00
O697   O     0.92537   0.50234   0.67554   0.00000  Uiso   1.00
O698   O     0.68510   0.49309   0.66620   0.00000  Uiso   1.00
Zn699  Zn    0.93786   0.50618   0.75623   0.00000  Uiso   1.00
Zn700  Zn    0.72881   0.49382   0.74376   0.00000  Uiso   1.00
I701   I     0.70866   0.40428   0.58676   0.00000  Uiso   1.00
C702   C     0.86477   0.37534   0.89397   0.00000  Uiso   1.00
H703   H     0.87259   0.34026   0.91889   0.00000  Uiso   1.00
H704   H     0.83214   0.36319   0.85490   0.00000  Uiso   1.00
H705   H     0.90562   0.39002   0.88087   0.00000  Uiso   1.00
C706   C     0.01492   0.93160   0.74871   0.00000  Uiso   1.00
C707   C     0.13242   0.82620   0.99480   0.00000  Uiso   1.00
C708   C     0.10266   0.80966   0.94009   0.00000  Uiso   1.00
C709   C     0.18933   0.81114   0.51261   0.00000  Uiso   1.00
C710   C     0.21175   0.77249   0.98067   0.00000  Uiso   1.00
C711   C     0.17761   0.75076   0.92924   0.00000  Uiso   1.00
C712   C     0.12357   0.76959   0.90964   0.00000  Uiso   1.00
C713   C     0.22492   0.83471   0.56120   0.00000  Uiso   1.00
C714   C     0.29879   0.77501   0.55466   0.00000  Uiso   1.00
C715   C     0.05295   0.83448   0.91648   0.00000  Uiso   1.00
C716   C     0.02273   0.98620   0.74810   0.00000  Uiso   1.00
C717   C     0.03530   0.83475   0.85531   0.00000  Uiso   1.00
C718   C     0.31083   0.68053   0.75259   0.00000  Uiso   1.00
C719   C     0.31849   0.73508   0.75153   0.00000  Uiso   1.00
C720   C     0.29732   0.82772   0.64469   0.00000  Uiso   1.00
C721   C     0.26726   0.75588   0.50185   0.00000  Uiso   1.00
C722   C     0.27654   0.81448   0.58472   0.00000  Uiso   1.00
C723   C     0.02553   0.86550   0.95093   0.00000  Uiso   1.00
C724   C     0.05016   0.87527   0.50785   0.00000  Uiso   1.00
C725   C     0.10393   0.85713   0.52954   0.00000  Uiso   1.00
H726   H     0.26827   0.99666   0.75693   0.00000  Uiso   1.00
H727   H     0.15655   0.79161   0.70809   0.00000  Uiso   1.00
H728   H     0.17678   0.87504   0.79192   0.00000  Uiso   1.00
H729   H     0.28537   0.72605   0.97919   0.00000  Uiso   1.00
H730   H     0.21192   0.86778   0.58346   0.00000  Uiso   1.00
H731   H     0.31965   0.88368   0.93343   0.00000  Uiso   1.00
H732   H     0.12125   0.86632   0.57395   0.00000  Uiso   1.00
H733   H     0.02877   0.89875   0.53470   0.00000  Uiso   1.00
H734   H     0.09731   0.75217   0.87048   0.00000  Uiso   1.00
H735   H     0.06532   0.67008   0.74385   0.00000  Uiso   1.00
N736   N     0.14493   0.81890   0.73542   0.00000  Uiso   1.00
N737   N     0.18840   0.84777   0.76457   0.00000  Uiso   1.00
O738   O     0.29769   0.91296   0.75358   0.00000  Uiso   1.00
O739   O     0.05742   0.90371   0.74424   0.00000  Uiso   1.00
O740   O     0.31490   0.84024   0.83380   0.00000  Uiso   1.00
O741   O     0.07463   0.83099   0.82446   0.00000  Uiso   1.00
O742   O     0.27592   0.76296   0.75576   0.00000  Uiso   1.00
O743   O     0.03565   0.75371   0.74642   0.00000  Uiso   1.00
O744   O     0.25870   0.83567   0.67554   0.00000  Uiso   1.00
O745   O     0.01843   0.82642   0.66620   0.00000  Uiso   1.00
Zn746  Zn    0.27119   0.83951   0.75623   0.00000  Uiso   1.00
Zn747  Zn    0.06214   0.82716   0.74376   0.00000  Uiso   1.00
I748   I     0.04199   0.73762   0.58676   0.00000  Uiso   1.00
C749   C     0.19810   0.70867   0.89397   0.00000  Uiso   1.00
H750   H     0.20592   0.67359   0.91889   0.00000  Uiso   1.00
H751   H     0.16547   0.69652   0.85490   0.00000  Uiso   1.00
H752   H     0.23896   0.72335   0.88087   0.00000  Uiso   1.00
C753   C     0.34825   0.93160   0.74871   0.00000  Uiso   1.00
C754   C     0.46575   0.82620   0.99480   0.00000  Uiso   1.00
C755   C     0.43599   0.80966   0.94009   0.00000  Uiso   1.00
C756   C     0.52266   0.81114   0.51261   0.00000  Uiso   1.00
C757   C     0.54508   0.77249   0.98067   0.00000  Uiso   1.00
C758   C     0.51094   0.75076   0.92924   0.00000  Uiso   1.00
C759   C     0.45691   0.76959   0.90964   0.00000  Uiso   1.00
C760   C     0.55826   0.83471   0.56120   0.00000  Uiso   1.00
C761   C     0.63212   0.77501   0.55466   0.00000  Uiso   1.00
C762   C     0.38629   0.83448   0.91648   0.00000  Uiso   1.00
C763   C     0.35606   0.98620   0.74810   0.00000  Uiso   1.00
C764   C     0.36864   0.83475   0.85531   0.00000  Uiso   1.00
C765   C     0.64417   0.68053   0.75259   0.00000  Uiso   1.00
C766   C     0.65182   0.73508   0.75153   0.00000  Uiso   1.00
C767   C     0.63065   0.82772   0.64469   0.00000  Uiso   1.00
C768   C     0.60060   0.75588   0.50185   0.00000  Uiso   1.00
C769   C     0.60988   0.81448   0.58472   0.00000  Uiso   1.00
C770   C     0.35886   0.86550   0.95093   0.00000  Uiso   1.00
C771   C     0.38350   0.87527   0.50785   0.00000  Uiso   1.00
C772   C     0.43727   0.85713   0.52954   0.00000  Uiso   1.00
H773   H     0.60160   0.99666   0.75693   0.00000  Uiso   1.00
H774   H     0.48988   0.79161   0.70809   0.00000  Uiso   1.00
H775   H     0.51011   0.87504   0.79192   0.00000  Uiso   1.00
H776   H     0.61871   0.72605   0.97919   0.00000  Uiso   1.00
H777   H     0.54525   0.86778   0.58346   0.00000  Uiso   1.00
H778   H     0.65298   0.88368   0.93343   0.00000  Uiso   1.00
H779   H     0.45459   0.86632   0.57395   0.00000  Uiso   1.00
H780   H     0.36210   0.89875   0.53470   0.00000  Uiso   1.00
H781   H     0.43065   0.75217   0.87048   0.00000  Uiso   1.00
H782   H     0.39865   0.67008   0.74385   0.00000  Uiso   1.00
N783   N     0.47827   0.81890   0.73542   0.00000  Uiso   1.00
N784   N     0.52173   0.84777   0.76457   0.00000  Uiso   1.00
O785   O     0.63102   0.91296   0.75358   0.00000  Uiso   1.00
O786   O     0.39075   0.90371   0.74424   0.00000  Uiso   1.00
O787   O     0.64823   0.84024   0.83380   0.00000  Uiso   1.00
O788   O     0.40796   0.83099   0.82446   0.00000  Uiso   1.00
O789   O     0.60925   0.76296   0.75576   0.00000  Uiso   1.00
O790   O     0.36898   0.75371   0.74642   0.00000  Uiso   1.00
O791   O     0.59204   0.83567   0.67554   0.00000  Uiso   1.00
O792   O     0.35177   0.82642   0.66620   0.00000  Uiso   1.00
Zn793  Zn    0.60453   0.83951   0.75623   0.00000  Uiso   1.00
Zn794  Zn    0.39547   0.82716   0.74376   0.00000  Uiso   1.00
I795   I     0.37532   0.73762   0.58676   0.00000  Uiso   1.00
C796   C     0.53144   0.70867   0.89397   0.00000  Uiso   1.00
H797   H     0.53926   0.67359   0.91889   0.00000  Uiso   1.00
H798   H     0.49880   0.69652   0.85490   0.00000  Uiso   1.00
H799   H     0.57229   0.72335   0.88087   0.00000  Uiso   1.00
C800   C     0.68159   0.93160   0.74871   0.00000  Uiso   1.00
C801   C     0.79908   0.82620   0.99480   0.00000  Uiso   1.00
C802   C     0.76932   0.80966   0.94009   0.00000  Uiso   1.00
C803   C     0.85599   0.81114   0.51261   0.00000  Uiso   1.00
C804   C     0.87842   0.77249   0.98067   0.00000  Uiso   1.00
C805   C     0.84427   0.75076   0.92924   0.00000  Uiso   1.00
C806   C     0.79024   0.76959   0.90964   0.00000  Uiso   1.00
C807   C     0.89159   0.83471   0.56120   0.00000  Uiso   1.00
C808   C     0.96545   0.77501   0.55466   0.00000  Uiso   1.00
C809   C     0.71962   0.83448   0.91648   0.00000  Uiso   1.00
C810   C     0.68939   0.98620   0.74810   0.00000  Uiso   1.00
C811   C     0.70197   0.83475   0.85531   0.00000  Uiso   1.00
C812   C     0.97750   0.68053   0.75259   0.00000  Uiso   1.00
C813   C     0.98516   0.73508   0.75153   0.00000  Uiso   1.00
C814   C     0.96399   0.82772   0.64469   0.00000  Uiso   1.00
C815   C     0.93393   0.75588   0.50185   0.00000  Uiso   1.00
C816   C     0.94321   0.81448   0.58472   0.00000  Uiso   1.00
C817   C     0.69219   0.86550   0.95093   0.00000  Uiso   1.00
C818   C     0.71683   0.87527   0.50785   0.00000  Uiso   1.00
C819   C     0.77060   0.85713   0.52954   0.00000  Uiso   1.00
H820   H     0.93494   0.99666   0.75693   0.00000  Uiso   1.00
H821   H     0.82322   0.79161   0.70809   0.00000  Uiso   1.00
H822   H     0.84345   0.87504   0.79192   0.00000  Uiso   1.00
H823   H     0.95204   0.72605   0.97919   0.00000  Uiso   1.00
H824   H     0.87859   0.86778   0.58346   0.00000  Uiso   1.00
H825   H     0.98631   0.88368   0.93343   0.00000  Uiso   1.00
H826   H     0.78792   0.86632   0.57395   0.00000  Uiso   1.00
H827   H     0.69544   0.89875   0.53470   0.00000  Uiso   1.00
H828   H     0.76398   0.75217   0.87048   0.00000  Uiso   1.00
H829   H     0.73198   0.67008   0.74385   0.00000  Uiso   1.00
N830   N     0.81160   0.81890   0.73542   0.00000  Uiso   1.00
N831   N     0.85507   0.84777   0.76457   0.00000  Uiso   1.00
O832   O     0.96435   0.91296   0.75358   0.00000  Uiso   1.00
O833   O     0.72408   0.90371   0.74424   0.00000  Uiso   1.00
O834   O     0.98157   0.84024   0.83380   0.00000  Uiso   1.00
O835   O     0.74130   0.83099   0.82446   0.00000  Uiso   1.00
O836   O     0.94258   0.76296   0.75576   0.00000  Uiso   1.00
O837   O     0.70231   0.75371   0.74642   0.00000  Uiso   1.00
O838   O     0.92537   0.83567   0.67554   0.00000  Uiso   1.00
O839   O     0.68510   0.82642   0.66620   0.00000  Uiso   1.00
Zn840  Zn    0.93786   0.83951   0.75623   0.00000  Uiso   1.00
Zn841  Zn    0.72881   0.82716   0.74376   0.00000  Uiso   1.00
I842   I     0.70866   0.73762   0.58676   0.00000  Uiso   1.00
C843   C     0.86477   0.70867   0.89397   0.00000  Uiso   1.00
H844   H     0.87259   0.67359   0.91889   0.00000  Uiso   1.00
H845   H     0.83214   0.69652   0.85490   0.00000  Uiso   1.00
H846   H     0.90562   0.72335   0.88087   0.00000  Uiso   1.00
loop_
_geom_bond_atom_site_label_1
_geom_bond_atom_site_label_2
_geom_bond_distance
_geom_bond_site_symmetry_2
_ccdc_geom_bond_type
C1     O34     1.289   .     A
C1     C11     1.403   .     S
C1     O127    1.275   1_455 S
C2     C3      1.401   .     A
C2     C427    1.410   .     S
C2     C443    1.421   .     S
C3     C10     1.406   .     A
C3     C7      1.411   .     A
C4     C8      1.389   .     A
C4     C425    1.410   1_554 S
C4     C428    1.423   1_554 S
C5     C6      1.410   .     A
C5     C427    1.423   .     S
C5     C439    1.409   .     S
C6     C7      1.395   .     A
C6     C44     1.511   .     S
C7     H29     1.083   .     S
C8     C17     1.383   .     A
C8     H25     1.080   .     S
C9     C17     1.411   .     A
C9     C16     1.394   .     A
C9     I90     2.128   .     S
C10    C12     1.453   .     S
C10    C18     1.402   .     A
C11    C248    1.339   1_455 S
C11    H171    1.088   .     S
C12    O36     1.298   .     A
C12    O129    1.289   1_455 S
C13    C14     1.402   .     S
C13    C340    1.339   1_545 S
C13    H303    1.088   1_545 S
C14    O37     1.289   .     A
C14    O85     1.275   .     S
C15    O39     1.300   .     A
C15    C17     1.451   .     S
C15    O87     1.287   .     S
C16    C428    1.409   1_554 S
C16    H447    1.081   1_554 S
C18    C442    1.387   .     S
C18    H120    1.083   1_455 S
C19    H28     1.083   .     S
C19    C20     1.392   .     A
C19    C441    1.387   1_554 S
C20    H27     1.079   .     S
C20    C425    1.421   1_554 S
H21    C154    1.088   .     S
H22    N31     1.029   .     S
H23    N32     1.029   .     S
H24    C439    1.081   .     S
H26    C65     1.083   .     S
H30    C293    1.088   1_545 S
N31    Zn42    2.017   .     S
N31    N32     1.287   .     D
N32    Zn41    2.017   .     S
O33    Zn41    1.951   .     S
O33    C48     1.275   .     S
O34    Zn42    1.978   .     S
O35    Zn41    1.950   .     S
O35    C59     1.289   .     S
O36    Zn42    1.907   .     S
O37    Zn41    1.978   .     S
O38    Zn42    1.951   .     S
O38    C108    1.275   1_455 S
O39    Zn41    1.907   .     S
O40    Zn42    1.950   .     S
O40    C109    1.287   1_455 S
I43    C103    2.128   1_455 S
C44    H47     1.111   .     S
C44    H46     1.111   .     S
C44    H45     1.110   .     S
C48    O81     1.289   .     A
C48    C58     1.403   .     S
C49    C50     1.401   .     A
C49    C474    1.410   .     S
C49    C490    1.421   .     S
C50    C57     1.406   .     A
C50    C54     1.411   .     A
C51    C55     1.389   .     A
C51    C472    1.410   1_554 S
C51    C475    1.423   1_554 S
C52    C53     1.410   .     A
C52    C474    1.423   .     S
C52    C486    1.409   .     S
C53    C54     1.395   .     A
C53    C91     1.511   .     S
C54    H76     1.083   .     S
C55    C64     1.383   .     A
C55    H72     1.080   .     S
C56    C64     1.411   .     A
C56    C63     1.394   .     A
C56    I137    2.128   .     S
C57    C59     1.453   .     S
C57    C65     1.402   .     A
C58    C154    1.339   .     S
C58    H218    1.088   .     S
C59    O83     1.298   .     A
C60    C61     1.402   .     S
C60    C387    1.339   1_545 S
C60    H350    1.088   1_545 S
C61    O84     1.289   .     A
C61    O132    1.275   .     S
C62    O86     1.300   .     A
C62    C64     1.451   .     S
C62    O134    1.287   .     S
C63    C475    1.409   1_554 S
C63    H494    1.081   1_554 S
C65    C489    1.387   .     S
C66    H75     1.083   .     S
C66    C67     1.392   .     A
C66    C488    1.387   1_554 S
C67    H74     1.079   .     S
C67    C472    1.421   1_554 S
H68    C201    1.088   .     S
H69    N78     1.029   .     S
H70    N79     1.029   .     S
H71    C486    1.081   .     S
H73    C112    1.083   .     S
H77    C340    1.088   1_545 S
N78    Zn89    2.017   .     S
N78    N79     1.287   .     D
N79    Zn88    2.017   .     S
O80    Zn88    1.951   .     S
O80    C95     1.275   .     S
O81    Zn89    1.978   .     S
O82    Zn88    1.950   .     S
O82    C106    1.289   .     S
O83    Zn89    1.907   .     S
O84    Zn88    1.978   .     S
O85    Zn89    1.951   .     S
O86    Zn88    1.907   .     S
O87    Zn89    1.950   .     S
C91    H94     1.111   .     S
C91    H93     1.111   .     S
C91    H92     1.110   .     S
C95    O128    1.289   .     A
C95    C105    1.403   .     S
C96    C97     1.401   .     A
C96    C521    1.410   .     S
C96    C537    1.421   .     S
C97    C104    1.406   .     A
C97    C101    1.411   .     A
C98    C102    1.389   .     A
C98    C519    1.410   1_554 S
C98    C522    1.423   1_554 S
C99    C100    1.410   .     A
C99    C521    1.423   .     S
C99    C533    1.409   .     S
C100   C101    1.395   .     A
C100   C138    1.511   .     S
C101   H123    1.083   .     S
C102   C111    1.383   .     A
C102   H119    1.080   .     S
C103   C111    1.411   .     A
C103   C110    1.394   .     A
C103   I43     2.128   1_655 S
C104   C106    1.453   .     S
C104   C112    1.402   .     A
C105   C201    1.339   .     S
C105   H265    1.088   .     S
C106   O130    1.298   .     A
C107   C108    1.402   .     S
C107   C293    1.339   1_645 S
C107   H397    1.088   1_545 S
C108   O131    1.289   .     A
C108   O38     1.275   1_655 S
C109   O133    1.300   .     A
C109   C111    1.451   .     S
C109   O40     1.287   1_655 S
C110   C522    1.409   1_554 S
C110   H541    1.081   1_554 S
C112   C536    1.387   .     S
C113   H122    1.083   .     S
C113   C114    1.392   .     A
C113   C535    1.387   1_554 S
C114   H121    1.079   .     S
C114   C519    1.421   1_554 S
H115   C248    1.088   .     S
H116   N125    1.029   .     S
H117   N126    1.029   .     S
H118   C533    1.081   .     S
H120   C18     1.083   1_655 S
H124   C387    1.088   1_545 S
N125   Zn136   2.017   .     S
N125   N126    1.287   .     D
N126   Zn135   2.017   .     S
O127   Zn135   1.951   .     S
O127   C1      1.275   1_655 S
O128   Zn136   1.978   .     S
O129   Zn135   1.950   .     S
O129   C12     1.289   1_655 S
O130   Zn136   1.907   .     S
O131   Zn135   1.978   .     S
O132   Zn136   1.951   .     S
O133   Zn135   1.907   .     S
O134   Zn136   1.950   .     S
C138   H141    1.111   .     S
C138   H140    1.111   .     S
C138   H139    1.110   .     S
C142   O175    1.289   .     A
C142   C152    1.403   .     S
C142   O268    1.275   1_455 S
C143   C144    1.401   .     A
C143   C568    1.410   .     S
C143   C584    1.421   .     S
C144   C151    1.406   .     A
C144   C148    1.411   .     A
C145   C149    1.389   .     A
C145   C566    1.410   1_554 S
C145   C569    1.423   1_554 S
C146   C147    1.410   .     A
C146   C568    1.423   .     S
C146   C580    1.409   .     S
C147   C148    1.395   .     A
C147   C185    1.511   .     S
C148   H170    1.083   .     S
C149   C158    1.383   .     A
C149   H166    1.080   .     S
C150   C158    1.411   .     A
C150   C157    1.394   .     A
C150   I231    2.128   .     S
C151   C153    1.453   .     S
C151   C159    1.402   .     A
C152   C389    1.339   1_455 S
C152   H312    1.088   .     S
C153   O177    1.298   .     A
C153   O270    1.289   1_455 S
C154   C155    1.402   .     S
C155   O178    1.289   .     A
C155   O226    1.275   .     S
C156   O180    1.300   .     A
C156   C158    1.451   .     S
C156   O228    1.287   .     S
C157   C569    1.409   1_554 S
C157   H588    1.081   1_554 S
C159   C583    1.387   .     S
C159   H261    1.083   1_455 S
C160   H169    1.083   .     S
C160   C161    1.392   .     A
C160   C582    1.387   1_554 S
C161   H168    1.079   .     S
C161   C566    1.421   1_554 S
H162   C295    1.088   .     S
H163   N172    1.029   .     S
H164   N173    1.029   .     S
H165   C580    1.081   .     S
H167   C206    1.083   .     S
N172   Zn183   2.017   .     S
N172   N173    1.287   .     D
N173   Zn182   2.017   .     S
O174   Zn182   1.951   .     S
O174   C189    1.275   .     S
O175   Zn183   1.978   .     S
O176   Zn182   1.950   .     S
O176   C200    1.289   .     S
O177   Zn183   1.907   .     S
O178   Zn182   1.978   .     S
O179   Zn183   1.951   .     S
O179   C249    1.275   1_455 S
O180   Zn182   1.907   .     S
O181   Zn183   1.950   .     S
O181   C250    1.287   1_455 S
I184   C244    2.128   1_455 S
C185   H188    1.111   .     S
C185   H187    1.111   .     S
C185   H186    1.110   .     S
C189   O222    1.289   .     A
C189   C199    1.403   .     S
C190   C191    1.401   .     A
C190   C615    1.410   .     S
C190   C631    1.421   .     S
C191   C198    1.406   .     A
C191   C195    1.411   .     A
C192   C196    1.389   .     A
C192   C613    1.410   1_554 S
C192   C616    1.423   1_554 S
C193   C194    1.410   .     A
C193   C615    1.423   .     S
C193   C627    1.409   .     S
C194   C195    1.395   .     A
C194   C232    1.511   .     S
C195   H217    1.083   .     S
C196   C205    1.383   .     A
C196   H213    1.080   .     S
C197   C205    1.411   .     A
C197   C204    1.394   .     A
C197   I278    2.128   .     S
C198   C200    1.453   .     S
C198   C206    1.402   .     A
C199   C295    1.339   .     S
C199   H359    1.088   .     S
C200   O224    1.298   .     A
C201   C202    1.402   .     S
C202   O225    1.289   .     A
C202   O273    1.275   .     S
C203   O227    1.300   .     A
C203   C205    1.451   .     S
C203   O275    1.287   .     S
C204   C616    1.409   1_554 S
C204   H635    1.081   1_554 S
C206   C630    1.387   .     S
C207   H216    1.083   .     S
C207   C208    1.392   .     A
C207   C629    1.387   1_554 S
C208   H215    1.079   .     S
C208   C613    1.421   1_554 S
H209   C342    1.088   .     S
H210   N219    1.029   .     S
H211   N220    1.029   .     S
H212   C627    1.081   .     S
H214   C253    1.083   .     S
N219   Zn230   2.017   .     S
N219   N220    1.287   .     D
N220   Zn229   2.017   .     S
O221   Zn229   1.951   .     S
O221   C236    1.275   .     S
O222   Zn230   1.978   .     S
O223   Zn229   1.950   .     S
O223   C247    1.289   .     S
O224   Zn230   1.907   .     S
O225   Zn229   1.978   .     S
O226   Zn230   1.951   .     S
O227   Zn229   1.907   .     S
O228   Zn230   1.950   .     S
C232   H235    1.111   .     S
C232   H234    1.111   .     S
C232   H233    1.110   .     S
C236   O269    1.289   .     A
C236   C246    1.403   .     S
C237   C238    1.401   .     A
C237   C662    1.410   .     S
C237   C678    1.421   .     S
C238   C245    1.406   .     A
C238   C242    1.411   .     A
C239   C243    1.389   .     A
C239   C660    1.410   1_554 S
C239   C663    1.423   1_554 S
C240   C241    1.410   .     A
C240   C662    1.423   .     S
C240   C674    1.409   .     S
C241   C242    1.395   .     A
C241   C279    1.511   .     S
C242   H264    1.083   .     S
C243   C252    1.383   .     A
C243   H260    1.080   .     S
C244   C252    1.411   .     A
C244   C251    1.394   .     A
C244   I184    2.128   1_655 S
C245   C247    1.453   .     S
C245   C253    1.402   .     A
C246   C342    1.339   .     S
C246   H406    1.088   .     S
C247   O271    1.298   .     A
C248   C249    1.402   .     S
C248   C11     1.339   1_655 S
C249   O272    1.289   .     A
C249   O179    1.275   1_655 S
C250   O274    1.300   .     A
C250   C252    1.451   .     S
C250   O181    1.287   1_655 S
C251   C663    1.409   1_554 S
C251   H682    1.081   1_554 S
C253   C677    1.387   .     S
C254   H263    1.083   .     S
C254   C255    1.392   .     A
C254   C676    1.387   1_554 S
C255   H262    1.079   .     S
C255   C660    1.421   1_554 S
H256   C389    1.088   .     S
H257   N266    1.029   .     S
H258   N267    1.029   .     S
H259   C674    1.081   .     S
H261   C159    1.083   1_655 S
N266   Zn277   2.017   .     S
N266   N267    1.287   .     D
N267   Zn276   2.017   .     S
O268   Zn276   1.951   .     S
O268   C142    1.275   1_655 S
O269   Zn277   1.978   .     S
O270   Zn276   1.950   .     S
O270   C153    1.289   1_655 S
O271   Zn277   1.907   .     S
O272   Zn276   1.978   .     S
O273   Zn277   1.951   .     S
O274   Zn276   1.907   .     S
O275   Zn277   1.950   .     S
C279   H282    1.111   .     S
C279   H281    1.111   .     S
C279   H280    1.110   .     S
C283   O316    1.289   .     A
C283   C293    1.403   .     S
C283   O409    1.275   1_455 S
C284   C285    1.401   .     A
C284   C709    1.410   .     S
C284   C725    1.421   .     S
C285   C292    1.406   .     A
C285   C289    1.411   .     A
C286   C290    1.389   .     A
C286   C707    1.410   1_554 S
C286   C710    1.423   1_554 S
C287   C288    1.410   .     A
C287   C709    1.423   .     S
C287   C721    1.409   .     S
C288   C289    1.395   .     A
C288   C326    1.511   .     S
C289   H311    1.083   .     S
C290   C299    1.383   .     A
C290   H307    1.080   .     S
C291   C299    1.411   .     A
C291   C298    1.394   .     A
C291   I372    2.128   .     S
C292   C294    1.453   .     S
C292   C300    1.402   .     A
C293   C107    1.339   1_465 S
C293   H30     1.088   1_565 S
C294   O318    1.298   .     A
C294   O411    1.289   1_455 S
C295   C296    1.402   .     S
C296   O319    1.289   .     A
C296   O367    1.275   .     S
C297   O321    1.300   .     A
C297   C299    1.451   .     S
C297   O369    1.287   .     S
C298   C710    1.409   1_554 S
C298   H729    1.081   1_554 S
C300   C724    1.387   .     S
C300   H402    1.083   1_455 S
C301   H310    1.083   .     S
C301   C302    1.392   .     A
C301   C723    1.387   1_554 S
C302   H309    1.079   .     S
C302   C707    1.421   1_554 S
H303   C13     1.088   1_565 S
H304   N313    1.029   .     S
H305   N314    1.029   .     S
H306   C721    1.081   .     S
H308   C347    1.083   .     S
N313   Zn324   2.017   .     S
N313   N314    1.287   .     D
N314   Zn323   2.017   .     S
O315   Zn323   1.951   .     S
O315   C330    1.275   .     S
O316   Zn324   1.978   .     S
O317   Zn323   1.950   .     S
O317   C341    1.289   .     S
O318   Zn324   1.907   .     S
O319   Zn323   1.978   .     S
O320   Zn324   1.951   .     S
O320   C390    1.275   1_455 S
O321   Zn323   1.907   .     S
O322   Zn324   1.950   .     S
O322   C391    1.287   1_455 S
I325   C385    2.128   1_455 S
C326   H329    1.111   .     S
C326   H328    1.111   .     S
C326   H327    1.110   .     S
C330   O363    1.289   .     A
C330   C340    1.403   .     S
C331   C332    1.401   .     A
C331   C756    1.410   .     S
C331   C772    1.421   .     S
C332   C339    1.406   .     A
C332   C336    1.411   .     A
C333   C337    1.389   .     A
C333   C754    1.410   1_554 S
C333   C757    1.423   1_554 S
C334   C335    1.410   .     A
C334   C756    1.423   .     S
C334   C768    1.409   .     S
C335   C336    1.395   .     A
C335   C373    1.511   .     S
C336   H358    1.083   .     S
C337   C346    1.383   .     A
C337   H354    1.080   .     S
C338   C346    1.411   .     A
C338   C345    1.394   .     A
C338   I419    2.128   .     S
C339   C341    1.453   .     S
C339   C347    1.402   .     A
C340   C13     1.339   1_565 S
C340   H77     1.088   1_565 S
C341   O365    1.298   .     A
C342   C343    1.402   .     S
C343   O366    1.289   .     A
C343   O414    1.275   .     S
C344   O368    1.300   .     A
C344   C346    1.451   .     S
C344   O416    1.287   .     S
C345   C757    1.409   1_554 S
C345   H776    1.081   1_554 S
C347   C771    1.387   .     S
C348   H357    1.083   .     S
C348   C349    1.392   .     A
C348   C770    1.387   1_554 S
C349   H356    1.079   .     S
C349   C754    1.421   1_554 S
H350   C60     1.088   1_565 S
H351   N360    1.029   .     S
H352   N361    1.029   .     S
H353   C768    1.081   .     S
H355   C394    1.083   .     S
N360   Zn371   2.017   .     S
N360   N361    1.287   .     D
N361   Zn370   2.017   .     S
O362   Zn370   1.951   .     S
O362   C377    1.275   .     S
O363   Zn371   1.978   .     S
O364   Zn370   1.950   .     S
O364   C388    1.289   .     S
O365   Zn371   1.907   .     S
O366   Zn370   1.978   .     S
O367   Zn371   1.951   .     S
O368   Zn370   1.907   .     S
O369   Zn371   1.950   .     S
C373   H376    1.111   .     S
C373   H375    1.111   .     S
C373   H374    1.110   .     S
C377   O410    1.289   .     A
C377   C387    1.403   .     S
C378   C379    1.401   .     A
C378   C803    1.410   .     S
C378   C819    1.421   .     S
C379   C386    1.406   .     A
C379   C383    1.411   .     A
C380   C384    1.389   .     A
C380   C801    1.410   1_554 S
C380   C804    1.423   1_554 S
C381   C382    1.410   .     A
C381   C803    1.423   .     S
C381   C815    1.409   .     S
C382   C383    1.395   .     A
C382   C420    1.511   .     S
C383   H405    1.083   .     S
C384   C393    1.383   .     A
C384   H401    1.080   .     S
C385   C393    1.411   .     A
C385   C392    1.394   .     A
C385   I325    2.128   1_655 S
C386   C388    1.453   .     S
C386   C394    1.402   .     A
C387   C60     1.339   1_565 S
C387   H124    1.088   1_565 S
C388   O412    1.298   .     A
C389   C390    1.402   .     S
C389   C152    1.339   1_655 S
C390   O413    1.289   .     A
C390   O320    1.275   1_655 S
C391   O415    1.300   .     A
C391   C393    1.451   .     S
C391   O322    1.287   1_655 S
C392   C804    1.409   1_554 S
C392   H823    1.081   1_554 S
C394   C818    1.387   .     S
C395   H404    1.083   .     S
C395   C396    1.392   .     A
C395   C817    1.387   1_554 S
C396   H403    1.079   .     S
C396   C801    1.421   1_554 S
H397   C107    1.088   1_565 S
H398   N407    1.029   .     S
H399   N408    1.029   .     S
H400   C815    1.081   .     S
H402   C300    1.083   1_655 S
N407   Zn418   2.017   .     S
N407   N408    1.287   .     D
N408   Zn417   2.017   .     S
O409   Zn417   1.951   .     S
O409   C283    1.275   1_655 S
O410   Zn418   1.978   .     S
O411   Zn417   1.950   .     S
O411   C294    1.289   1_655 S
O412   Zn418   1.907   .     S
O413   Zn417   1.978   .     S
O414   Zn418   1.951   .     S
O415   Zn417   1.907   .     S
O416   Zn418   1.950   .     S
C420   H423    1.111   .     S
C420   H422    1.111   .     S
C420   H421    1.110   .     S
C424   O457    1.289   .     A
C424   C434    1.403   .     S
C424   O550    1.275   1_455 S
C425   C426    1.401   .     A
C425   C4      1.410   1_556 S
C425   C20     1.421   1_556 S
C426   C433    1.406   .     A
C426   C430    1.411   .     A
C427   C431    1.389   .     A
C428   C429    1.410   .     A
C428   C4      1.423   1_556 S
C428   C16     1.409   1_556 S
C429   C430    1.395   .     A
C429   C467    1.511   .     S
C430   H452    1.083   .     S
C431   C440    1.383   .     A
C431   H448    1.080   .     S
C432   C440    1.411   .     A
C432   C439    1.394   .     A
C432   I513    2.128   .     S
C433   C435    1.453   .     S
C433   C441    1.402   .     A
C434   C671    1.339   1_455 S
C434   H594    1.088   .     S
C435   O459    1.298   .     A
C435   O552    1.289   1_455 S
C436   C437    1.402   .     S
C436   C763    1.339   1_545 S
C436   H726    1.088   1_545 S
C437   O460    1.289   .     A
C437   O508    1.275   .     S
C438   O462    1.300   .     A
C438   C440    1.451   .     S
C438   O510    1.287   .     S
C441   C19     1.387   1_556 S
C441   H543    1.083   1_455 S
C442   H451    1.083   .     S
C442   C443    1.392   .     A
C443   H450    1.079   .     S
H444   C577    1.088   .     S
H445   N454    1.029   .     S
H446   N455    1.029   .     S
H447   C16     1.081   1_556 S
H449   C488    1.083   .     S
H453   C716    1.088   1_545 S
N454   Zn465   2.017   .     S
N454   N455    1.287   .     D
N455   Zn464   2.017   .     S
O456   Zn464   1.951   .     S
O456   C471    1.275   .     S
O457   Zn465   1.978   .     S
O458   Zn464   1.950   .     S
O458   C482    1.289   .     S
O459   Zn465   1.907   .     S
O460   Zn464   1.978   .     S
O461   Zn465   1.951   .     S
O461   C531    1.275   1_455 S
O462   Zn464   1.907   .     S
O463   Zn465   1.950   .     S
O463   C532    1.287   1_455 S
I466   C526    2.128   1_455 S
C467   H470    1.111   .     S
C467   H469    1.111   .     S
C467   H468    1.110   .     S
C471   O504    1.289   .     A
C471   C481    1.403   .     S
C472   C473    1.401   .     A
C472   C51     1.410   1_556 S
C472   C67     1.421   1_556 S
C473   C480    1.406   .     A
C473   C477    1.411   .     A
C474   C478    1.389   .     A
C475   C476    1.410   .     A
C475   C51     1.423   1_556 S
C475   C63     1.409   1_556 S
C476   C477    1.395   .     A
C476   C514    1.511   .     S
C477   H499    1.083   .     S
C478   C487    1.383   .     A
C478   H495    1.080   .     S
C479   C487    1.411   .     A
C479   C486    1.394   .     A
C479   I560    2.128   .     S
C480   C482    1.453   .     S
C480   C488    1.402   .     A
C481   C577    1.339   .     S
C481   H641    1.088   .     S
C482   O506    1.298   .     A
C483   C484    1.402   .     S
C483   C810    1.339   1_545 S
C483   H773    1.088   1_545 S
C484   O507    1.289   .     A
C484   O555    1.275   .     S
C485   O509    1.300   .     A
C485   C487    1.451   .     S
C485   O557    1.287   .     S
C488   C66     1.387   1_556 S
C489   H498    1.083   .     S
C489   C490    1.392   .     A
C490   H497    1.079   .     S
H491   C624    1.088   .     S
H492   N501    1.029   .     S
H493   N502    1.029   .     S
H494   C63     1.081   1_556 S
H496   C535    1.083   .     S
H500   C763    1.088   1_545 S
N501   Zn512   2.017   .     S
N501   N502    1.287   .     D
N502   Zn511   2.017   .     S
O503   Zn511   1.951   .     S
O503   C518    1.275   .     S
O504   Zn512   1.978   .     S
O505   Zn511   1.950   .     S
O505   C529    1.289   .     S
O506   Zn512   1.907   .     S
O507   Zn511   1.978   .     S
O508   Zn512   1.951   .     S
O509   Zn511   1.907   .     S
O510   Zn512   1.950   .     S
C514   H517    1.111   .     S
C514   H516    1.111   .     S
C514   H515    1.110   .     S
C518   O551    1.289   .     A
C518   C528    1.403   .     S
C519   C520    1.401   .     A
C519   C98     1.410   1_556 S
C519   C114    1.421   1_556 S
C520   C527    1.406   .     A
C520   C524    1.411   .     A
C521   C525    1.389   .     A
C522   C523    1.410   .     A
C522   C98     1.423   1_556 S
C522   C110    1.409   1_556 S
C523   C524    1.395   .     A
C523   C561    1.511   .     S
C524   H546    1.083   .     S
C525   C534    1.383   .     A
C525   H542    1.080   .     S
C526   C534    1.411   .     A
C526   C533    1.394   .     A
C526   I466    2.128   1_655 S
C527   C529    1.453   .     S
C527   C535    1.402   .     A
C528   C624    1.339   .     S
C528   H688    1.088   .     S
C529   O553    1.298   .     A
C530   C531    1.402   .     S
C530   C716    1.339   1_645 S
C530   H820    1.088   1_545 S
C531   O554    1.289   .     A
C531   O461    1.275   1_655 S
C532   O556    1.300   .     A
C532   C534    1.451   .     S
C532   O463    1.287   1_655 S
C535   C113    1.387   1_556 S
C536   H545    1.083   .     S
C536   C537    1.392   .     A
C537   H544    1.079   .     S
H538   C671    1.088   .     S
H539   N548    1.029   .     S
H540   N549    1.029   .     S
H541   C110    1.081   1_556 S
H543   C441    1.083   1_655 S
H547   C810    1.088   1_545 S
N548   Zn559   2.017   .     S
N548   N549    1.287   .     D
N549   Zn558   2.017   .     S
O550   Zn558   1.951   .     S
O550   C424    1.275   1_655 S
O551   Zn559   1.978   .     S
O552   Zn558   1.950   .     S
O552   C435    1.289   1_655 S
O553   Zn559   1.907   .     S
O554   Zn558   1.978   .     S
O555   Zn559   1.951   .     S
O556   Zn558   1.907   .     S
O557   Zn559   1.950   .     S
C561   H564    1.111   .     S
C561   H563    1.111   .     S
C561   H562    1.110   .     S
C565   O598    1.289   .     A
C565   C575    1.403   .     S
C565   O691    1.275   1_455 S
C566   C567    1.401   .     A
C566   C145    1.410   1_556 S
C566   C161    1.421   1_556 S
C567   C574    1.406   .     A
C567   C571    1.411   .     A
C568   C572    1.389   .     A
C569   C570    1.410   .     A
C569   C145    1.423   1_556 S
C569   C157    1.409   1_556 S
C570   C571    1.395   .     A
C570   C608    1.511   .     S
C571   H593    1.083   .     S
C572   C581    1.383   .     A
C572   H589    1.080   .     S
C573   C581    1.411   .     A
C573   C580    1.394   .     A
C573   I654    2.128   .     S
C574   C576    1.453   .     S
C574   C582    1.402   .     A
C575   C812    1.339   1_455 S
C575   H735    1.088   .     S
C576   O600    1.298   .     A
C576   O693    1.289   1_455 S
C577   C578    1.402   .     S
C578   O601    1.289   .     A
C578   O649    1.275   .     S
C579   O603    1.300   .     A
C579   C581    1.451   .     S
C579   O651    1.287   .     S
C582   C160    1.387   1_556 S
C582   H684    1.083   1_455 S
C583   H592    1.083   .     S
C583   C584    1.392   .     A
C584   H591    1.079   .     S
H585   C718    1.088   .     S
H586   N595    1.029   .     S
H587   N596    1.029   .     S
H588   C157    1.081   1_556 S
H590   C629    1.083   .     S
N595   Zn606   2.017   .     S
N595   N596    1.287   .     D
N596   Zn605   2.017   .     S
O597   Zn605   1.951   .     S
O597   C612    1.275   .     S
O598   Zn606   1.978   .     S
O599   Zn605   1.950   .     S
O599   C623    1.289   .     S
O600   Zn606   1.907   .     S
O601   Zn605   1.978   .     S
O602   Zn606   1.951   .     S
O602   C672    1.275   1_455 S
O603   Zn605   1.907   .     S
O604   Zn606   1.950   .     S
O604   C673    1.287   1_455 S
I607   C667    2.128   1_455 S
C608   H611    1.111   .     S
C608   H610    1.111   .     S
C608   H609    1.110   .     S
C612   O645    1.289   .     A
C612   C622    1.403   .     S
C613   C614    1.401   .     A
C613   C192    1.410   1_556 S
C613   C208    1.421   1_556 S
C614   C621    1.406   .     A
C614   C618    1.411   .     A
C615   C619    1.389   .     A
C616   C617    1.410   .     A
C616   C192    1.423   1_556 S
C616   C204    1.409   1_556 S
C617   C618    1.395   .     A
C617   C655    1.511   .     S
C618   H640    1.083   .     S
C619   C628    1.383   .     A
C619   H636    1.080   .     S
C620   C628    1.411   .     A
C620   C627    1.394   .     A
C620   I701    2.128   .     S
C621   C623    1.453   .     S
C621   C629    1.402   .     A
C622   C718    1.339   .     S
C622   H782    1.088   .     S
C623   O647    1.298   .     A
C624   C625    1.402   .     S
C625   O648    1.289   .     A
C625   O696    1.275   .     S
C626   O650    1.300   .     A
C626   C628    1.451   .     S
C626   O698    1.287   .     S
C629   C207    1.387   1_556 S
C630   H639    1.083   .     S
C630   C631    1.392   .     A
C631   H638    1.079   .     S
H632   C765    1.088   .     S
H633   N642    1.029   .     S
H634   N643    1.029   .     S
H635   C204    1.081   1_556 S
H637   C676    1.083   .     S
N642   Zn653   2.017   .     S
N642   N643    1.287   .     D
N643   Zn652   2.017   .     S
O644   Zn652   1.951   .     S
O644   C659    1.275   .     S
O645   Zn653   1.978   .     S
O646   Zn652   1.950   .     S
O646   C670    1.289   .     S
O647   Zn653   1.907   .     S
O648   Zn652   1.978   .     S
O649   Zn653   1.951   .     S
O650   Zn652   1.907   .     S
O651   Zn653   1.950   .     S
C655   H658    1.111   .     S
C655   H657    1.111   .     S
C655   H656    1.110   .     S
C659   O692    1.289   .     A
C659   C669    1.403   .     S
C660   C661    1.401   .     A
C660   C239    1.410   1_556 S
C660   C255    1.421   1_556 S
C661   C668    1.406   .     A
C661   C665    1.411   .     A
C662   C666    1.389   .     A
C663   C664    1.410   .     A
C663   C239    1.423   1_556 S
C663   C251    1.409   1_556 S
C664   C665    1.395   .     A
C664   C702    1.511   .     S
C665   H687    1.083   .     S
C666   C675    1.383   .     A
C666   H683    1.080   .     S
C667   C675    1.411   .     A
C667   C674    1.394   .     A
C667   I607    2.128   1_655 S
C668   C670    1.453   .     S
C668   C676    1.402   .     A
C669   C765    1.339   .     S
C669   H829    1.088   .     S
C670   O694    1.298   .     A
C671   C672    1.402   .     S
C671   C434    1.339   1_655 S
C672   O695    1.289   .     A
C672   O602    1.275   1_655 S
C673   O697    1.300   .     A
C673   C675    1.451   .     S
C673   O604    1.287   1_655 S
C676   C254    1.387   1_556 S
C677   H686    1.083   .     S
C677   C678    1.392   .     A
C678   H685    1.079   .     S
H679   C812    1.088   .     S
H680   N689    1.029   .     S
H681   N690    1.029   .     S
H682   C251    1.081   1_556 S
H684   C582    1.083   1_655 S
N689   Zn700   2.017   .     S
N689   N690    1.287   .     D
N690   Zn699   2.017   .     S
O691   Zn699   1.951   .     S
O691   C565    1.275   1_655 S
O692   Zn700   1.978   .     S
O693   Zn699   1.950   .     S
O693   C576    1.289   1_655 S
O694   Zn700   1.907   .     S
O695   Zn699   1.978   .     S
O696   Zn700   1.951   .     S
O697   Zn699   1.907   .     S
O698   Zn700   1.950   .     S
C702   H705    1.111   .     S
C702   H704    1.111   .     S
C702   H703    1.110   .     S
C706   O739    1.289   .     A
C706   C716    1.403   .     S
C706   O832    1.275   1_455 S
C707   C708    1.401   .     A
C707   C286    1.410   1_556 S
C707   C302    1.421   1_556 S
C708   C715    1.406   .     A
C708   C712    1.411   .     A
C709   C713    1.389   .     A
C710   C711    1.410   .     A
C710   C286    1.423   1_556 S
C710   C298    1.409   1_556 S
C711   C712    1.395   .     A
C711   C749    1.511   .     S
C712   H734    1.083   .     S
C713   C722    1.383   .     A
C713   H730    1.080   .     S
C714   C722    1.411   .     A
C714   C721    1.394   .     A
C714   I795    2.128   .     S
C715   C717    1.453   .     S
C715   C723    1.402   .     A
C716   C530    1.339   1_465 S
C716   H453    1.088   1_565 S
C717   O741    1.298   .     A
C717   O834    1.289   1_455 S
C718   C719    1.402   .     S
C719   O742    1.289   .     A
C719   O790    1.275   .     S
C720   O744    1.300   .     A
C720   C722    1.451   .     S
C720   O792    1.287   .     S
C723   C301    1.387   1_556 S
C723   H825    1.083   1_455 S
C724   H733    1.083   .     S
C724   C725    1.392   .     A
C725   H732    1.079   .     S
H726   C436    1.088   1_565 S
H727   N736    1.029   .     S
H728   N737    1.029   .     S
H729   C298    1.081   1_556 S
H731   C770    1.083   .     S
N736   Zn747   2.017   .     S
N736   N737    1.287   .     D
N737   Zn746   2.017   .     S
O738   Zn746   1.951   .     S
O738   C753    1.275   .     S
O739   Zn747   1.978   .     S
O740   Zn746   1.950   .     S
O740   C764    1.289   .     S
O741   Zn747   1.907   .     S
O742   Zn746   1.978   .     S
O743   Zn747   1.951   .     S
O743   C813    1.275   1_455 S
O744   Zn746   1.907   .     S
O745   Zn747   1.950   .     S
O745   C814    1.287   1_455 S
I748   C808    2.128   1_455 S
C749   H752    1.111   .     S
C749   H751    1.111   .     S
C749   H750    1.110   .     S
C753   O786    1.289   .     A
C753   C763    1.403   .     S
C754   C755    1.401   .     A
C754   C333    1.410   1_556 S
C754   C349    1.421   1_556 S
C755   C762    1.406   .     A
C755   C759    1.411   .     A
C756   C760    1.389   .     A
C757   C758    1.410   .     A
C757   C333    1.423   1_556 S
C757   C345    1.409   1_556 S
C758   C759    1.395   .     A
C758   C796    1.511   .     S
C759   H781    1.083   .     S
C760   C769    1.383   .     A
C760   H777    1.080   .     S
C761   C769    1.411   .     A
C761   C768    1.394   .     A
C761   I842    2.128   .     S
C762   C764    1.453   .     S
C762   C770    1.402   .     A
C763   C436    1.339   1_565 S
C763   H500    1.088   1_565 S
C764   O788    1.298   .     A
C765   C766    1.402   .     S
C766   O789    1.289   .     A
C766   O837    1.275   .     S
C767   O791    1.300   .     A
C767   C769    1.451   .     S
C767   O839    1.287   .     S
C770   C348    1.387   1_556 S
C771   H780    1.083   .     S
C771   C772    1.392   .     A
C772   H779    1.079   .     S
H773   C483    1.088   1_565 S
H774   N783    1.029   .     S
H775   N784    1.029   .     S
H776   C345    1.081   1_556 S
H778   C817    1.083   .     S
N783   Zn794   2.017   .     S
N783   N784    1.287   .     D
N784   Zn793   2.017   .     S
O785   Zn793   1.951   .     S
O785   C800    1.275   .     S
O786   Zn794   1.978   .     S
O787   Zn793   1.950   .     S
O787   C811    1.289   .     S
O788   Zn794   1.907   .     S
O789   Zn793   1.978   .     S
O790   Zn794   1.951   .     S
O791   Zn793   1.907   .     S
O792   Zn794   1.950   .     S
C796   H799    1.111   .     S
C796   H798    1.111   .     S
C796   H797    1.110   .     S
C800   O833    1.289   .     A
C800   C810    1.403   .     S
C801   C802    1.401   .     A
C801   C380    1.410   1_556 S
C801   C396    1.421   1_556 S
C802   C809    1.406   .     A
C802   C806    1.411   .     A
C803   C807    1.389   .     A
C804   C805    1.410   .     A
C804   C380    1.423   1_556 S
C804   C392    1.409   1_556 S
C805   C806    1.395   .     A
C805   C843    1.511   .     S
C806   H828    1.083   .     S
C807   C816    1.383   .     A
C807   H824    1.080   .     S
C808   C816    1.411   .     A
C808   C815    1.394   .     A
C808   I748    2.128   1_655 S
C809   C811    1.453   .     S
C809   C817    1.402   .     A
C810   C483    1.339   1_565 S
C810   H547    1.088   1_565 S
C811   O835    1.298   .     A
C812   C813    1.402   .     S
C812   C575    1.339   1_655 S
C813   O836    1.289   .     A
C813   O743    1.275   1_655 S
C814   O838    1.300   .     A
C814   C816    1.451   .     S
C814   O745    1.287   1_655 S
C817   C395    1.387   1_556 S
C818   H827    1.083   .     S
C818   C819    1.392   .     A
C819   H826    1.079   .     S
H820   C530    1.088   1_565 S
H821   N830    1.029   .     S
H822   N831    1.029   .     S
H823   C392    1.081   1_556 S
H825   C723    1.083   1_655 S
N830   Zn841   2.017   .     S
N830   N831    1.287   .     D
N831   Zn840   2.017   .     S
O832   Zn840   1.951   .     S
O832   C706    1.275   1_655 S
O833   Zn841   1.978   .     S
O834   Zn840   1.950   .     S
O834   C717    1.289   1_655 S
O835   Zn841   1.907   .     S
O836   Zn840   1.978   .     S
O837   Zn841   1.951   .     S
O838   Zn840   1.907   .     S
O839   Zn841   1.950   .     S
C843   H846    1.111   .     S
C843   H845    1.111   .     S
C843   H844    1.110   .     S
