data_str_m2_o1_o16_pcu_sym.86
_audit_creation_date              2020-01-03
_audit_creation_method            'Materials Studio'
_symmetry_space_group_name_H-M    'P1'
_symmetry_Int_Tables_number       1
_symmetry_cell_setting            triclinic
loop_
_symmetry_equiv_pos_as_xyz
  x,y,z
_cell_length_a                    28.5380
_cell_length_b                    32.4290
_cell_length_c                    26.8946
_cell_angle_alpha                 90.0812
_cell_angle_beta                  72.5716
_cell_angle_gamma                 90.2939
loop_
_atom_site_label
_atom_site_type_symbol
_atom_site_fract_x
_atom_site_fract_y
_atom_site_fract_z
_atom_site_U_iso_or_equiv
_atom_site_adp_type
_atom_site_occupancy
C1     C     0.16675   0.24590   0.25013   0.00000  Uiso   1.00
C2     C     0.12439   0.16358   0.40745   0.00000  Uiso   1.00
C3     C     0.20892   0.31250   0.22675   0.00000  Uiso   1.00
C4     C     0.14044   0.16490   0.35009   0.00000  Uiso   1.00
C5     C     0.20801   0.02178   0.22767   0.00000  Uiso   1.00
C6     C     0.16485   0.04262   0.25434   0.00000  Uiso   1.00
C7     C     0.12208   0.02020   0.28200   0.00000  Uiso   1.00
C8     C     0.12335   0.31063   0.27908   0.00000  Uiso   1.00
C9     C     0.16638   0.29036   0.25167   0.00000  Uiso   1.00
C10    C     0.29904   0.19076   0.28419   0.00000  Uiso   1.00
C11    C     0.01532   0.19070   0.28423   0.00000  Uiso   1.00
C12    C     0.14416   0.16079   0.48990   0.00000  Uiso   1.00
C13    C     0.03426   0.14249   0.21590   0.00000  Uiso   1.00
C14    C     0.31797   0.14251   0.21590   0.00000  Uiso   1.00
C15    C     0.16588   0.08737   0.25198   0.00000  Uiso   1.00
C16    C     0.19287   0.16600   0.14999   0.00000  Uiso   1.00
C17    C     0.26184   0.13093   0.01484   0.00000  Uiso   1.00
C18    C     0.20754   0.16036   0.09349   0.00000  Uiso   1.00
C19    C     0.07749   0.17852   0.43402   0.00000  Uiso   1.00
C20    C     0.06315   0.18316   0.48772   0.00000  Uiso   1.00
C21    C     0.09618   0.17531   0.01543   0.00000  Uiso   1.00
C22    C     0.07606   0.04012   0.31747   0.00000  Uiso   1.00
C23    C     0.15641   0.15116   0.43608   0.00000  Uiso   1.00
C24    C     0.08549   0.05754   0.36671   0.00000  Uiso   1.00
C25    C     0.04010   0.07907   0.40158   0.00000  Uiso   1.00
C26    C     0.18027   0.15514   0.01604   0.00000  Uiso   1.00
C27    C     0.22577   0.13634   0.48963   0.00000  Uiso   1.00
C28    C     0.23433   0.12230   0.43878   0.00000  Uiso   1.00
C29    C     0.19993   0.12900   0.41264   0.00000  Uiso   1.00
C30    C     0.17279   0.16807   0.06756   0.00000  Uiso   1.00
C31    C     0.25267   0.14267   0.06669   0.00000  Uiso   1.00
Cu32   Cu    0.11978   0.16666   0.25000   0.00000  Uiso   1.00
Cu33   Cu    0.21355   0.16667   0.25000   0.00000  Uiso   1.00
H34    H     0.27996   0.13645   0.08631   0.00000  Uiso   1.00
H35    H     0.13988   0.18400   0.08886   0.00000  Uiso   1.00
H36    H     0.05199   0.18733   0.41315   0.00000  Uiso   1.00
H37    H     0.08253   0.18002   0.05693   0.00000  Uiso   1.00
H38    H     0.02663   0.19418   0.00787   0.00000  Uiso   1.00
H39    H     0.20759   0.11557   0.37428   0.00000  Uiso   1.00
H40    H     0.24243   0.29684   0.20561   0.00000  Uiso   1.00
H41    H     0.03040   0.10581   0.38089   0.00000  Uiso   1.00
H42    H     0.00854   0.05727   0.41316   0.00000  Uiso   1.00
H43    H     0.04777   0.09036   0.43737   0.00000  Uiso   1.00
H44    H     0.09559   0.03195   0.38895   0.00000  Uiso   1.00
H45    H     0.24097   0.03853   0.20677   0.00000  Uiso   1.00
H46    H     0.11644   0.07988   0.35625   0.00000  Uiso   1.00
H47    H     0.06179   0.06407   0.29657   0.00000  Uiso   1.00
H48    H     0.04590   0.01697   0.32996   0.00000  Uiso   1.00
H49    H     0.09120   0.29274   0.29972   0.00000  Uiso   1.00
H50    H     0.27277   0.21010   0.31153   0.00000  Uiso   1.00
H51    H     0.02645   0.20997   0.31161   0.00000  Uiso   1.00
H52    H     0.06052   0.12308   0.18864   0.00000  Uiso   1.00
H53    H     0.30682   0.12316   0.18861   0.00000  Uiso   1.00
H54    H     0.26786   0.10612   0.41898   0.00000  Uiso   1.00
H55    H     0.29663   0.11664   0.49486   0.00000  Uiso   1.00
N56    N     0.04931   0.16666   0.24998   0.00000  Uiso   1.00
N57    N     0.28402   0.16669   0.24999   0.00000  Uiso   1.00
O58    O     0.12708   0.22678   0.25000   0.00000  Uiso   1.00
O59    O     0.20627   0.22679   0.25000   0.00000  Uiso   1.00
O60    O     0.10775   0.16665   0.32549   0.00000  Uiso   1.00
O61    O     0.18694   0.16666   0.32549   0.00000  Uiso   1.00
O62    O     0.12706   0.10654   0.24999   0.00000  Uiso   1.00
O63    O     0.20625   0.10655   0.24999   0.00000  Uiso   1.00
O64    O     0.14640   0.16667   0.17451   0.00000  Uiso   1.00
O65    O     0.22559   0.16668   0.17451   0.00000  Uiso   1.00
C66    C     0.50008   0.24590   0.25013   0.00000  Uiso   1.00
C67    C     0.45772   0.16358   0.40745   0.00000  Uiso   1.00
C68    C     0.54225   0.31250   0.22675   0.00000  Uiso   1.00
C69    C     0.47377   0.16490   0.35009   0.00000  Uiso   1.00
C70    C     0.54135   0.02178   0.22767   0.00000  Uiso   1.00
C71    C     0.49819   0.04262   0.25434   0.00000  Uiso   1.00
C72    C     0.45542   0.02020   0.28200   0.00000  Uiso   1.00
C73    C     0.45668   0.31063   0.27908   0.00000  Uiso   1.00
C74    C     0.49971   0.29036   0.25167   0.00000  Uiso   1.00
C75    C     0.63238   0.19076   0.28419   0.00000  Uiso   1.00
C76    C     0.34865   0.19070   0.28423   0.00000  Uiso   1.00
C77    C     0.47749   0.16079   0.48990   0.00000  Uiso   1.00
C78    C     0.36760   0.14249   0.21590   0.00000  Uiso   1.00
C79    C     0.65131   0.14251   0.21590   0.00000  Uiso   1.00
C80    C     0.49922   0.08737   0.25198   0.00000  Uiso   1.00
C81    C     0.52620   0.16600   0.14999   0.00000  Uiso   1.00
C82    C     0.59518   0.13093   0.01484   0.00000  Uiso   1.00
C83    C     0.54087   0.16036   0.09349   0.00000  Uiso   1.00
C84    C     0.41083   0.17852   0.43402   0.00000  Uiso   1.00
C85    C     0.39649   0.18316   0.48772   0.00000  Uiso   1.00
C86    C     0.42951   0.17531   0.01543   0.00000  Uiso   1.00
C87    C     0.40940   0.04012   0.31747   0.00000  Uiso   1.00
C88    C     0.48974   0.15116   0.43608   0.00000  Uiso   1.00
C89    C     0.41882   0.05754   0.36671   0.00000  Uiso   1.00
C90    C     0.37343   0.07907   0.40158   0.00000  Uiso   1.00
C91    C     0.51360   0.15514   0.01604   0.00000  Uiso   1.00
C92    C     0.55910   0.13634   0.48963   0.00000  Uiso   1.00
C93    C     0.56767   0.12230   0.43878   0.00000  Uiso   1.00
C94    C     0.53326   0.12900   0.41264   0.00000  Uiso   1.00
C95    C     0.50613   0.16807   0.06756   0.00000  Uiso   1.00
C96    C     0.58601   0.14267   0.06669   0.00000  Uiso   1.00
Cu97   Cu    0.45311   0.16666   0.25000   0.00000  Uiso   1.00
Cu98   Cu    0.54689   0.16667   0.25000   0.00000  Uiso   1.00
H99    H     0.61329   0.13645   0.08631   0.00000  Uiso   1.00
H100   H     0.47321   0.18400   0.08886   0.00000  Uiso   1.00
H101   H     0.38533   0.18733   0.41315   0.00000  Uiso   1.00
H102   H     0.41586   0.18002   0.05693   0.00000  Uiso   1.00
H103   H     0.35996   0.19418   0.00787   0.00000  Uiso   1.00
H104   H     0.54093   0.11557   0.37428   0.00000  Uiso   1.00
H105   H     0.57577   0.29684   0.20561   0.00000  Uiso   1.00
H106   H     0.36373   0.10581   0.38089   0.00000  Uiso   1.00
H107   H     0.34187   0.05727   0.41316   0.00000  Uiso   1.00
H108   H     0.38110   0.09036   0.43737   0.00000  Uiso   1.00
H109   H     0.42893   0.03195   0.38895   0.00000  Uiso   1.00
H110   H     0.57431   0.03853   0.20677   0.00000  Uiso   1.00
H111   H     0.44977   0.07988   0.35625   0.00000  Uiso   1.00
H112   H     0.39512   0.06407   0.29657   0.00000  Uiso   1.00
H113   H     0.37924   0.01697   0.32996   0.00000  Uiso   1.00
H114   H     0.42454   0.29274   0.29972   0.00000  Uiso   1.00
H115   H     0.60610   0.21010   0.31153   0.00000  Uiso   1.00
H116   H     0.35979   0.20997   0.31161   0.00000  Uiso   1.00
H117   H     0.39386   0.12308   0.18864   0.00000  Uiso   1.00
H118   H     0.64015   0.12316   0.18861   0.00000  Uiso   1.00
H119   H     0.60119   0.10612   0.41898   0.00000  Uiso   1.00
H120   H     0.62996   0.11664   0.49486   0.00000  Uiso   1.00
N121   N     0.38265   0.16666   0.24998   0.00000  Uiso   1.00
N122   N     0.61735   0.16669   0.24999   0.00000  Uiso   1.00
O123   O     0.46042   0.22678   0.25000   0.00000  Uiso   1.00
O124   O     0.53961   0.22679   0.25000   0.00000  Uiso   1.00
O125   O     0.44108   0.16665   0.32549   0.00000  Uiso   1.00
O126   O     0.52027   0.16666   0.32549   0.00000  Uiso   1.00
O127   O     0.46039   0.10654   0.24999   0.00000  Uiso   1.00
O128   O     0.53958   0.10655   0.24999   0.00000  Uiso   1.00
O129   O     0.47973   0.16667   0.17451   0.00000  Uiso   1.00
O130   O     0.55892   0.16668   0.17451   0.00000  Uiso   1.00
C131   C     0.83341   0.24590   0.25013   0.00000  Uiso   1.00
C132   C     0.79105   0.16358   0.40745   0.00000  Uiso   1.00
C133   C     0.87558   0.31250   0.22675   0.00000  Uiso   1.00
C134   C     0.80710   0.16490   0.35009   0.00000  Uiso   1.00
C135   C     0.87468   0.02178   0.22767   0.00000  Uiso   1.00
C136   C     0.83152   0.04262   0.25434   0.00000  Uiso   1.00
C137   C     0.78875   0.02020   0.28200   0.00000  Uiso   1.00
C138   C     0.79001   0.31063   0.27908   0.00000  Uiso   1.00
C139   C     0.83304   0.29036   0.25167   0.00000  Uiso   1.00
C140   C     0.96571   0.19076   0.28419   0.00000  Uiso   1.00
C141   C     0.68199   0.19070   0.28423   0.00000  Uiso   1.00
C142   C     0.81083   0.16079   0.48990   0.00000  Uiso   1.00
C143   C     0.70093   0.14249   0.21590   0.00000  Uiso   1.00
C144   C     0.98464   0.14251   0.21590   0.00000  Uiso   1.00
C145   C     0.83255   0.08737   0.25198   0.00000  Uiso   1.00
C146   C     0.85953   0.16600   0.14999   0.00000  Uiso   1.00
C147   C     0.92851   0.13093   0.01484   0.00000  Uiso   1.00
C148   C     0.87421   0.16036   0.09349   0.00000  Uiso   1.00
C149   C     0.74416   0.17852   0.43402   0.00000  Uiso   1.00
C150   C     0.72982   0.18316   0.48772   0.00000  Uiso   1.00
C151   C     0.76284   0.17531   0.01543   0.00000  Uiso   1.00
C152   C     0.74273   0.04012   0.31747   0.00000  Uiso   1.00
C153   C     0.82307   0.15116   0.43608   0.00000  Uiso   1.00
C154   C     0.75216   0.05754   0.36671   0.00000  Uiso   1.00
C155   C     0.70677   0.07907   0.40158   0.00000  Uiso   1.00
C156   C     0.84693   0.15514   0.01604   0.00000  Uiso   1.00
C157   C     0.89244   0.13634   0.48963   0.00000  Uiso   1.00
C158   C     0.90100   0.12230   0.43878   0.00000  Uiso   1.00
C159   C     0.86659   0.12900   0.41264   0.00000  Uiso   1.00
C160   C     0.83946   0.16807   0.06756   0.00000  Uiso   1.00
C161   C     0.91934   0.14267   0.06669   0.00000  Uiso   1.00
Cu162  Cu    0.78645   0.16666   0.25000   0.00000  Uiso   1.00
Cu163  Cu    0.88022   0.16667   0.25000   0.00000  Uiso   1.00
H164   H     0.94662   0.13645   0.08631   0.00000  Uiso   1.00
H165   H     0.80655   0.18400   0.08886   0.00000  Uiso   1.00
H166   H     0.71866   0.18733   0.41315   0.00000  Uiso   1.00
H167   H     0.74919   0.18002   0.05693   0.00000  Uiso   1.00
H168   H     0.69329   0.19418   0.00787   0.00000  Uiso   1.00
H169   H     0.87426   0.11557   0.37428   0.00000  Uiso   1.00
H170   H     0.90910   0.29684   0.20561   0.00000  Uiso   1.00
H171   H     0.69706   0.10581   0.38089   0.00000  Uiso   1.00
H172   H     0.67521   0.05727   0.41316   0.00000  Uiso   1.00
H173   H     0.71443   0.09036   0.43737   0.00000  Uiso   1.00
H174   H     0.76226   0.03195   0.38895   0.00000  Uiso   1.00
H175   H     0.90764   0.03853   0.20677   0.00000  Uiso   1.00
H176   H     0.78310   0.07988   0.35625   0.00000  Uiso   1.00
H177   H     0.72845   0.06407   0.29657   0.00000  Uiso   1.00
H178   H     0.71257   0.01697   0.32996   0.00000  Uiso   1.00
H179   H     0.75787   0.29274   0.29972   0.00000  Uiso   1.00
H180   H     0.93943   0.21010   0.31153   0.00000  Uiso   1.00
H181   H     0.69312   0.20997   0.31161   0.00000  Uiso   1.00
H182   H     0.72719   0.12308   0.18864   0.00000  Uiso   1.00
H183   H     0.97349   0.12316   0.18861   0.00000  Uiso   1.00
H184   H     0.93452   0.10612   0.41898   0.00000  Uiso   1.00
H185   H     0.96330   0.11664   0.49486   0.00000  Uiso   1.00
N186   N     0.71598   0.16666   0.24998   0.00000  Uiso   1.00
N187   N     0.95069   0.16669   0.24999   0.00000  Uiso   1.00
O188   O     0.79375   0.22678   0.25000   0.00000  Uiso   1.00
O189   O     0.87294   0.22679   0.25000   0.00000  Uiso   1.00
O190   O     0.77441   0.16665   0.32549   0.00000  Uiso   1.00
O191   O     0.85360   0.16666   0.32549   0.00000  Uiso   1.00
O192   O     0.79373   0.10654   0.24999   0.00000  Uiso   1.00
O193   O     0.87292   0.10655   0.24999   0.00000  Uiso   1.00
O194   O     0.81306   0.16667   0.17451   0.00000  Uiso   1.00
O195   O     0.89225   0.16668   0.17451   0.00000  Uiso   1.00
C196   C     0.16675   0.57923   0.25013   0.00000  Uiso   1.00
C197   C     0.12439   0.49691   0.40745   0.00000  Uiso   1.00
C198   C     0.20892   0.64583   0.22675   0.00000  Uiso   1.00
C199   C     0.14044   0.49823   0.35009   0.00000  Uiso   1.00
C200   C     0.20801   0.35511   0.22767   0.00000  Uiso   1.00
C201   C     0.16485   0.37595   0.25434   0.00000  Uiso   1.00
C202   C     0.12208   0.35354   0.28200   0.00000  Uiso   1.00
C203   C     0.12335   0.64396   0.27908   0.00000  Uiso   1.00
C204   C     0.16638   0.62369   0.25167   0.00000  Uiso   1.00
C205   C     0.29904   0.52409   0.28419   0.00000  Uiso   1.00
C206   C     0.01532   0.52403   0.28423   0.00000  Uiso   1.00
C207   C     0.14416   0.49412   0.48990   0.00000  Uiso   1.00
C208   C     0.03426   0.47582   0.21590   0.00000  Uiso   1.00
C209   C     0.31797   0.47585   0.21590   0.00000  Uiso   1.00
C210   C     0.16588   0.42070   0.25198   0.00000  Uiso   1.00
C211   C     0.19287   0.49933   0.14999   0.00000  Uiso   1.00
C212   C     0.26184   0.46426   0.01484   0.00000  Uiso   1.00
C213   C     0.20754   0.49369   0.09349   0.00000  Uiso   1.00
C214   C     0.07749   0.51185   0.43402   0.00000  Uiso   1.00
C215   C     0.06315   0.51649   0.48772   0.00000  Uiso   1.00
C216   C     0.09618   0.50864   0.01543   0.00000  Uiso   1.00
C217   C     0.07606   0.37345   0.31747   0.00000  Uiso   1.00
C218   C     0.15641   0.48450   0.43608   0.00000  Uiso   1.00
C219   C     0.08549   0.39087   0.36671   0.00000  Uiso   1.00
C220   C     0.04010   0.41240   0.40158   0.00000  Uiso   1.00
C221   C     0.18027   0.48847   0.01604   0.00000  Uiso   1.00
C222   C     0.22577   0.46967   0.48963   0.00000  Uiso   1.00
C223   C     0.23433   0.45564   0.43878   0.00000  Uiso   1.00
C224   C     0.19993   0.46233   0.41264   0.00000  Uiso   1.00
C225   C     0.17279   0.50140   0.06756   0.00000  Uiso   1.00
C226   C     0.25267   0.47601   0.06669   0.00000  Uiso   1.00
Cu227  Cu    0.11978   0.49999   0.25000   0.00000  Uiso   1.00
Cu228  Cu    0.21355   0.50001   0.25000   0.00000  Uiso   1.00
H229   H     0.27996   0.46979   0.08631   0.00000  Uiso   1.00
H230   H     0.13988   0.51733   0.08886   0.00000  Uiso   1.00
H231   H     0.05199   0.52066   0.41315   0.00000  Uiso   1.00
H232   H     0.08253   0.51335   0.05693   0.00000  Uiso   1.00
H233   H     0.02663   0.52751   0.00787   0.00000  Uiso   1.00
H234   H     0.20759   0.44891   0.37428   0.00000  Uiso   1.00
H235   H     0.24243   0.63018   0.20561   0.00000  Uiso   1.00
H236   H     0.03040   0.43914   0.38089   0.00000  Uiso   1.00
H237   H     0.00854   0.39060   0.41316   0.00000  Uiso   1.00
H238   H     0.04777   0.42369   0.43737   0.00000  Uiso   1.00
H239   H     0.09559   0.36529   0.38895   0.00000  Uiso   1.00
H240   H     0.24097   0.37187   0.20677   0.00000  Uiso   1.00
H241   H     0.11644   0.41322   0.35625   0.00000  Uiso   1.00
H242   H     0.06179   0.39740   0.29657   0.00000  Uiso   1.00
H243   H     0.04590   0.35031   0.32996   0.00000  Uiso   1.00
H244   H     0.09120   0.62608   0.29972   0.00000  Uiso   1.00
H245   H     0.27277   0.54343   0.31153   0.00000  Uiso   1.00
H246   H     0.02645   0.54330   0.31161   0.00000  Uiso   1.00
H247   H     0.06052   0.45641   0.18864   0.00000  Uiso   1.00
H248   H     0.30682   0.45649   0.18861   0.00000  Uiso   1.00
H249   H     0.26786   0.43946   0.41898   0.00000  Uiso   1.00
H250   H     0.29663   0.44998   0.49486   0.00000  Uiso   1.00
N251   N     0.04931   0.49999   0.24998   0.00000  Uiso   1.00
N252   N     0.28402   0.50002   0.24999   0.00000  Uiso   1.00
O253   O     0.12708   0.56011   0.25000   0.00000  Uiso   1.00
O254   O     0.20627   0.56012   0.25000   0.00000  Uiso   1.00
O255   O     0.10775   0.49998   0.32549   0.00000  Uiso   1.00
O256   O     0.18694   0.49999   0.32549   0.00000  Uiso   1.00
O257   O     0.12706   0.43988   0.24999   0.00000  Uiso   1.00
O258   O     0.20625   0.43989   0.24999   0.00000  Uiso   1.00
O259   O     0.14640   0.50001   0.17451   0.00000  Uiso   1.00
O260   O     0.22559   0.50002   0.17451   0.00000  Uiso   1.00
C261   C     0.50008   0.57923   0.25013   0.00000  Uiso   1.00
C262   C     0.45772   0.49691   0.40745   0.00000  Uiso   1.00
C263   C     0.54225   0.64583   0.22675   0.00000  Uiso   1.00
C264   C     0.47377   0.49823   0.35009   0.00000  Uiso   1.00
C265   C     0.54135   0.35511   0.22767   0.00000  Uiso   1.00
C266   C     0.49819   0.37595   0.25434   0.00000  Uiso   1.00
C267   C     0.45542   0.35354   0.28200   0.00000  Uiso   1.00
C268   C     0.45668   0.64396   0.27908   0.00000  Uiso   1.00
C269   C     0.49971   0.62369   0.25167   0.00000  Uiso   1.00
C270   C     0.63238   0.52409   0.28419   0.00000  Uiso   1.00
C271   C     0.34865   0.52403   0.28423   0.00000  Uiso   1.00
C272   C     0.47749   0.49412   0.48990   0.00000  Uiso   1.00
C273   C     0.36760   0.47582   0.21590   0.00000  Uiso   1.00
C274   C     0.65131   0.47585   0.21590   0.00000  Uiso   1.00
C275   C     0.49922   0.42070   0.25198   0.00000  Uiso   1.00
C276   C     0.52620   0.49933   0.14999   0.00000  Uiso   1.00
C277   C     0.59518   0.46426   0.01484   0.00000  Uiso   1.00
C278   C     0.54087   0.49369   0.09349   0.00000  Uiso   1.00
C279   C     0.41083   0.51185   0.43402   0.00000  Uiso   1.00
C280   C     0.39649   0.51649   0.48772   0.00000  Uiso   1.00
C281   C     0.42951   0.50864   0.01543   0.00000  Uiso   1.00
C282   C     0.40940   0.37345   0.31747   0.00000  Uiso   1.00
C283   C     0.48974   0.48450   0.43608   0.00000  Uiso   1.00
C284   C     0.41882   0.39087   0.36671   0.00000  Uiso   1.00
C285   C     0.37343   0.41240   0.40158   0.00000  Uiso   1.00
C286   C     0.51360   0.48847   0.01604   0.00000  Uiso   1.00
C287   C     0.55910   0.46967   0.48963   0.00000  Uiso   1.00
C288   C     0.56767   0.45564   0.43878   0.00000  Uiso   1.00
C289   C     0.53326   0.46233   0.41264   0.00000  Uiso   1.00
C290   C     0.50613   0.50140   0.06756   0.00000  Uiso   1.00
C291   C     0.58601   0.47601   0.06669   0.00000  Uiso   1.00
Cu292  Cu    0.45311   0.49999   0.25000   0.00000  Uiso   1.00
Cu293  Cu    0.54689   0.50001   0.25000   0.00000  Uiso   1.00
H294   H     0.61329   0.46979   0.08631   0.00000  Uiso   1.00
H295   H     0.47321   0.51733   0.08886   0.00000  Uiso   1.00
H296   H     0.38533   0.52066   0.41315   0.00000  Uiso   1.00
H297   H     0.41586   0.51335   0.05693   0.00000  Uiso   1.00
H298   H     0.35996   0.52751   0.00787   0.00000  Uiso   1.00
H299   H     0.54093   0.44891   0.37428   0.00000  Uiso   1.00
H300   H     0.57577   0.63018   0.20561   0.00000  Uiso   1.00
H301   H     0.36373   0.43914   0.38089   0.00000  Uiso   1.00
H302   H     0.34187   0.39060   0.41316   0.00000  Uiso   1.00
H303   H     0.38110   0.42369   0.43737   0.00000  Uiso   1.00
H304   H     0.42893   0.36529   0.38895   0.00000  Uiso   1.00
H305   H     0.57431   0.37187   0.20677   0.00000  Uiso   1.00
H306   H     0.44977   0.41322   0.35625   0.00000  Uiso   1.00
H307   H     0.39512   0.39740   0.29657   0.00000  Uiso   1.00
H308   H     0.37924   0.35031   0.32996   0.00000  Uiso   1.00
H309   H     0.42454   0.62608   0.29972   0.00000  Uiso   1.00
H310   H     0.60610   0.54343   0.31153   0.00000  Uiso   1.00
H311   H     0.35979   0.54330   0.31161   0.00000  Uiso   1.00
H312   H     0.39386   0.45641   0.18864   0.00000  Uiso   1.00
H313   H     0.64015   0.45649   0.18861   0.00000  Uiso   1.00
H314   H     0.60119   0.43946   0.41898   0.00000  Uiso   1.00
H315   H     0.62996   0.44998   0.49486   0.00000  Uiso   1.00
N316   N     0.38265   0.49999   0.24998   0.00000  Uiso   1.00
N317   N     0.61735   0.50002   0.24999   0.00000  Uiso   1.00
O318   O     0.46042   0.56011   0.25000   0.00000  Uiso   1.00
O319   O     0.53961   0.56012   0.25000   0.00000  Uiso   1.00
O320   O     0.44108   0.49998   0.32549   0.00000  Uiso   1.00
O321   O     0.52027   0.49999   0.32549   0.00000  Uiso   1.00
O322   O     0.46039   0.43988   0.24999   0.00000  Uiso   1.00
O323   O     0.53958   0.43989   0.24999   0.00000  Uiso   1.00
O324   O     0.47973   0.50001   0.17451   0.00000  Uiso   1.00
O325   O     0.55892   0.50002   0.17451   0.00000  Uiso   1.00
C326   C     0.83341   0.57923   0.25013   0.00000  Uiso   1.00
C327   C     0.79105   0.49691   0.40745   0.00000  Uiso   1.00
C328   C     0.87558   0.64583   0.22675   0.00000  Uiso   1.00
C329   C     0.80710   0.49823   0.35009   0.00000  Uiso   1.00
C330   C     0.87468   0.35511   0.22767   0.00000  Uiso   1.00
C331   C     0.83152   0.37595   0.25434   0.00000  Uiso   1.00
C332   C     0.78875   0.35354   0.28200   0.00000  Uiso   1.00
C333   C     0.79001   0.64396   0.27908   0.00000  Uiso   1.00
C334   C     0.83304   0.62369   0.25167   0.00000  Uiso   1.00
C335   C     0.96571   0.52409   0.28419   0.00000  Uiso   1.00
C336   C     0.68199   0.52403   0.28423   0.00000  Uiso   1.00
C337   C     0.81083   0.49412   0.48990   0.00000  Uiso   1.00
C338   C     0.70093   0.47582   0.21590   0.00000  Uiso   1.00
C339   C     0.98464   0.47585   0.21590   0.00000  Uiso   1.00
C340   C     0.83255   0.42070   0.25198   0.00000  Uiso   1.00
C341   C     0.85953   0.49933   0.14999   0.00000  Uiso   1.00
C342   C     0.92851   0.46426   0.01484   0.00000  Uiso   1.00
C343   C     0.87421   0.49369   0.09349   0.00000  Uiso   1.00
C344   C     0.74416   0.51185   0.43402   0.00000  Uiso   1.00
C345   C     0.72982   0.51649   0.48772   0.00000  Uiso   1.00
C346   C     0.76284   0.50864   0.01543   0.00000  Uiso   1.00
C347   C     0.74273   0.37345   0.31747   0.00000  Uiso   1.00
C348   C     0.82307   0.48450   0.43608   0.00000  Uiso   1.00
C349   C     0.75216   0.39087   0.36671   0.00000  Uiso   1.00
C350   C     0.70677   0.41240   0.40158   0.00000  Uiso   1.00
C351   C     0.84693   0.48847   0.01604   0.00000  Uiso   1.00
C352   C     0.89244   0.46967   0.48963   0.00000  Uiso   1.00
C353   C     0.90100   0.45564   0.43878   0.00000  Uiso   1.00
C354   C     0.86659   0.46233   0.41264   0.00000  Uiso   1.00
C355   C     0.83946   0.50140   0.06756   0.00000  Uiso   1.00
C356   C     0.91934   0.47601   0.06669   0.00000  Uiso   1.00
Cu357  Cu    0.78645   0.49999   0.25000   0.00000  Uiso   1.00
Cu358  Cu    0.88022   0.50001   0.25000   0.00000  Uiso   1.00
H359   H     0.94662   0.46979   0.08631   0.00000  Uiso   1.00
H360   H     0.80655   0.51733   0.08886   0.00000  Uiso   1.00
H361   H     0.71866   0.52066   0.41315   0.00000  Uiso   1.00
H362   H     0.74919   0.51335   0.05693   0.00000  Uiso   1.00
H363   H     0.69329   0.52751   0.00787   0.00000  Uiso   1.00
H364   H     0.87426   0.44891   0.37428   0.00000  Uiso   1.00
H365   H     0.90910   0.63018   0.20561   0.00000  Uiso   1.00
H366   H     0.69706   0.43914   0.38089   0.00000  Uiso   1.00
H367   H     0.67521   0.39060   0.41316   0.00000  Uiso   1.00
H368   H     0.71443   0.42369   0.43737   0.00000  Uiso   1.00
H369   H     0.76226   0.36529   0.38895   0.00000  Uiso   1.00
H370   H     0.90764   0.37187   0.20677   0.00000  Uiso   1.00
H371   H     0.78310   0.41322   0.35625   0.00000  Uiso   1.00
H372   H     0.72845   0.39740   0.29657   0.00000  Uiso   1.00
H373   H     0.71257   0.35031   0.32996   0.00000  Uiso   1.00
H374   H     0.75787   0.62608   0.29972   0.00000  Uiso   1.00
H375   H     0.93943   0.54343   0.31153   0.00000  Uiso   1.00
H376   H     0.69312   0.54330   0.31161   0.00000  Uiso   1.00
H377   H     0.72719   0.45641   0.18864   0.00000  Uiso   1.00
H378   H     0.97349   0.45649   0.18861   0.00000  Uiso   1.00
H379   H     0.93452   0.43946   0.41898   0.00000  Uiso   1.00
H380   H     0.96330   0.44998   0.49486   0.00000  Uiso   1.00
N381   N     0.71598   0.49999   0.24998   0.00000  Uiso   1.00
N382   N     0.95069   0.50002   0.24999   0.00000  Uiso   1.00
O383   O     0.79375   0.56011   0.25000   0.00000  Uiso   1.00
O384   O     0.87294   0.56012   0.25000   0.00000  Uiso   1.00
O385   O     0.77441   0.49998   0.32549   0.00000  Uiso   1.00
O386   O     0.85360   0.49999   0.32549   0.00000  Uiso   1.00
O387   O     0.79373   0.43988   0.24999   0.00000  Uiso   1.00
O388   O     0.87292   0.43989   0.24999   0.00000  Uiso   1.00
O389   O     0.81306   0.50001   0.17451   0.00000  Uiso   1.00
O390   O     0.89225   0.50002   0.17451   0.00000  Uiso   1.00
C391   C     0.16675   0.91256   0.25013   0.00000  Uiso   1.00
C392   C     0.12439   0.83025   0.40745   0.00000  Uiso   1.00
C393   C     0.20892   0.97916   0.22675   0.00000  Uiso   1.00
C394   C     0.14044   0.83157   0.35009   0.00000  Uiso   1.00
C395   C     0.20801   0.68845   0.22767   0.00000  Uiso   1.00
C396   C     0.16485   0.70929   0.25434   0.00000  Uiso   1.00
C397   C     0.12208   0.68687   0.28200   0.00000  Uiso   1.00
C398   C     0.12335   0.97730   0.27908   0.00000  Uiso   1.00
C399   C     0.16638   0.95702   0.25167   0.00000  Uiso   1.00
C400   C     0.29904   0.85742   0.28419   0.00000  Uiso   1.00
C401   C     0.01532   0.85736   0.28423   0.00000  Uiso   1.00
C402   C     0.14416   0.82745   0.48990   0.00000  Uiso   1.00
C403   C     0.03426   0.80916   0.21590   0.00000  Uiso   1.00
C404   C     0.31797   0.80918   0.21590   0.00000  Uiso   1.00
C405   C     0.16588   0.75404   0.25198   0.00000  Uiso   1.00
C406   C     0.19287   0.83267   0.14999   0.00000  Uiso   1.00
C407   C     0.26184   0.79759   0.01484   0.00000  Uiso   1.00
C408   C     0.20754   0.82702   0.09349   0.00000  Uiso   1.00
C409   C     0.07749   0.84518   0.43402   0.00000  Uiso   1.00
C410   C     0.06315   0.84983   0.48772   0.00000  Uiso   1.00
C411   C     0.09618   0.84197   0.01543   0.00000  Uiso   1.00
C412   C     0.07606   0.70678   0.31747   0.00000  Uiso   1.00
C413   C     0.15641   0.81783   0.43608   0.00000  Uiso   1.00
C414   C     0.08549   0.72420   0.36671   0.00000  Uiso   1.00
C415   C     0.04010   0.74574   0.40158   0.00000  Uiso   1.00
C416   C     0.18027   0.82180   0.01604   0.00000  Uiso   1.00
C417   C     0.22577   0.80301   0.48963   0.00000  Uiso   1.00
C418   C     0.23433   0.78897   0.43878   0.00000  Uiso   1.00
C419   C     0.19993   0.79567   0.41264   0.00000  Uiso   1.00
C420   C     0.17279   0.83474   0.06756   0.00000  Uiso   1.00
C421   C     0.25267   0.80934   0.06669   0.00000  Uiso   1.00
Cu422  Cu    0.11978   0.83333   0.25000   0.00000  Uiso   1.00
Cu423  Cu    0.21355   0.83334   0.25000   0.00000  Uiso   1.00
H424   H     0.27996   0.80312   0.08631   0.00000  Uiso   1.00
H425   H     0.13988   0.85066   0.08886   0.00000  Uiso   1.00
H426   H     0.05199   0.85400   0.41315   0.00000  Uiso   1.00
H427   H     0.08253   0.84668   0.05693   0.00000  Uiso   1.00
H428   H     0.02663   0.86084   0.00787   0.00000  Uiso   1.00
H429   H     0.20759   0.78224   0.37428   0.00000  Uiso   1.00
H430   H     0.24243   0.96351   0.20561   0.00000  Uiso   1.00
H431   H     0.03040   0.77248   0.38089   0.00000  Uiso   1.00
H432   H     0.00854   0.72394   0.41316   0.00000  Uiso   1.00
H433   H     0.04777   0.75703   0.43737   0.00000  Uiso   1.00
H434   H     0.09559   0.69862   0.38895   0.00000  Uiso   1.00
H435   H     0.24097   0.70520   0.20677   0.00000  Uiso   1.00
H436   H     0.11644   0.74655   0.35625   0.00000  Uiso   1.00
H437   H     0.06179   0.73073   0.29657   0.00000  Uiso   1.00
H438   H     0.04590   0.68364   0.32996   0.00000  Uiso   1.00
H439   H     0.09120   0.95941   0.29972   0.00000  Uiso   1.00
H440   H     0.27277   0.87677   0.31153   0.00000  Uiso   1.00
H441   H     0.02645   0.87663   0.31161   0.00000  Uiso   1.00
H442   H     0.06052   0.78974   0.18864   0.00000  Uiso   1.00
H443   H     0.30682   0.78983   0.18861   0.00000  Uiso   1.00
H444   H     0.26786   0.77279   0.41898   0.00000  Uiso   1.00
H445   H     0.29663   0.78331   0.49486   0.00000  Uiso   1.00
N446   N     0.04931   0.83332   0.24998   0.00000  Uiso   1.00
N447   N     0.28402   0.83335   0.24999   0.00000  Uiso   1.00
O448   O     0.12708   0.89345   0.25000   0.00000  Uiso   1.00
O449   O     0.20627   0.89346   0.25000   0.00000  Uiso   1.00
O450   O     0.10775   0.83332   0.32549   0.00000  Uiso   1.00
O451   O     0.18694   0.83333   0.32549   0.00000  Uiso   1.00
O452   O     0.12706   0.77321   0.24999   0.00000  Uiso   1.00
O453   O     0.20625   0.77322   0.24999   0.00000  Uiso   1.00
O454   O     0.14640   0.83334   0.17451   0.00000  Uiso   1.00
O455   O     0.22559   0.83335   0.17451   0.00000  Uiso   1.00
C456   C     0.50008   0.91256   0.25013   0.00000  Uiso   1.00
C457   C     0.45772   0.83025   0.40745   0.00000  Uiso   1.00
C458   C     0.54225   0.97916   0.22675   0.00000  Uiso   1.00
C459   C     0.47377   0.83157   0.35009   0.00000  Uiso   1.00
C460   C     0.54135   0.68845   0.22767   0.00000  Uiso   1.00
C461   C     0.49819   0.70929   0.25434   0.00000  Uiso   1.00
C462   C     0.45542   0.68687   0.28200   0.00000  Uiso   1.00
C463   C     0.45668   0.97730   0.27908   0.00000  Uiso   1.00
C464   C     0.49971   0.95702   0.25167   0.00000  Uiso   1.00
C465   C     0.63238   0.85742   0.28419   0.00000  Uiso   1.00
C466   C     0.34865   0.85736   0.28423   0.00000  Uiso   1.00
C467   C     0.47749   0.82745   0.48990   0.00000  Uiso   1.00
C468   C     0.36760   0.80916   0.21590   0.00000  Uiso   1.00
C469   C     0.65131   0.80918   0.21590   0.00000  Uiso   1.00
C470   C     0.49922   0.75404   0.25198   0.00000  Uiso   1.00
C471   C     0.52620   0.83267   0.14999   0.00000  Uiso   1.00
C472   C     0.59518   0.79759   0.01484   0.00000  Uiso   1.00
C473   C     0.54087   0.82702   0.09349   0.00000  Uiso   1.00
C474   C     0.41083   0.84518   0.43402   0.00000  Uiso   1.00
C475   C     0.39649   0.84983   0.48772   0.00000  Uiso   1.00
C476   C     0.42951   0.84197   0.01543   0.00000  Uiso   1.00
C477   C     0.40940   0.70678   0.31747   0.00000  Uiso   1.00
C478   C     0.48974   0.81783   0.43608   0.00000  Uiso   1.00
C479   C     0.41882   0.72420   0.36671   0.00000  Uiso   1.00
C480   C     0.37343   0.74574   0.40158   0.00000  Uiso   1.00
C481   C     0.51360   0.82180   0.01604   0.00000  Uiso   1.00
C482   C     0.55910   0.80301   0.48963   0.00000  Uiso   1.00
C483   C     0.56767   0.78897   0.43878   0.00000  Uiso   1.00
C484   C     0.53326   0.79567   0.41264   0.00000  Uiso   1.00
C485   C     0.50613   0.83474   0.06756   0.00000  Uiso   1.00
C486   C     0.58601   0.80934   0.06669   0.00000  Uiso   1.00
Cu487  Cu    0.45311   0.83333   0.25000   0.00000  Uiso   1.00
Cu488  Cu    0.54689   0.83334   0.25000   0.00000  Uiso   1.00
H489   H     0.61329   0.80312   0.08631   0.00000  Uiso   1.00
H490   H     0.47321   0.85066   0.08886   0.00000  Uiso   1.00
H491   H     0.38533   0.85400   0.41315   0.00000  Uiso   1.00
H492   H     0.41586   0.84668   0.05693   0.00000  Uiso   1.00
H493   H     0.35996   0.86084   0.00787   0.00000  Uiso   1.00
H494   H     0.54093   0.78224   0.37428   0.00000  Uiso   1.00
H495   H     0.57577   0.96351   0.20561   0.00000  Uiso   1.00
H496   H     0.36373   0.77248   0.38089   0.00000  Uiso   1.00
H497   H     0.34187   0.72394   0.41316   0.00000  Uiso   1.00
H498   H     0.38110   0.75703   0.43737   0.00000  Uiso   1.00
H499   H     0.42893   0.69862   0.38895   0.00000  Uiso   1.00
H500   H     0.57431   0.70520   0.20677   0.00000  Uiso   1.00
H501   H     0.44977   0.74655   0.35625   0.00000  Uiso   1.00
H502   H     0.39512   0.73073   0.29657   0.00000  Uiso   1.00
H503   H     0.37924   0.68364   0.32996   0.00000  Uiso   1.00
H504   H     0.42454   0.95941   0.29972   0.00000  Uiso   1.00
H505   H     0.60610   0.87677   0.31153   0.00000  Uiso   1.00
H506   H     0.35979   0.87663   0.31161   0.00000  Uiso   1.00
H507   H     0.39386   0.78974   0.18864   0.00000  Uiso   1.00
H508   H     0.64015   0.78983   0.18861   0.00000  Uiso   1.00
H509   H     0.60119   0.77279   0.41898   0.00000  Uiso   1.00
H510   H     0.62996   0.78331   0.49486   0.00000  Uiso   1.00
N511   N     0.38265   0.83332   0.24998   0.00000  Uiso   1.00
N512   N     0.61735   0.83335   0.24999   0.00000  Uiso   1.00
O513   O     0.46042   0.89345   0.25000   0.00000  Uiso   1.00
O514   O     0.53961   0.89346   0.25000   0.00000  Uiso   1.00
O515   O     0.44108   0.83332   0.32549   0.00000  Uiso   1.00
O516   O     0.52027   0.83333   0.32549   0.00000  Uiso   1.00
O517   O     0.46039   0.77321   0.24999   0.00000  Uiso   1.00
O518   O     0.53958   0.77322   0.24999   0.00000  Uiso   1.00
O519   O     0.47973   0.83334   0.17451   0.00000  Uiso   1.00
O520   O     0.55892   0.83335   0.17451   0.00000  Uiso   1.00
C521   C     0.83341   0.91256   0.25013   0.00000  Uiso   1.00
C522   C     0.79105   0.83025   0.40745   0.00000  Uiso   1.00
C523   C     0.87558   0.97916   0.22675   0.00000  Uiso   1.00
C524   C     0.80710   0.83157   0.35009   0.00000  Uiso   1.00
C525   C     0.87468   0.68845   0.22767   0.00000  Uiso   1.00
C526   C     0.83152   0.70929   0.25434   0.00000  Uiso   1.00
C527   C     0.78875   0.68687   0.28200   0.00000  Uiso   1.00
C528   C     0.79001   0.97730   0.27908   0.00000  Uiso   1.00
C529   C     0.83304   0.95702   0.25167   0.00000  Uiso   1.00
C530   C     0.96571   0.85742   0.28419   0.00000  Uiso   1.00
C531   C     0.68199   0.85736   0.28423   0.00000  Uiso   1.00
C532   C     0.81083   0.82745   0.48990   0.00000  Uiso   1.00
C533   C     0.70093   0.80916   0.21590   0.00000  Uiso   1.00
C534   C     0.98464   0.80918   0.21590   0.00000  Uiso   1.00
C535   C     0.83255   0.75404   0.25198   0.00000  Uiso   1.00
C536   C     0.85953   0.83267   0.14999   0.00000  Uiso   1.00
C537   C     0.92851   0.79759   0.01484   0.00000  Uiso   1.00
C538   C     0.87421   0.82702   0.09349   0.00000  Uiso   1.00
C539   C     0.74416   0.84518   0.43402   0.00000  Uiso   1.00
C540   C     0.72982   0.84983   0.48772   0.00000  Uiso   1.00
C541   C     0.76284   0.84197   0.01543   0.00000  Uiso   1.00
C542   C     0.74273   0.70678   0.31747   0.00000  Uiso   1.00
C543   C     0.82307   0.81783   0.43608   0.00000  Uiso   1.00
C544   C     0.75216   0.72420   0.36671   0.00000  Uiso   1.00
C545   C     0.70677   0.74574   0.40158   0.00000  Uiso   1.00
C546   C     0.84693   0.82180   0.01604   0.00000  Uiso   1.00
C547   C     0.89244   0.80301   0.48963   0.00000  Uiso   1.00
C548   C     0.90100   0.78897   0.43878   0.00000  Uiso   1.00
C549   C     0.86659   0.79567   0.41264   0.00000  Uiso   1.00
C550   C     0.83946   0.83474   0.06756   0.00000  Uiso   1.00
C551   C     0.91934   0.80934   0.06669   0.00000  Uiso   1.00
Cu552  Cu    0.78645   0.83333   0.25000   0.00000  Uiso   1.00
Cu553  Cu    0.88022   0.83334   0.25000   0.00000  Uiso   1.00
H554   H     0.94662   0.80312   0.08631   0.00000  Uiso   1.00
H555   H     0.80655   0.85066   0.08886   0.00000  Uiso   1.00
H556   H     0.71866   0.85400   0.41315   0.00000  Uiso   1.00
H557   H     0.74919   0.84668   0.05693   0.00000  Uiso   1.00
H558   H     0.69329   0.86084   0.00787   0.00000  Uiso   1.00
H559   H     0.87426   0.78224   0.37428   0.00000  Uiso   1.00
H560   H     0.90910   0.96351   0.20561   0.00000  Uiso   1.00
H561   H     0.69706   0.77248   0.38089   0.00000  Uiso   1.00
H562   H     0.67521   0.72394   0.41316   0.00000  Uiso   1.00
H563   H     0.71443   0.75703   0.43737   0.00000  Uiso   1.00
H564   H     0.76226   0.69862   0.38895   0.00000  Uiso   1.00
H565   H     0.90764   0.70520   0.20677   0.00000  Uiso   1.00
H566   H     0.78310   0.74655   0.35625   0.00000  Uiso   1.00
H567   H     0.72845   0.73073   0.29657   0.00000  Uiso   1.00
H568   H     0.71257   0.68364   0.32996   0.00000  Uiso   1.00
H569   H     0.75787   0.95941   0.29972   0.00000  Uiso   1.00
H570   H     0.93943   0.87677   0.31153   0.00000  Uiso   1.00
H571   H     0.69312   0.87663   0.31161   0.00000  Uiso   1.00
H572   H     0.72719   0.78974   0.18864   0.00000  Uiso   1.00
H573   H     0.97349   0.78983   0.18861   0.00000  Uiso   1.00
H574   H     0.93452   0.77279   0.41898   0.00000  Uiso   1.00
H575   H     0.96330   0.78331   0.49486   0.00000  Uiso   1.00
N576   N     0.71598   0.83332   0.24998   0.00000  Uiso   1.00
N577   N     0.95069   0.83335   0.24999   0.00000  Uiso   1.00
O578   O     0.79375   0.89345   0.25000   0.00000  Uiso   1.00
O579   O     0.87294   0.89346   0.25000   0.00000  Uiso   1.00
O580   O     0.77441   0.83332   0.32549   0.00000  Uiso   1.00
O581   O     0.85360   0.83333   0.32549   0.00000  Uiso   1.00
O582   O     0.79373   0.77321   0.24999   0.00000  Uiso   1.00
O583   O     0.87292   0.77322   0.24999   0.00000  Uiso   1.00
O584   O     0.81306   0.83334   0.17451   0.00000  Uiso   1.00
O585   O     0.89225   0.83335   0.17451   0.00000  Uiso   1.00
C586   C     0.16675   0.24590   0.75013   0.00000  Uiso   1.00
C587   C     0.12439   0.16358   0.90745   0.00000  Uiso   1.00
C588   C     0.20892   0.31250   0.72675   0.00000  Uiso   1.00
C589   C     0.14044   0.16490   0.85009   0.00000  Uiso   1.00
C590   C     0.20801   0.02178   0.72767   0.00000  Uiso   1.00
C591   C     0.16485   0.04262   0.75434   0.00000  Uiso   1.00
C592   C     0.12208   0.02020   0.78200   0.00000  Uiso   1.00
C593   C     0.12335   0.31063   0.77908   0.00000  Uiso   1.00
C594   C     0.16638   0.29036   0.75167   0.00000  Uiso   1.00
C595   C     0.29904   0.19076   0.78419   0.00000  Uiso   1.00
C596   C     0.01532   0.19070   0.78423   0.00000  Uiso   1.00
C597   C     0.14416   0.16079   0.98990   0.00000  Uiso   1.00
C598   C     0.03426   0.14249   0.71590   0.00000  Uiso   1.00
C599   C     0.31797   0.14251   0.71590   0.00000  Uiso   1.00
C600   C     0.16588   0.08737   0.75198   0.00000  Uiso   1.00
C601   C     0.19287   0.16600   0.64999   0.00000  Uiso   1.00
C602   C     0.26184   0.13093   0.51484   0.00000  Uiso   1.00
C603   C     0.20754   0.16036   0.59349   0.00000  Uiso   1.00
C604   C     0.07749   0.17852   0.93402   0.00000  Uiso   1.00
C605   C     0.06315   0.18316   0.98772   0.00000  Uiso   1.00
C606   C     0.09618   0.17531   0.51543   0.00000  Uiso   1.00
C607   C     0.07606   0.04012   0.81747   0.00000  Uiso   1.00
C608   C     0.15641   0.15116   0.93608   0.00000  Uiso   1.00
C609   C     0.08549   0.05754   0.86671   0.00000  Uiso   1.00
C610   C     0.04010   0.07907   0.90158   0.00000  Uiso   1.00
C611   C     0.18027   0.15514   0.51604   0.00000  Uiso   1.00
C612   C     0.22577   0.13634   0.98963   0.00000  Uiso   1.00
C613   C     0.23433   0.12230   0.93878   0.00000  Uiso   1.00
C614   C     0.19993   0.12900   0.91264   0.00000  Uiso   1.00
C615   C     0.17279   0.16807   0.56756   0.00000  Uiso   1.00
C616   C     0.25267   0.14267   0.56669   0.00000  Uiso   1.00
Cu617  Cu    0.11978   0.16666   0.75000   0.00000  Uiso   1.00
Cu618  Cu    0.21355   0.16667   0.75000   0.00000  Uiso   1.00
H619   H     0.27996   0.13645   0.58631   0.00000  Uiso   1.00
H620   H     0.13988   0.18400   0.58886   0.00000  Uiso   1.00
H621   H     0.05199   0.18733   0.91315   0.00000  Uiso   1.00
H622   H     0.08253   0.18002   0.55693   0.00000  Uiso   1.00
H623   H     0.02663   0.19418   0.50787   0.00000  Uiso   1.00
H624   H     0.20759   0.11557   0.87428   0.00000  Uiso   1.00
H625   H     0.24243   0.29684   0.70561   0.00000  Uiso   1.00
H626   H     0.03040   0.10581   0.88089   0.00000  Uiso   1.00
H627   H     0.00854   0.05727   0.91316   0.00000  Uiso   1.00
H628   H     0.04777   0.09036   0.93737   0.00000  Uiso   1.00
H629   H     0.09559   0.03195   0.88895   0.00000  Uiso   1.00
H630   H     0.24097   0.03853   0.70677   0.00000  Uiso   1.00
H631   H     0.11644   0.07988   0.85625   0.00000  Uiso   1.00
H632   H     0.06179   0.06407   0.79657   0.00000  Uiso   1.00
H633   H     0.04590   0.01697   0.82996   0.00000  Uiso   1.00
H634   H     0.09120   0.29274   0.79972   0.00000  Uiso   1.00
H635   H     0.27277   0.21010   0.81153   0.00000  Uiso   1.00
H636   H     0.02645   0.20997   0.81161   0.00000  Uiso   1.00
H637   H     0.06052   0.12308   0.68864   0.00000  Uiso   1.00
H638   H     0.30682   0.12316   0.68861   0.00000  Uiso   1.00
H639   H     0.26786   0.10612   0.91898   0.00000  Uiso   1.00
H640   H     0.29663   0.11664   0.99486   0.00000  Uiso   1.00
N641   N     0.04931   0.16666   0.74998   0.00000  Uiso   1.00
N642   N     0.28402   0.16669   0.74999   0.00000  Uiso   1.00
O643   O     0.12708   0.22678   0.75000   0.00000  Uiso   1.00
O644   O     0.20627   0.22679   0.75000   0.00000  Uiso   1.00
O645   O     0.10775   0.16665   0.82549   0.00000  Uiso   1.00
O646   O     0.18694   0.16666   0.82549   0.00000  Uiso   1.00
O647   O     0.12706   0.10654   0.74999   0.00000  Uiso   1.00
O648   O     0.20625   0.10655   0.74999   0.00000  Uiso   1.00
O649   O     0.14640   0.16667   0.67451   0.00000  Uiso   1.00
O650   O     0.22559   0.16668   0.67451   0.00000  Uiso   1.00
C651   C     0.50008   0.24590   0.75013   0.00000  Uiso   1.00
C652   C     0.45772   0.16358   0.90745   0.00000  Uiso   1.00
C653   C     0.54225   0.31250   0.72675   0.00000  Uiso   1.00
C654   C     0.47377   0.16490   0.85009   0.00000  Uiso   1.00
C655   C     0.54135   0.02178   0.72767   0.00000  Uiso   1.00
C656   C     0.49819   0.04262   0.75434   0.00000  Uiso   1.00
C657   C     0.45542   0.02020   0.78200   0.00000  Uiso   1.00
C658   C     0.45668   0.31063   0.77908   0.00000  Uiso   1.00
C659   C     0.49971   0.29036   0.75167   0.00000  Uiso   1.00
C660   C     0.63238   0.19076   0.78419   0.00000  Uiso   1.00
C661   C     0.34865   0.19070   0.78423   0.00000  Uiso   1.00
C662   C     0.47749   0.16079   0.98990   0.00000  Uiso   1.00
C663   C     0.36760   0.14249   0.71590   0.00000  Uiso   1.00
C664   C     0.65131   0.14251   0.71590   0.00000  Uiso   1.00
C665   C     0.49922   0.08737   0.75198   0.00000  Uiso   1.00
C666   C     0.52620   0.16600   0.64999   0.00000  Uiso   1.00
C667   C     0.59518   0.13093   0.51484   0.00000  Uiso   1.00
C668   C     0.54087   0.16036   0.59349   0.00000  Uiso   1.00
C669   C     0.41083   0.17852   0.93402   0.00000  Uiso   1.00
C670   C     0.39649   0.18316   0.98772   0.00000  Uiso   1.00
C671   C     0.42951   0.17531   0.51543   0.00000  Uiso   1.00
C672   C     0.40940   0.04012   0.81747   0.00000  Uiso   1.00
C673   C     0.48974   0.15116   0.93608   0.00000  Uiso   1.00
C674   C     0.41882   0.05754   0.86671   0.00000  Uiso   1.00
C675   C     0.37343   0.07907   0.90158   0.00000  Uiso   1.00
C676   C     0.51360   0.15514   0.51604   0.00000  Uiso   1.00
C677   C     0.55910   0.13634   0.98963   0.00000  Uiso   1.00
C678   C     0.56767   0.12230   0.93878   0.00000  Uiso   1.00
C679   C     0.53326   0.12900   0.91264   0.00000  Uiso   1.00
C680   C     0.50613   0.16807   0.56756   0.00000  Uiso   1.00
C681   C     0.58601   0.14267   0.56669   0.00000  Uiso   1.00
Cu682  Cu    0.45311   0.16666   0.75000   0.00000  Uiso   1.00
Cu683  Cu    0.54689   0.16667   0.75000   0.00000  Uiso   1.00
H684   H     0.61329   0.13645   0.58631   0.00000  Uiso   1.00
H685   H     0.47321   0.18400   0.58886   0.00000  Uiso   1.00
H686   H     0.38533   0.18733   0.91315   0.00000  Uiso   1.00
H687   H     0.41586   0.18002   0.55693   0.00000  Uiso   1.00
H688   H     0.35996   0.19418   0.50787   0.00000  Uiso   1.00
H689   H     0.54093   0.11557   0.87428   0.00000  Uiso   1.00
H690   H     0.57577   0.29684   0.70561   0.00000  Uiso   1.00
H691   H     0.36373   0.10581   0.88089   0.00000  Uiso   1.00
H692   H     0.34187   0.05727   0.91316   0.00000  Uiso   1.00
H693   H     0.38110   0.09036   0.93737   0.00000  Uiso   1.00
H694   H     0.42893   0.03195   0.88895   0.00000  Uiso   1.00
H695   H     0.57431   0.03853   0.70677   0.00000  Uiso   1.00
H696   H     0.44977   0.07988   0.85625   0.00000  Uiso   1.00
H697   H     0.39512   0.06407   0.79657   0.00000  Uiso   1.00
H698   H     0.37924   0.01697   0.82996   0.00000  Uiso   1.00
H699   H     0.42454   0.29274   0.79972   0.00000  Uiso   1.00
H700   H     0.60610   0.21010   0.81153   0.00000  Uiso   1.00
H701   H     0.35979   0.20997   0.81161   0.00000  Uiso   1.00
H702   H     0.39386   0.12308   0.68864   0.00000  Uiso   1.00
H703   H     0.64015   0.12316   0.68861   0.00000  Uiso   1.00
H704   H     0.60119   0.10612   0.91898   0.00000  Uiso   1.00
H705   H     0.62996   0.11664   0.99486   0.00000  Uiso   1.00
N706   N     0.38265   0.16666   0.74998   0.00000  Uiso   1.00
N707   N     0.61735   0.16669   0.74999   0.00000  Uiso   1.00
O708   O     0.46042   0.22678   0.75000   0.00000  Uiso   1.00
O709   O     0.53961   0.22679   0.75000   0.00000  Uiso   1.00
O710   O     0.44108   0.16665   0.82549   0.00000  Uiso   1.00
O711   O     0.52027   0.16666   0.82549   0.00000  Uiso   1.00
O712   O     0.46039   0.10654   0.74999   0.00000  Uiso   1.00
O713   O     0.53958   0.10655   0.74999   0.00000  Uiso   1.00
O714   O     0.47973   0.16667   0.67451   0.00000  Uiso   1.00
O715   O     0.55892   0.16668   0.67451   0.00000  Uiso   1.00
C716   C     0.83341   0.24590   0.75013   0.00000  Uiso   1.00
C717   C     0.79105   0.16358   0.90745   0.00000  Uiso   1.00
C718   C     0.87558   0.31250   0.72675   0.00000  Uiso   1.00
C719   C     0.80710   0.16490   0.85009   0.00000  Uiso   1.00
C720   C     0.87468   0.02178   0.72767   0.00000  Uiso   1.00
C721   C     0.83152   0.04262   0.75434   0.00000  Uiso   1.00
C722   C     0.78875   0.02020   0.78200   0.00000  Uiso   1.00
C723   C     0.79001   0.31063   0.77908   0.00000  Uiso   1.00
C724   C     0.83304   0.29036   0.75167   0.00000  Uiso   1.00
C725   C     0.96571   0.19076   0.78419   0.00000  Uiso   1.00
C726   C     0.68199   0.19070   0.78423   0.00000  Uiso   1.00
C727   C     0.81083   0.16079   0.98990   0.00000  Uiso   1.00
C728   C     0.70093   0.14249   0.71590   0.00000  Uiso   1.00
C729   C     0.98464   0.14251   0.71590   0.00000  Uiso   1.00
C730   C     0.83255   0.08737   0.75198   0.00000  Uiso   1.00
C731   C     0.85953   0.16600   0.64999   0.00000  Uiso   1.00
C732   C     0.92851   0.13093   0.51484   0.00000  Uiso   1.00
C733   C     0.87421   0.16036   0.59349   0.00000  Uiso   1.00
C734   C     0.74416   0.17852   0.93402   0.00000  Uiso   1.00
C735   C     0.72982   0.18316   0.98772   0.00000  Uiso   1.00
C736   C     0.76284   0.17531   0.51543   0.00000  Uiso   1.00
C737   C     0.74273   0.04012   0.81747   0.00000  Uiso   1.00
C738   C     0.82307   0.15116   0.93608   0.00000  Uiso   1.00
C739   C     0.75216   0.05754   0.86671   0.00000  Uiso   1.00
C740   C     0.70677   0.07907   0.90158   0.00000  Uiso   1.00
C741   C     0.84693   0.15514   0.51604   0.00000  Uiso   1.00
C742   C     0.89244   0.13634   0.98963   0.00000  Uiso   1.00
C743   C     0.90100   0.12230   0.93878   0.00000  Uiso   1.00
C744   C     0.86659   0.12900   0.91264   0.00000  Uiso   1.00
C745   C     0.83946   0.16807   0.56756   0.00000  Uiso   1.00
C746   C     0.91934   0.14267   0.56669   0.00000  Uiso   1.00
Cu747  Cu    0.78645   0.16666   0.75000   0.00000  Uiso   1.00
Cu748  Cu    0.88022   0.16667   0.75000   0.00000  Uiso   1.00
H749   H     0.94662   0.13645   0.58631   0.00000  Uiso   1.00
H750   H     0.80655   0.18400   0.58886   0.00000  Uiso   1.00
H751   H     0.71866   0.18733   0.91315   0.00000  Uiso   1.00
H752   H     0.74919   0.18002   0.55693   0.00000  Uiso   1.00
H753   H     0.69329   0.19418   0.50787   0.00000  Uiso   1.00
H754   H     0.87426   0.11557   0.87428   0.00000  Uiso   1.00
H755   H     0.90910   0.29684   0.70561   0.00000  Uiso   1.00
H756   H     0.69706   0.10581   0.88089   0.00000  Uiso   1.00
H757   H     0.67521   0.05727   0.91316   0.00000  Uiso   1.00
H758   H     0.71443   0.09036   0.93737   0.00000  Uiso   1.00
H759   H     0.76226   0.03195   0.88895   0.00000  Uiso   1.00
H760   H     0.90764   0.03853   0.70677   0.00000  Uiso   1.00
H761   H     0.78310   0.07988   0.85625   0.00000  Uiso   1.00
H762   H     0.72845   0.06407   0.79657   0.00000  Uiso   1.00
H763   H     0.71257   0.01697   0.82996   0.00000  Uiso   1.00
H764   H     0.75787   0.29274   0.79972   0.00000  Uiso   1.00
H765   H     0.93943   0.21010   0.81153   0.00000  Uiso   1.00
H766   H     0.69312   0.20997   0.81161   0.00000  Uiso   1.00
H767   H     0.72719   0.12308   0.68864   0.00000  Uiso   1.00
H768   H     0.97349   0.12316   0.68861   0.00000  Uiso   1.00
H769   H     0.93452   0.10612   0.91898   0.00000  Uiso   1.00
H770   H     0.96330   0.11664   0.99486   0.00000  Uiso   1.00
N771   N     0.71598   0.16666   0.74998   0.00000  Uiso   1.00
N772   N     0.95069   0.16669   0.74999   0.00000  Uiso   1.00
O773   O     0.79375   0.22678   0.75000   0.00000  Uiso   1.00
O774   O     0.87294   0.22679   0.75000   0.00000  Uiso   1.00
O775   O     0.77441   0.16665   0.82549   0.00000  Uiso   1.00
O776   O     0.85360   0.16666   0.82549   0.00000  Uiso   1.00
O777   O     0.79373   0.10654   0.74999   0.00000  Uiso   1.00
O778   O     0.87292   0.10655   0.74999   0.00000  Uiso   1.00
O779   O     0.81306   0.16667   0.67451   0.00000  Uiso   1.00
O780   O     0.89225   0.16668   0.67451   0.00000  Uiso   1.00
C781   C     0.16675   0.57923   0.75013   0.00000  Uiso   1.00
C782   C     0.12439   0.49691   0.90745   0.00000  Uiso   1.00
C783   C     0.20892   0.64583   0.72675   0.00000  Uiso   1.00
C784   C     0.14044   0.49823   0.85009   0.00000  Uiso   1.00
C785   C     0.20801   0.35511   0.72767   0.00000  Uiso   1.00
C786   C     0.16485   0.37595   0.75434   0.00000  Uiso   1.00
C787   C     0.12208   0.35354   0.78200   0.00000  Uiso   1.00
C788   C     0.12335   0.64396   0.77908   0.00000  Uiso   1.00
C789   C     0.16638   0.62369   0.75167   0.00000  Uiso   1.00
C790   C     0.29904   0.52409   0.78419   0.00000  Uiso   1.00
C791   C     0.01532   0.52403   0.78423   0.00000  Uiso   1.00
C792   C     0.14416   0.49412   0.98990   0.00000  Uiso   1.00
C793   C     0.03426   0.47582   0.71590   0.00000  Uiso   1.00
C794   C     0.31797   0.47585   0.71590   0.00000  Uiso   1.00
C795   C     0.16588   0.42070   0.75198   0.00000  Uiso   1.00
C796   C     0.19287   0.49933   0.64999   0.00000  Uiso   1.00
C797   C     0.26184   0.46426   0.51484   0.00000  Uiso   1.00
C798   C     0.20754   0.49369   0.59349   0.00000  Uiso   1.00
C799   C     0.07749   0.51185   0.93402   0.00000  Uiso   1.00
C800   C     0.06315   0.51649   0.98772   0.00000  Uiso   1.00
C801   C     0.09618   0.50864   0.51543   0.00000  Uiso   1.00
C802   C     0.07606   0.37345   0.81747   0.00000  Uiso   1.00
C803   C     0.15641   0.48450   0.93608   0.00000  Uiso   1.00
C804   C     0.08549   0.39087   0.86671   0.00000  Uiso   1.00
C805   C     0.04010   0.41240   0.90158   0.00000  Uiso   1.00
C806   C     0.18027   0.48847   0.51604   0.00000  Uiso   1.00
C807   C     0.22577   0.46967   0.98963   0.00000  Uiso   1.00
C808   C     0.23433   0.45564   0.93878   0.00000  Uiso   1.00
C809   C     0.19993   0.46233   0.91264   0.00000  Uiso   1.00
C810   C     0.17279   0.50140   0.56756   0.00000  Uiso   1.00
C811   C     0.25267   0.47601   0.56669   0.00000  Uiso   1.00
Cu812  Cu    0.11978   0.49999   0.75000   0.00000  Uiso   1.00
Cu813  Cu    0.21355   0.50001   0.75000   0.00000  Uiso   1.00
H814   H     0.27996   0.46979   0.58631   0.00000  Uiso   1.00
H815   H     0.13988   0.51733   0.58886   0.00000  Uiso   1.00
H816   H     0.05199   0.52066   0.91315   0.00000  Uiso   1.00
H817   H     0.08253   0.51335   0.55693   0.00000  Uiso   1.00
H818   H     0.02663   0.52751   0.50787   0.00000  Uiso   1.00
H819   H     0.20759   0.44891   0.87428   0.00000  Uiso   1.00
H820   H     0.24243   0.63018   0.70561   0.00000  Uiso   1.00
H821   H     0.03040   0.43914   0.88089   0.00000  Uiso   1.00
H822   H     0.00854   0.39060   0.91316   0.00000  Uiso   1.00
H823   H     0.04777   0.42369   0.93737   0.00000  Uiso   1.00
H824   H     0.09559   0.36529   0.88895   0.00000  Uiso   1.00
H825   H     0.24097   0.37187   0.70677   0.00000  Uiso   1.00
H826   H     0.11644   0.41322   0.85625   0.00000  Uiso   1.00
H827   H     0.06179   0.39740   0.79657   0.00000  Uiso   1.00
H828   H     0.04590   0.35031   0.82996   0.00000  Uiso   1.00
H829   H     0.09120   0.62608   0.79972   0.00000  Uiso   1.00
H830   H     0.27277   0.54343   0.81153   0.00000  Uiso   1.00
H831   H     0.02645   0.54330   0.81161   0.00000  Uiso   1.00
H832   H     0.06052   0.45641   0.68864   0.00000  Uiso   1.00
H833   H     0.30682   0.45649   0.68861   0.00000  Uiso   1.00
H834   H     0.26786   0.43946   0.91898   0.00000  Uiso   1.00
H835   H     0.29663   0.44998   0.99486   0.00000  Uiso   1.00
N836   N     0.04931   0.49999   0.74998   0.00000  Uiso   1.00
N837   N     0.28402   0.50002   0.74999   0.00000  Uiso   1.00
O838   O     0.12708   0.56011   0.75000   0.00000  Uiso   1.00
O839   O     0.20627   0.56012   0.75000   0.00000  Uiso   1.00
O840   O     0.10775   0.49998   0.82549   0.00000  Uiso   1.00
O841   O     0.18694   0.49999   0.82549   0.00000  Uiso   1.00
O842   O     0.12706   0.43988   0.74999   0.00000  Uiso   1.00
O843   O     0.20625   0.43989   0.74999   0.00000  Uiso   1.00
O844   O     0.14640   0.50001   0.67451   0.00000  Uiso   1.00
O845   O     0.22559   0.50002   0.67451   0.00000  Uiso   1.00
C846   C     0.50008   0.57923   0.75013   0.00000  Uiso   1.00
C847   C     0.45772   0.49691   0.90745   0.00000  Uiso   1.00
C848   C     0.54225   0.64583   0.72675   0.00000  Uiso   1.00
C849   C     0.47377   0.49823   0.85009   0.00000  Uiso   1.00
C850   C     0.54135   0.35511   0.72767   0.00000  Uiso   1.00
C851   C     0.49819   0.37595   0.75434   0.00000  Uiso   1.00
C852   C     0.45542   0.35354   0.78200   0.00000  Uiso   1.00
C853   C     0.45668   0.64396   0.77908   0.00000  Uiso   1.00
C854   C     0.49971   0.62369   0.75167   0.00000  Uiso   1.00
C855   C     0.63238   0.52409   0.78419   0.00000  Uiso   1.00
C856   C     0.34865   0.52403   0.78423   0.00000  Uiso   1.00
C857   C     0.47749   0.49412   0.98990   0.00000  Uiso   1.00
C858   C     0.36760   0.47582   0.71590   0.00000  Uiso   1.00
C859   C     0.65131   0.47585   0.71590   0.00000  Uiso   1.00
C860   C     0.49922   0.42070   0.75198   0.00000  Uiso   1.00
C861   C     0.52620   0.49933   0.64999   0.00000  Uiso   1.00
C862   C     0.59518   0.46426   0.51484   0.00000  Uiso   1.00
C863   C     0.54087   0.49369   0.59349   0.00000  Uiso   1.00
C864   C     0.41083   0.51185   0.93402   0.00000  Uiso   1.00
C865   C     0.39649   0.51649   0.98772   0.00000  Uiso   1.00
C866   C     0.42951   0.50864   0.51543   0.00000  Uiso   1.00
C867   C     0.40940   0.37345   0.81747   0.00000  Uiso   1.00
C868   C     0.48974   0.48450   0.93608   0.00000  Uiso   1.00
C869   C     0.41882   0.39087   0.86671   0.00000  Uiso   1.00
C870   C     0.37343   0.41240   0.90158   0.00000  Uiso   1.00
C871   C     0.51360   0.48847   0.51604   0.00000  Uiso   1.00
C872   C     0.55910   0.46967   0.98963   0.00000  Uiso   1.00
C873   C     0.56767   0.45564   0.93878   0.00000  Uiso   1.00
C874   C     0.53326   0.46233   0.91264   0.00000  Uiso   1.00
C875   C     0.50613   0.50140   0.56756   0.00000  Uiso   1.00
C876   C     0.58601   0.47601   0.56669   0.00000  Uiso   1.00
Cu877  Cu    0.45311   0.49999   0.75000   0.00000  Uiso   1.00
Cu878  Cu    0.54689   0.50001   0.75000   0.00000  Uiso   1.00
H879   H     0.61329   0.46979   0.58631   0.00000  Uiso   1.00
H880   H     0.47321   0.51733   0.58886   0.00000  Uiso   1.00
H881   H     0.38533   0.52066   0.91315   0.00000  Uiso   1.00
H882   H     0.41586   0.51335   0.55693   0.00000  Uiso   1.00
H883   H     0.35996   0.52751   0.50787   0.00000  Uiso   1.00
H884   H     0.54093   0.44891   0.87428   0.00000  Uiso   1.00
H885   H     0.57577   0.63018   0.70561   0.00000  Uiso   1.00
H886   H     0.36373   0.43914   0.88089   0.00000  Uiso   1.00
H887   H     0.34187   0.39060   0.91316   0.00000  Uiso   1.00
H888   H     0.38110   0.42369   0.93737   0.00000  Uiso   1.00
H889   H     0.42893   0.36529   0.88895   0.00000  Uiso   1.00
H890   H     0.57431   0.37187   0.70677   0.00000  Uiso   1.00
H891   H     0.44977   0.41322   0.85625   0.00000  Uiso   1.00
H892   H     0.39512   0.39740   0.79657   0.00000  Uiso   1.00
H893   H     0.37924   0.35031   0.82996   0.00000  Uiso   1.00
H894   H     0.42454   0.62608   0.79972   0.00000  Uiso   1.00
H895   H     0.60610   0.54343   0.81153   0.00000  Uiso   1.00
H896   H     0.35979   0.54330   0.81161   0.00000  Uiso   1.00
H897   H     0.39386   0.45641   0.68864   0.00000  Uiso   1.00
H898   H     0.64015   0.45649   0.68861   0.00000  Uiso   1.00
H899   H     0.60119   0.43946   0.91898   0.00000  Uiso   1.00
H900   H     0.62996   0.44998   0.99486   0.00000  Uiso   1.00
N901   N     0.38265   0.49999   0.74998   0.00000  Uiso   1.00
N902   N     0.61735   0.50002   0.74999   0.00000  Uiso   1.00
O903   O     0.46042   0.56011   0.75000   0.00000  Uiso   1.00
O904   O     0.53961   0.56012   0.75000   0.00000  Uiso   1.00
O905   O     0.44108   0.49998   0.82549   0.00000  Uiso   1.00
O906   O     0.52027   0.49999   0.82549   0.00000  Uiso   1.00
O907   O     0.46039   0.43988   0.74999   0.00000  Uiso   1.00
O908   O     0.53958   0.43989   0.74999   0.00000  Uiso   1.00
O909   O     0.47973   0.50001   0.67451   0.00000  Uiso   1.00
O910   O     0.55892   0.50002   0.67451   0.00000  Uiso   1.00
C911   C     0.83341   0.57923   0.75013   0.00000  Uiso   1.00
C912   C     0.79105   0.49691   0.90745   0.00000  Uiso   1.00
C913   C     0.87558   0.64583   0.72675   0.00000  Uiso   1.00
C914   C     0.80710   0.49823   0.85009   0.00000  Uiso   1.00
C915   C     0.87468   0.35511   0.72767   0.00000  Uiso   1.00
C916   C     0.83152   0.37595   0.75434   0.00000  Uiso   1.00
C917   C     0.78875   0.35354   0.78200   0.00000  Uiso   1.00
C918   C     0.79001   0.64396   0.77908   0.00000  Uiso   1.00
C919   C     0.83304   0.62369   0.75167   0.00000  Uiso   1.00
C920   C     0.96571   0.52409   0.78419   0.00000  Uiso   1.00
C921   C     0.68199   0.52403   0.78423   0.00000  Uiso   1.00
C922   C     0.81083   0.49412   0.98990   0.00000  Uiso   1.00
C923   C     0.70093   0.47582   0.71590   0.00000  Uiso   1.00
C924   C     0.98464   0.47585   0.71590   0.00000  Uiso   1.00
C925   C     0.83255   0.42070   0.75198   0.00000  Uiso   1.00
C926   C     0.85953   0.49933   0.64999   0.00000  Uiso   1.00
C927   C     0.92851   0.46426   0.51484   0.00000  Uiso   1.00
C928   C     0.87421   0.49369   0.59349   0.00000  Uiso   1.00
C929   C     0.74416   0.51185   0.93402   0.00000  Uiso   1.00
C930   C     0.72982   0.51649   0.98772   0.00000  Uiso   1.00
C931   C     0.76284   0.50864   0.51543   0.00000  Uiso   1.00
C932   C     0.74273   0.37345   0.81747   0.00000  Uiso   1.00
C933   C     0.82307   0.48450   0.93608   0.00000  Uiso   1.00
C934   C     0.75216   0.39087   0.86671   0.00000  Uiso   1.00
C935   C     0.70677   0.41240   0.90158   0.00000  Uiso   1.00
C936   C     0.84693   0.48847   0.51604   0.00000  Uiso   1.00
C937   C     0.89244   0.46967   0.98963   0.00000  Uiso   1.00
C938   C     0.90100   0.45564   0.93878   0.00000  Uiso   1.00
C939   C     0.86659   0.46233   0.91264   0.00000  Uiso   1.00
C940   C     0.83946   0.50140   0.56756   0.00000  Uiso   1.00
C941   C     0.91934   0.47601   0.56669   0.00000  Uiso   1.00
Cu942  Cu    0.78645   0.49999   0.75000   0.00000  Uiso   1.00
Cu943  Cu    0.88022   0.50001   0.75000   0.00000  Uiso   1.00
H944   H     0.94662   0.46979   0.58631   0.00000  Uiso   1.00
H945   H     0.80655   0.51733   0.58886   0.00000  Uiso   1.00
H946   H     0.71866   0.52066   0.91315   0.00000  Uiso   1.00
H947   H     0.74919   0.51335   0.55693   0.00000  Uiso   1.00
H948   H     0.69329   0.52751   0.50787   0.00000  Uiso   1.00
H949   H     0.87426   0.44891   0.87428   0.00000  Uiso   1.00
H950   H     0.90910   0.63018   0.70561   0.00000  Uiso   1.00
H951   H     0.69706   0.43914   0.88089   0.00000  Uiso   1.00
H952   H     0.67521   0.39060   0.91316   0.00000  Uiso   1.00
H953   H     0.71443   0.42369   0.93737   0.00000  Uiso   1.00
H954   H     0.76226   0.36529   0.88895   0.00000  Uiso   1.00
H955   H     0.90764   0.37187   0.70677   0.00000  Uiso   1.00
H956   H     0.78310   0.41322   0.85625   0.00000  Uiso   1.00
H957   H     0.72845   0.39740   0.79657   0.00000  Uiso   1.00
H958   H     0.71257   0.35031   0.82996   0.00000  Uiso   1.00
H959   H     0.75787   0.62608   0.79972   0.00000  Uiso   1.00
H960   H     0.93943   0.54343   0.81153   0.00000  Uiso   1.00
H961   H     0.69312   0.54330   0.81161   0.00000  Uiso   1.00
H962   H     0.72719   0.45641   0.68864   0.00000  Uiso   1.00
H963   H     0.97349   0.45649   0.68861   0.00000  Uiso   1.00
H964   H     0.93452   0.43946   0.91898   0.00000  Uiso   1.00
H965   H     0.96330   0.44998   0.99486   0.00000  Uiso   1.00
N966   N     0.71598   0.49999   0.74998   0.00000  Uiso   1.00
N967   N     0.95069   0.50002   0.74999   0.00000  Uiso   1.00
O968   O     0.79375   0.56011   0.75000   0.00000  Uiso   1.00
O969   O     0.87294   0.56012   0.75000   0.00000  Uiso   1.00
O970   O     0.77441   0.49998   0.82549   0.00000  Uiso   1.00
O971   O     0.85360   0.49999   0.82549   0.00000  Uiso   1.00
O972   O     0.79373   0.43988   0.74999   0.00000  Uiso   1.00
O973   O     0.87292   0.43989   0.74999   0.00000  Uiso   1.00
O974   O     0.81306   0.50001   0.67451   0.00000  Uiso   1.00
O975   O     0.89225   0.50002   0.67451   0.00000  Uiso   1.00
C976   C     0.16675   0.91256   0.75013   0.00000  Uiso   1.00
C977   C     0.12439   0.83025   0.90745   0.00000  Uiso   1.00
C978   C     0.20892   0.97916   0.72675   0.00000  Uiso   1.00
C979   C     0.14044   0.83157   0.85009   0.00000  Uiso   1.00
C980   C     0.20801   0.68845   0.72767   0.00000  Uiso   1.00
C981   C     0.16485   0.70929   0.75434   0.00000  Uiso   1.00
C982   C     0.12208   0.68687   0.78200   0.00000  Uiso   1.00
C983   C     0.12335   0.97730   0.77908   0.00000  Uiso   1.00
C984   C     0.16638   0.95702   0.75167   0.00000  Uiso   1.00
C985   C     0.29904   0.85742   0.78419   0.00000  Uiso   1.00
C986   C     0.01532   0.85736   0.78423   0.00000  Uiso   1.00
C987   C     0.14416   0.82745   0.98990   0.00000  Uiso   1.00
C988   C     0.03426   0.80916   0.71590   0.00000  Uiso   1.00
C989   C     0.31797   0.80918   0.71590   0.00000  Uiso   1.00
C990   C     0.16588   0.75404   0.75198   0.00000  Uiso   1.00
C991   C     0.19287   0.83267   0.64999   0.00000  Uiso   1.00
C992   C     0.26184   0.79759   0.51484   0.00000  Uiso   1.00
C993   C     0.20754   0.82702   0.59349   0.00000  Uiso   1.00
C994   C     0.07749   0.84518   0.93402   0.00000  Uiso   1.00
C995   C     0.06315   0.84983   0.98772   0.00000  Uiso   1.00
C996   C     0.09618   0.84197   0.51543   0.00000  Uiso   1.00
C997   C     0.07606   0.70678   0.81747   0.00000  Uiso   1.00
C998   C     0.15641   0.81783   0.93608   0.00000  Uiso   1.00
C999   C     0.08549   0.72420   0.86671   0.00000  Uiso   1.00
C1000  C     0.04010   0.74574   0.90158   0.00000  Uiso   1.00
C1001  C     0.18027   0.82180   0.51604   0.00000  Uiso   1.00
C1002  C     0.22577   0.80301   0.98963   0.00000  Uiso   1.00
C1003  C     0.23433   0.78897   0.93878   0.00000  Uiso   1.00
C1004  C     0.19993   0.79567   0.91264   0.00000  Uiso   1.00
C1005  C     0.17279   0.83474   0.56756   0.00000  Uiso   1.00
C1006  C     0.25267   0.80934   0.56669   0.00000  Uiso   1.00
Cu1007 Cu    0.11978   0.83333   0.75000   0.00000  Uiso   1.00
Cu1008 Cu    0.21355   0.83334   0.75000   0.00000  Uiso   1.00
H1009  H     0.27996   0.80312   0.58631   0.00000  Uiso   1.00
H1010  H     0.13988   0.85066   0.58886   0.00000  Uiso   1.00
H1011  H     0.05199   0.85400   0.91315   0.00000  Uiso   1.00
H1012  H     0.08253   0.84668   0.55693   0.00000  Uiso   1.00
H1013  H     0.02663   0.86084   0.50787   0.00000  Uiso   1.00
H1014  H     0.20759   0.78224   0.87428   0.00000  Uiso   1.00
H1015  H     0.24243   0.96351   0.70561   0.00000  Uiso   1.00
H1016  H     0.03040   0.77248   0.88089   0.00000  Uiso   1.00
H1017  H     0.00854   0.72394   0.91316   0.00000  Uiso   1.00
H1018  H     0.04777   0.75703   0.93737   0.00000  Uiso   1.00
H1019  H     0.09559   0.69862   0.88895   0.00000  Uiso   1.00
H1020  H     0.24097   0.70520   0.70677   0.00000  Uiso   1.00
H1021  H     0.11644   0.74655   0.85625   0.00000  Uiso   1.00
H1022  H     0.06179   0.73073   0.79657   0.00000  Uiso   1.00
H1023  H     0.04590   0.68364   0.82996   0.00000  Uiso   1.00
H1024  H     0.09120   0.95941   0.79972   0.00000  Uiso   1.00
H1025  H     0.27277   0.87677   0.81153   0.00000  Uiso   1.00
H1026  H     0.02645   0.87663   0.81161   0.00000  Uiso   1.00
H1027  H     0.06052   0.78974   0.68864   0.00000  Uiso   1.00
H1028  H     0.30682   0.78983   0.68861   0.00000  Uiso   1.00
H1029  H     0.26786   0.77279   0.91898   0.00000  Uiso   1.00
H1030  H     0.29663   0.78331   0.99486   0.00000  Uiso   1.00
N1031  N     0.04931   0.83332   0.74998   0.00000  Uiso   1.00
N1032  N     0.28402   0.83335   0.74999   0.00000  Uiso   1.00
O1033  O     0.12708   0.89345   0.75000   0.00000  Uiso   1.00
O1034  O     0.20627   0.89346   0.75000   0.00000  Uiso   1.00
O1035  O     0.10775   0.83332   0.82549   0.00000  Uiso   1.00
O1036  O     0.18694   0.83333   0.82549   0.00000  Uiso   1.00
O1037  O     0.12706   0.77321   0.74999   0.00000  Uiso   1.00
O1038  O     0.20625   0.77322   0.74999   0.00000  Uiso   1.00
O1039  O     0.14640   0.83334   0.67451   0.00000  Uiso   1.00
O1040  O     0.22559   0.83335   0.67451   0.00000  Uiso   1.00
C1041  C     0.50008   0.91256   0.75013   0.00000  Uiso   1.00
C1042  C     0.45772   0.83025   0.90745   0.00000  Uiso   1.00
C1043  C     0.54225   0.97916   0.72675   0.00000  Uiso   1.00
C1044  C     0.47377   0.83157   0.85009   0.00000  Uiso   1.00
C1045  C     0.54135   0.68845   0.72767   0.00000  Uiso   1.00
C1046  C     0.49819   0.70929   0.75434   0.00000  Uiso   1.00
C1047  C     0.45542   0.68687   0.78200   0.00000  Uiso   1.00
C1048  C     0.45668   0.97730   0.77908   0.00000  Uiso   1.00
C1049  C     0.49971   0.95702   0.75167   0.00000  Uiso   1.00
C1050  C     0.63238   0.85742   0.78419   0.00000  Uiso   1.00
C1051  C     0.34865   0.85736   0.78423   0.00000  Uiso   1.00
C1052  C     0.47749   0.82745   0.98990   0.00000  Uiso   1.00
C1053  C     0.36760   0.80916   0.71590   0.00000  Uiso   1.00
C1054  C     0.65131   0.80918   0.71590   0.00000  Uiso   1.00
C1055  C     0.49922   0.75404   0.75198   0.00000  Uiso   1.00
C1056  C     0.52620   0.83267   0.64999   0.00000  Uiso   1.00
C1057  C     0.59518   0.79759   0.51484   0.00000  Uiso   1.00
C1058  C     0.54087   0.82702   0.59349   0.00000  Uiso   1.00
C1059  C     0.41083   0.84518   0.93402   0.00000  Uiso   1.00
C1060  C     0.39649   0.84983   0.98772   0.00000  Uiso   1.00
C1061  C     0.42951   0.84197   0.51543   0.00000  Uiso   1.00
C1062  C     0.40940   0.70678   0.81747   0.00000  Uiso   1.00
C1063  C     0.48974   0.81783   0.93608   0.00000  Uiso   1.00
C1064  C     0.41882   0.72420   0.86671   0.00000  Uiso   1.00
C1065  C     0.37343   0.74574   0.90158   0.00000  Uiso   1.00
C1066  C     0.51360   0.82180   0.51604   0.00000  Uiso   1.00
C1067  C     0.55910   0.80301   0.98963   0.00000  Uiso   1.00
C1068  C     0.56767   0.78897   0.93878   0.00000  Uiso   1.00
C1069  C     0.53326   0.79567   0.91264   0.00000  Uiso   1.00
C1070  C     0.50613   0.83474   0.56756   0.00000  Uiso   1.00
C1071  C     0.58601   0.80934   0.56669   0.00000  Uiso   1.00
Cu1072 Cu    0.45311   0.83333   0.75000   0.00000  Uiso   1.00
Cu1073 Cu    0.54689   0.83334   0.75000   0.00000  Uiso   1.00
H1074  H     0.61329   0.80312   0.58631   0.00000  Uiso   1.00
H1075  H     0.47321   0.85066   0.58886   0.00000  Uiso   1.00
H1076  H     0.38533   0.85400   0.91315   0.00000  Uiso   1.00
H1077  H     0.41586   0.84668   0.55693   0.00000  Uiso   1.00
H1078  H     0.35996   0.86084   0.50787   0.00000  Uiso   1.00
H1079  H     0.54093   0.78224   0.87428   0.00000  Uiso   1.00
H1080  H     0.57577   0.96351   0.70561   0.00000  Uiso   1.00
H1081  H     0.36373   0.77248   0.88089   0.00000  Uiso   1.00
H1082  H     0.34187   0.72394   0.91316   0.00000  Uiso   1.00
H1083  H     0.38110   0.75703   0.93737   0.00000  Uiso   1.00
H1084  H     0.42893   0.69862   0.88895   0.00000  Uiso   1.00
H1085  H     0.57431   0.70520   0.70677   0.00000  Uiso   1.00
H1086  H     0.44977   0.74655   0.85625   0.00000  Uiso   1.00
H1087  H     0.39512   0.73073   0.79657   0.00000  Uiso   1.00
H1088  H     0.37924   0.68364   0.82996   0.00000  Uiso   1.00
H1089  H     0.42454   0.95941   0.79972   0.00000  Uiso   1.00
H1090  H     0.60610   0.87677   0.81153   0.00000  Uiso   1.00
H1091  H     0.35979   0.87663   0.81161   0.00000  Uiso   1.00
H1092  H     0.39386   0.78974   0.68864   0.00000  Uiso   1.00
H1093  H     0.64015   0.78983   0.68861   0.00000  Uiso   1.00
H1094  H     0.60119   0.77279   0.91898   0.00000  Uiso   1.00
H1095  H     0.62996   0.78331   0.99486   0.00000  Uiso   1.00
N1096  N     0.38265   0.83332   0.74998   0.00000  Uiso   1.00
N1097  N     0.61735   0.83335   0.74999   0.00000  Uiso   1.00
O1098  O     0.46042   0.89345   0.75000   0.00000  Uiso   1.00
O1099  O     0.53961   0.89346   0.75000   0.00000  Uiso   1.00
O1100  O     0.44108   0.83332   0.82549   0.00000  Uiso   1.00
O1101  O     0.52027   0.83333   0.82549   0.00000  Uiso   1.00
O1102  O     0.46039   0.77321   0.74999   0.00000  Uiso   1.00
O1103  O     0.53958   0.77322   0.74999   0.00000  Uiso   1.00
O1104  O     0.47973   0.83334   0.67451   0.00000  Uiso   1.00
O1105  O     0.55892   0.83335   0.67451   0.00000  Uiso   1.00
C1106  C     0.83341   0.91256   0.75013   0.00000  Uiso   1.00
C1107  C     0.79105   0.83025   0.90745   0.00000  Uiso   1.00
C1108  C     0.87558   0.97916   0.72675   0.00000  Uiso   1.00
C1109  C     0.80710   0.83157   0.85009   0.00000  Uiso   1.00
C1110  C     0.87468   0.68845   0.72767   0.00000  Uiso   1.00
C1111  C     0.83152   0.70929   0.75434   0.00000  Uiso   1.00
C1112  C     0.78875   0.68687   0.78200   0.00000  Uiso   1.00
C1113  C     0.79001   0.97730   0.77908   0.00000  Uiso   1.00
C1114  C     0.83304   0.95702   0.75167   0.00000  Uiso   1.00
C1115  C     0.96571   0.85742   0.78419   0.00000  Uiso   1.00
C1116  C     0.68199   0.85736   0.78423   0.00000  Uiso   1.00
C1117  C     0.81083   0.82745   0.98990   0.00000  Uiso   1.00
C1118  C     0.70093   0.80916   0.71590   0.00000  Uiso   1.00
C1119  C     0.98464   0.80918   0.71590   0.00000  Uiso   1.00
C1120  C     0.83255   0.75404   0.75198   0.00000  Uiso   1.00
C1121  C     0.85953   0.83267   0.64999   0.00000  Uiso   1.00
C1122  C     0.92851   0.79759   0.51484   0.00000  Uiso   1.00
C1123  C     0.87421   0.82702   0.59349   0.00000  Uiso   1.00
C1124  C     0.74416   0.84518   0.93402   0.00000  Uiso   1.00
C1125  C     0.72982   0.84983   0.98772   0.00000  Uiso   1.00
C1126  C     0.76284   0.84197   0.51543   0.00000  Uiso   1.00
C1127  C     0.74273   0.70678   0.81747   0.00000  Uiso   1.00
C1128  C     0.82307   0.81783   0.93608   0.00000  Uiso   1.00
C1129  C     0.75216   0.72420   0.86671   0.00000  Uiso   1.00
C1130  C     0.70677   0.74574   0.90158   0.00000  Uiso   1.00
C1131  C     0.84693   0.82180   0.51604   0.00000  Uiso   1.00
C1132  C     0.89244   0.80301   0.98963   0.00000  Uiso   1.00
C1133  C     0.90100   0.78897   0.93878   0.00000  Uiso   1.00
C1134  C     0.86659   0.79567   0.91264   0.00000  Uiso   1.00
C1135  C     0.83946   0.83474   0.56756   0.00000  Uiso   1.00
C1136  C     0.91934   0.80934   0.56669   0.00000  Uiso   1.00
Cu1137 Cu    0.78645   0.83333   0.75000   0.00000  Uiso   1.00
Cu1138 Cu    0.88022   0.83334   0.75000   0.00000  Uiso   1.00
H1139  H     0.94662   0.80312   0.58631   0.00000  Uiso   1.00
H1140  H     0.80655   0.85066   0.58886   0.00000  Uiso   1.00
H1141  H     0.71866   0.85400   0.91315   0.00000  Uiso   1.00
H1142  H     0.74919   0.84668   0.55693   0.00000  Uiso   1.00
H1143  H     0.69329   0.86084   0.50787   0.00000  Uiso   1.00
H1144  H     0.87426   0.78224   0.87428   0.00000  Uiso   1.00
H1145  H     0.90910   0.96351   0.70561   0.00000  Uiso   1.00
H1146  H     0.69706   0.77248   0.88089   0.00000  Uiso   1.00
H1147  H     0.67521   0.72394   0.91316   0.00000  Uiso   1.00
H1148  H     0.71443   0.75703   0.93737   0.00000  Uiso   1.00
H1149  H     0.76226   0.69862   0.88895   0.00000  Uiso   1.00
H1150  H     0.90764   0.70520   0.70677   0.00000  Uiso   1.00
H1151  H     0.78310   0.74655   0.85625   0.00000  Uiso   1.00
H1152  H     0.72845   0.73073   0.79657   0.00000  Uiso   1.00
H1153  H     0.71257   0.68364   0.82996   0.00000  Uiso   1.00
H1154  H     0.75787   0.95941   0.79972   0.00000  Uiso   1.00
H1155  H     0.93943   0.87677   0.81153   0.00000  Uiso   1.00
H1156  H     0.69312   0.87663   0.81161   0.00000  Uiso   1.00
H1157  H     0.72719   0.78974   0.68864   0.00000  Uiso   1.00
H1158  H     0.97349   0.78983   0.68861   0.00000  Uiso   1.00
H1159  H     0.93452   0.77279   0.91898   0.00000  Uiso   1.00
H1160  H     0.96330   0.78331   0.99486   0.00000  Uiso   1.00
N1161  N     0.71598   0.83332   0.74998   0.00000  Uiso   1.00
N1162  N     0.95069   0.83335   0.74999   0.00000  Uiso   1.00
O1163  O     0.79375   0.89345   0.75000   0.00000  Uiso   1.00
O1164  O     0.87294   0.89346   0.75000   0.00000  Uiso   1.00
O1165  O     0.77441   0.83332   0.82549   0.00000  Uiso   1.00
O1166  O     0.85360   0.83333   0.82549   0.00000  Uiso   1.00
O1167  O     0.79373   0.77321   0.74999   0.00000  Uiso   1.00
O1168  O     0.87292   0.77322   0.74999   0.00000  Uiso   1.00
O1169  O     0.81306   0.83334   0.67451   0.00000  Uiso   1.00
O1170  O     0.89225   0.83335   0.67451   0.00000  Uiso   1.00
loop_
_geom_bond_atom_site_label_1
_geom_bond_atom_site_label_2
_geom_bond_distance
_geom_bond_site_symmetry_2
_ccdc_geom_bond_type
C1     O59     1.289   .     A
C1     C9      1.442   .     S
C1     O58     1.289   .     A
C2     C4      1.472   .     S
C2     C19     1.403   .     A
C2     C23     1.420   .     A
C3     C9      1.394   .     A
C3     H40     1.084   .     S
C3     C200    1.382   .     S
C4     O61     1.294   .     A
C4     O60     1.297   .     A
C5     C6      1.402   .     A
C5     H45     1.084   .     S
C5     C393    1.382   1_545 S
C6     C7      1.421   .     A
C6     C15     1.452   .     S
C7     C22     1.519   .     S
C7     C398    1.394   1_545 S
C8     H49     1.085   .     S
C8     C9      1.396   .     A
C8     C202    1.394   .     S
C10    N57     1.367   .     A
C10    H50     1.082   .     S
C10    C76     1.416   .     S
C11    H51     1.082   .     S
C11    N56     1.367   .     A
C11    C140    1.416   1_455 S
C12    C23     1.418   .     A
C12    C606    1.418   .     S
C12    C611    1.423   .     S
C13    N56     1.367   .     A
C13    H52     1.082   .     S
C13    C144    1.416   1_455 S
C14    H53     1.082   .     S
C14    N57     1.367   .     A
C14    C78     1.416   .     S
C15    O62     1.288   .     A
C15    O63     1.293   .     A
C16    O65     1.295   .     A
C16    C18     1.462   .     S
C16    O64     1.292   .     A
C17    C31     1.393   .     A
C17    C612    1.404   1_554 S
C17    H640    1.083   1_554 S
C18    C30     1.396   .     A
C18    C31     1.399   .     A
C19    C20     1.386   .     A
C19    H36     1.083   .     S
C20    C606    1.390   .     S
C20    H623    1.083   .     S
C21    H37     1.077   .     S
C21    C605    1.390   1_554 S
C21    C597    1.418   1_554 S
C22    H48     1.113   .     S
C22    H47     1.108   .     S
C22    C24     1.534   .     S
C23    C29     1.413   .     A
C24    H44     1.112   .     S
C24    H46     1.109   .     S
C24    C25     1.525   .     S
C25    H42     1.111   .     S
C25    H43     1.110   .     S
C25    H41     1.111   .     S
C26    C30     1.401   .     A
C26    C597    1.423   1_554 S
C26    C612    1.420   1_554 S
C27    C28     1.392   .     A
C27    C602    1.404   .     S
C27    C611    1.420   .     S
C28    C29     1.386   .     A
C28    H54     1.083   .     S
C29    H39     1.080   .     S
C30    H35     1.077   .     S
C31    H34     1.083   .     S
Cu32   O58     1.960   .     S
Cu32   Cu33    2.676   .     S
Cu32   O62     1.962   .     S
Cu32   O60     1.955   .     S
Cu32   O64     1.943   .     S
Cu32   N56     2.011   .     S
Cu33   N57     2.011   .     S
Cu33   O63     1.960   .     S
Cu33   O59     1.962   .     S
Cu33   O61     1.943   .     S
Cu33   O65     1.955   .     S
H38    C605    1.083   1_554 S
H55    C602    1.083   .     S
C66    O124    1.289   .     A
C66    C74     1.442   .     S
C66    O123    1.289   .     A
C67    C69     1.472   .     S
C67    C84     1.403   .     A
C67    C88     1.420   .     A
C68    C74     1.394   .     A
C68    H105    1.084   .     S
C68    C265    1.382   .     S
C69    O126    1.294   .     A
C69    O125    1.297   .     A
C70    C71     1.402   .     A
C70    H110    1.084   .     S
C70    C458    1.382   1_545 S
C71    C72     1.421   .     A
C71    C80     1.452   .     S
C72    C87     1.519   .     S
C72    C463    1.394   1_545 S
C73    H114    1.085   .     S
C73    C74     1.396   .     A
C73    C267    1.394   .     S
C75    N122    1.367   .     A
C75    H115    1.082   .     S
C75    C141    1.416   .     S
C76    H116    1.082   .     S
C76    N121    1.367   .     A
C77    C88     1.418   .     A
C77    C671    1.418   .     S
C77    C676    1.423   .     S
C78    N121    1.367   .     A
C78    H117    1.082   .     S
C79    H118    1.082   .     S
C79    N122    1.367   .     A
C79    C143    1.416   .     S
C80    O127    1.288   .     A
C80    O128    1.293   .     A
C81    O130    1.295   .     A
C81    C83     1.462   .     S
C81    O129    1.292   .     A
C82    C96     1.393   .     A
C82    C677    1.404   1_554 S
C82    H705    1.083   1_554 S
C83    C95     1.396   .     A
C83    C96     1.399   .     A
C84    C85     1.386   .     A
C84    H101    1.083   .     S
C85    C671    1.390   .     S
C85    H688    1.083   .     S
C86    H102    1.077   .     S
C86    C670    1.390   1_554 S
C86    C662    1.418   1_554 S
C87    H113    1.113   .     S
C87    H112    1.108   .     S
C87    C89     1.534   .     S
C88    C94     1.413   .     A
C89    H109    1.112   .     S
C89    H111    1.109   .     S
C89    C90     1.525   .     S
C90    H107    1.111   .     S
C90    H108    1.110   .     S
C90    H106    1.111   .     S
C91    C95     1.401   .     A
C91    C662    1.423   1_554 S
C91    C677    1.420   1_554 S
C92    C93     1.392   .     A
C92    C667    1.404   .     S
C92    C676    1.420   .     S
C93    C94     1.386   .     A
C93    H119    1.083   .     S
C94    H104    1.080   .     S
C95    H100    1.077   .     S
C96    H99     1.083   .     S
Cu97   O123    1.960   .     S
Cu97   Cu98    2.676   .     S
Cu97   O127    1.962   .     S
Cu97   O125    1.955   .     S
Cu97   O129    1.943   .     S
Cu97   N121    2.011   .     S
Cu98   N122    2.011   .     S
Cu98   O128    1.960   .     S
Cu98   O124    1.962   .     S
Cu98   O126    1.943   .     S
Cu98   O130    1.955   .     S
H103   C670    1.083   1_554 S
H120   C667    1.083   .     S
C131   O189    1.289   .     A
C131   C139    1.442   .     S
C131   O188    1.289   .     A
C132   C134    1.472   .     S
C132   C149    1.403   .     A
C132   C153    1.420   .     A
C133   C139    1.394   .     A
C133   H170    1.084   .     S
C133   C330    1.382   .     S
C134   O191    1.294   .     A
C134   O190    1.297   .     A
C135   C136    1.402   .     A
C135   H175    1.084   .     S
C135   C523    1.382   1_545 S
C136   C137    1.421   .     A
C136   C145    1.452   .     S
C137   C152    1.519   .     S
C137   C528    1.394   1_545 S
C138   H179    1.085   .     S
C138   C139    1.396   .     A
C138   C332    1.394   .     S
C140   N187    1.367   .     A
C140   H180    1.082   .     S
C140   C11     1.416   1_655 S
C141   H181    1.082   .     S
C141   N186    1.367   .     A
C142   C153    1.418   .     A
C142   C736    1.418   .     S
C142   C741    1.423   .     S
C143   N186    1.367   .     A
C143   H182    1.082   .     S
C144   H183    1.082   .     S
C144   N187    1.367   .     A
C144   C13     1.416   1_655 S
C145   O192    1.288   .     A
C145   O193    1.293   .     A
C146   O195    1.295   .     A
C146   C148    1.462   .     S
C146   O194    1.292   .     A
C147   C161    1.393   .     A
C147   C742    1.404   1_554 S
C147   H770    1.083   1_554 S
C148   C160    1.396   .     A
C148   C161    1.399   .     A
C149   C150    1.386   .     A
C149   H166    1.083   .     S
C150   C736    1.390   .     S
C150   H753    1.083   .     S
C151   H167    1.077   .     S
C151   C735    1.390   1_554 S
C151   C727    1.418   1_554 S
C152   H178    1.113   .     S
C152   H177    1.108   .     S
C152   C154    1.534   .     S
C153   C159    1.413   .     A
C154   H174    1.112   .     S
C154   H176    1.109   .     S
C154   C155    1.525   .     S
C155   H172    1.111   .     S
C155   H173    1.110   .     S
C155   H171    1.111   .     S
C156   C160    1.401   .     A
C156   C727    1.423   1_554 S
C156   C742    1.420   1_554 S
C157   C158    1.392   .     A
C157   C732    1.404   .     S
C157   C741    1.420   .     S
C158   C159    1.386   .     A
C158   H184    1.083   .     S
C159   H169    1.080   .     S
C160   H165    1.077   .     S
C161   H164    1.083   .     S
Cu162  O188    1.960   .     S
Cu162  Cu163   2.676   .     S
Cu162  O192    1.962   .     S
Cu162  O190    1.955   .     S
Cu162  O194    1.943   .     S
Cu162  N186    2.011   .     S
Cu163  N187    2.011   .     S
Cu163  O193    1.960   .     S
Cu163  O189    1.962   .     S
Cu163  O191    1.943   .     S
Cu163  O195    1.955   .     S
H168   C735    1.083   1_554 S
H185   C732    1.083   .     S
C196   O254    1.289   .     A
C196   C204    1.442   .     S
C196   O253    1.289   .     A
C197   C199    1.472   .     S
C197   C214    1.403   .     A
C197   C218    1.420   .     A
C198   C204    1.394   .     A
C198   H235    1.084   .     S
C198   C395    1.382   .     S
C199   O256    1.294   .     A
C199   O255    1.297   .     A
C200   C201    1.402   .     A
C200   H240    1.084   .     S
C201   C202    1.421   .     A
C201   C210    1.452   .     S
C202   C217    1.519   .     S
C203   H244    1.085   .     S
C203   C204    1.396   .     A
C203   C397    1.394   .     S
C205   N252    1.367   .     A
C205   H245    1.082   .     S
C205   C271    1.416   .     S
C206   H246    1.082   .     S
C206   N251    1.367   .     A
C206   C335    1.416   1_455 S
C207   C218    1.418   .     A
C207   C801    1.418   .     S
C207   C806    1.423   .     S
C208   N251    1.367   .     A
C208   H247    1.082   .     S
C208   C339    1.416   1_455 S
C209   H248    1.082   .     S
C209   N252    1.367   .     A
C209   C273    1.416   .     S
C210   O257    1.288   .     A
C210   O258    1.293   .     A
C211   O260    1.295   .     A
C211   C213    1.462   .     S
C211   O259    1.292   .     A
C212   C226    1.393   .     A
C212   C807    1.404   1_554 S
C212   H835    1.083   1_554 S
C213   C225    1.396   .     A
C213   C226    1.399   .     A
C214   C215    1.386   .     A
C214   H231    1.083   .     S
C215   C801    1.390   .     S
C215   H818    1.083   .     S
C216   H232    1.077   .     S
C216   C800    1.390   1_554 S
C216   C792    1.418   1_554 S
C217   H243    1.113   .     S
C217   H242    1.108   .     S
C217   C219    1.534   .     S
C218   C224    1.413   .     A
C219   H239    1.112   .     S
C219   H241    1.109   .     S
C219   C220    1.525   .     S
C220   H237    1.111   .     S
C220   H238    1.110   .     S
C220   H236    1.111   .     S
C221   C225    1.401   .     A
C221   C792    1.423   1_554 S
C221   C807    1.420   1_554 S
C222   C223    1.392   .     A
C222   C797    1.404   .     S
C222   C806    1.420   .     S
C223   C224    1.386   .     A
C223   H249    1.083   .     S
C224   H234    1.080   .     S
C225   H230    1.077   .     S
C226   H229    1.083   .     S
Cu227  O253    1.960   .     S
Cu227  Cu228   2.676   .     S
Cu227  O257    1.962   .     S
Cu227  O255    1.955   .     S
Cu227  O259    1.943   .     S
Cu227  N251    2.011   .     S
Cu228  N252    2.011   .     S
Cu228  O258    1.960   .     S
Cu228  O254    1.962   .     S
Cu228  O256    1.943   .     S
Cu228  O260    1.955   .     S
H233   C800    1.083   1_554 S
H250   C797    1.083   .     S
C261   O319    1.289   .     A
C261   C269    1.442   .     S
C261   O318    1.289   .     A
C262   C264    1.472   .     S
C262   C279    1.403   .     A
C262   C283    1.420   .     A
C263   C269    1.394   .     A
C263   H300    1.084   .     S
C263   C460    1.382   .     S
C264   O321    1.294   .     A
C264   O320    1.297   .     A
C265   C266    1.402   .     A
C265   H305    1.084   .     S
C266   C267    1.421   .     A
C266   C275    1.452   .     S
C267   C282    1.519   .     S
C268   H309    1.085   .     S
C268   C269    1.396   .     A
C268   C462    1.394   .     S
C270   N317    1.367   .     A
C270   H310    1.082   .     S
C270   C336    1.416   .     S
C271   H311    1.082   .     S
C271   N316    1.367   .     A
C272   C283    1.418   .     A
C272   C866    1.418   .     S
C272   C871    1.423   .     S
C273   N316    1.367   .     A
C273   H312    1.082   .     S
C274   H313    1.082   .     S
C274   N317    1.367   .     A
C274   C338    1.416   .     S
C275   O322    1.288   .     A
C275   O323    1.293   .     A
C276   O325    1.295   .     A
C276   C278    1.462   .     S
C276   O324    1.292   .     A
C277   C291    1.393   .     A
C277   C872    1.404   1_554 S
C277   H900    1.083   1_554 S
C278   C290    1.396   .     A
C278   C291    1.399   .     A
C279   C280    1.386   .     A
C279   H296    1.083   .     S
C280   C866    1.390   .     S
C280   H883    1.083   .     S
C281   H297    1.077   .     S
C281   C865    1.390   1_554 S
C281   C857    1.418   1_554 S
C282   H308    1.113   .     S
C282   H307    1.108   .     S
C282   C284    1.534   .     S
C283   C289    1.413   .     A
C284   H304    1.112   .     S
C284   H306    1.109   .     S
C284   C285    1.525   .     S
C285   H302    1.111   .     S
C285   H303    1.110   .     S
C285   H301    1.111   .     S
C286   C290    1.401   .     A
C286   C857    1.423   1_554 S
C286   C872    1.420   1_554 S
C287   C288    1.392   .     A
C287   C862    1.404   .     S
C287   C871    1.420   .     S
C288   C289    1.386   .     A
C288   H314    1.083   .     S
C289   H299    1.080   .     S
C290   H295    1.077   .     S
C291   H294    1.083   .     S
Cu292  O318    1.960   .     S
Cu292  Cu293   2.676   .     S
Cu292  O322    1.962   .     S
Cu292  O320    1.955   .     S
Cu292  O324    1.943   .     S
Cu292  N316    2.011   .     S
Cu293  N317    2.011   .     S
Cu293  O323    1.960   .     S
Cu293  O319    1.962   .     S
Cu293  O321    1.943   .     S
Cu293  O325    1.955   .     S
H298   C865    1.083   1_554 S
H315   C862    1.083   .     S
C326   O384    1.289   .     A
C326   C334    1.442   .     S
C326   O383    1.289   .     A
C327   C329    1.472   .     S
C327   C344    1.403   .     A
C327   C348    1.420   .     A
C328   C334    1.394   .     A
C328   H365    1.084   .     S
C328   C525    1.382   .     S
C329   O386    1.294   .     A
C329   O385    1.297   .     A
C330   C331    1.402   .     A
C330   H370    1.084   .     S
C331   C332    1.421   .     A
C331   C340    1.452   .     S
C332   C347    1.519   .     S
C333   H374    1.085   .     S
C333   C334    1.396   .     A
C333   C527    1.394   .     S
C335   N382    1.367   .     A
C335   H375    1.082   .     S
C335   C206    1.416   1_655 S
C336   H376    1.082   .     S
C336   N381    1.367   .     A
C337   C348    1.418   .     A
C337   C931    1.418   .     S
C337   C936    1.423   .     S
C338   N381    1.367   .     A
C338   H377    1.082   .     S
C339   H378    1.082   .     S
C339   N382    1.367   .     A
C339   C208    1.416   1_655 S
C340   O387    1.288   .     A
C340   O388    1.293   .     A
C341   O390    1.295   .     A
C341   C343    1.462   .     S
C341   O389    1.292   .     A
C342   C356    1.393   .     A
C342   C937    1.404   1_554 S
C342   H965    1.083   1_554 S
C343   C355    1.396   .     A
C343   C356    1.399   .     A
C344   C345    1.386   .     A
C344   H361    1.083   .     S
C345   C931    1.390   .     S
C345   H948    1.083   .     S
C346   H362    1.077   .     S
C346   C930    1.390   1_554 S
C346   C922    1.418   1_554 S
C347   H373    1.113   .     S
C347   H372    1.108   .     S
C347   C349    1.534   .     S
C348   C354    1.413   .     A
C349   H369    1.112   .     S
C349   H371    1.109   .     S
C349   C350    1.525   .     S
C350   H367    1.111   .     S
C350   H368    1.110   .     S
C350   H366    1.111   .     S
C351   C355    1.401   .     A
C351   C922    1.423   1_554 S
C351   C937    1.420   1_554 S
C352   C353    1.392   .     A
C352   C927    1.404   .     S
C352   C936    1.420   .     S
C353   C354    1.386   .     A
C353   H379    1.083   .     S
C354   H364    1.080   .     S
C355   H360    1.077   .     S
C356   H359    1.083   .     S
Cu357  O383    1.960   .     S
Cu357  Cu358   2.676   .     S
Cu357  O387    1.962   .     S
Cu357  O385    1.955   .     S
Cu357  O389    1.943   .     S
Cu357  N381    2.011   .     S
Cu358  N382    2.011   .     S
Cu358  O388    1.960   .     S
Cu358  O384    1.962   .     S
Cu358  O386    1.943   .     S
Cu358  O390    1.955   .     S
H363   C930    1.083   1_554 S
H380   C927    1.083   .     S
C391   O449    1.289   .     A
C391   C399    1.442   .     S
C391   O448    1.289   .     A
C392   C394    1.472   .     S
C392   C409    1.403   .     A
C392   C413    1.420   .     A
C393   C399    1.394   .     A
C393   H430    1.084   .     S
C393   C5      1.382   1_565 S
C394   O451    1.294   .     A
C394   O450    1.297   .     A
C395   C396    1.402   .     A
C395   H435    1.084   .     S
C396   C397    1.421   .     A
C396   C405    1.452   .     S
C397   C412    1.519   .     S
C398   H439    1.085   .     S
C398   C399    1.396   .     A
C398   C7      1.394   1_565 S
C400   N447    1.367   .     A
C400   H440    1.082   .     S
C400   C466    1.416   .     S
C401   H441    1.082   .     S
C401   N446    1.367   .     A
C401   C530    1.416   1_455 S
C402   C413    1.418   .     A
C402   C996    1.418   .     S
C402   C1001   1.423   .     S
C403   N446    1.367   .     A
C403   H442    1.082   .     S
C403   C534    1.416   1_455 S
C404   H443    1.082   .     S
C404   N447    1.367   .     A
C404   C468    1.416   .     S
C405   O452    1.288   .     A
C405   O453    1.293   .     A
C406   O455    1.295   .     A
C406   C408    1.462   .     S
C406   O454    1.292   .     A
C407   C421    1.393   .     A
C407   C1002   1.404   1_554 S
C407   H1030   1.083   1_554 S
C408   C420    1.396   .     A
C408   C421    1.399   .     A
C409   C410    1.386   .     A
C409   H426    1.083   .     S
C410   C996    1.390   .     S
C410   H1013   1.083   .     S
C411   H427    1.077   .     S
C411   C995    1.390   1_554 S
C411   C987    1.418   1_554 S
C412   H438    1.113   .     S
C412   H437    1.108   .     S
C412   C414    1.534   .     S
C413   C419    1.413   .     A
C414   H434    1.112   .     S
C414   H436    1.109   .     S
C414   C415    1.525   .     S
C415   H432    1.111   .     S
C415   H433    1.110   .     S
C415   H431    1.111   .     S
C416   C420    1.401   .     A
C416   C987    1.423   1_554 S
C416   C1002   1.420   1_554 S
C417   C418    1.392   .     A
C417   C992    1.404   .     S
C417   C1001   1.420   .     S
C418   C419    1.386   .     A
C418   H444    1.083   .     S
C419   H429    1.080   .     S
C420   H425    1.077   .     S
C421   H424    1.083   .     S
Cu422  O448    1.960   .     S
Cu422  Cu423   2.676   .     S
Cu422  O452    1.962   .     S
Cu422  O450    1.955   .     S
Cu422  O454    1.943   .     S
Cu422  N446    2.011   .     S
Cu423  N447    2.011   .     S
Cu423  O453    1.960   .     S
Cu423  O449    1.962   .     S
Cu423  O451    1.943   .     S
Cu423  O455    1.955   .     S
H428   C995    1.083   1_554 S
H445   C992    1.083   .     S
C456   O514    1.289   .     A
C456   C464    1.442   .     S
C456   O513    1.289   .     A
C457   C459    1.472   .     S
C457   C474    1.403   .     A
C457   C478    1.420   .     A
C458   C464    1.394   .     A
C458   H495    1.084   .     S
C458   C70     1.382   1_565 S
C459   O516    1.294   .     A
C459   O515    1.297   .     A
C460   C461    1.402   .     A
C460   H500    1.084   .     S
C461   C462    1.421   .     A
C461   C470    1.452   .     S
C462   C477    1.519   .     S
C463   H504    1.085   .     S
C463   C464    1.396   .     A
C463   C72     1.394   1_565 S
C465   N512    1.367   .     A
C465   H505    1.082   .     S
C465   C531    1.416   .     S
C466   H506    1.082   .     S
C466   N511    1.367   .     A
C467   C478    1.418   .     A
C467   C1061   1.418   .     S
C467   C1066   1.423   .     S
C468   N511    1.367   .     A
C468   H507    1.082   .     S
C469   H508    1.082   .     S
C469   N512    1.367   .     A
C469   C533    1.416   .     S
C470   O517    1.288   .     A
C470   O518    1.293   .     A
C471   O520    1.295   .     A
C471   C473    1.462   .     S
C471   O519    1.292   .     A
C472   C486    1.393   .     A
C472   C1067   1.404   1_554 S
C472   H1095   1.083   1_554 S
C473   C485    1.396   .     A
C473   C486    1.399   .     A
C474   C475    1.386   .     A
C474   H491    1.083   .     S
C475   C1061   1.390   .     S
C475   H1078   1.083   .     S
C476   H492    1.077   .     S
C476   C1060   1.390   1_554 S
C476   C1052   1.418   1_554 S
C477   H503    1.113   .     S
C477   H502    1.108   .     S
C477   C479    1.534   .     S
C478   C484    1.413   .     A
C479   H499    1.112   .     S
C479   H501    1.109   .     S
C479   C480    1.525   .     S
C480   H497    1.111   .     S
C480   H498    1.110   .     S
C480   H496    1.111   .     S
C481   C485    1.401   .     A
C481   C1052   1.423   1_554 S
C481   C1067   1.420   1_554 S
C482   C483    1.392   .     A
C482   C1057   1.404   .     S
C482   C1066   1.420   .     S
C483   C484    1.386   .     A
C483   H509    1.083   .     S
C484   H494    1.080   .     S
C485   H490    1.077   .     S
C486   H489    1.083   .     S
Cu487  O513    1.960   .     S
Cu487  Cu488   2.676   .     S
Cu487  O517    1.962   .     S
Cu487  O515    1.955   .     S
Cu487  O519    1.943   .     S
Cu487  N511    2.011   .     S
Cu488  N512    2.011   .     S
Cu488  O518    1.960   .     S
Cu488  O514    1.962   .     S
Cu488  O516    1.943   .     S
Cu488  O520    1.955   .     S
H493   C1060   1.083   1_554 S
H510   C1057   1.083   .     S
C521   O579    1.289   .     A
C521   C529    1.442   .     S
C521   O578    1.289   .     A
C522   C524    1.472   .     S
C522   C539    1.403   .     A
C522   C543    1.420   .     A
C523   C529    1.394   .     A
C523   H560    1.084   .     S
C523   C135    1.382   1_565 S
C524   O581    1.294   .     A
C524   O580    1.297   .     A
C525   C526    1.402   .     A
C525   H565    1.084   .     S
C526   C527    1.421   .     A
C526   C535    1.452   .     S
C527   C542    1.519   .     S
C528   H569    1.085   .     S
C528   C529    1.396   .     A
C528   C137    1.394   1_565 S
C530   N577    1.367   .     A
C530   H570    1.082   .     S
C530   C401    1.416   1_655 S
C531   H571    1.082   .     S
C531   N576    1.367   .     A
C532   C543    1.418   .     A
C532   C1126   1.418   .     S
C532   C1131   1.423   .     S
C533   N576    1.367   .     A
C533   H572    1.082   .     S
C534   H573    1.082   .     S
C534   N577    1.367   .     A
C534   C403    1.416   1_655 S
C535   O582    1.288   .     A
C535   O583    1.293   .     A
C536   O585    1.295   .     A
C536   C538    1.462   .     S
C536   O584    1.292   .     A
C537   C551    1.393   .     A
C537   C1132   1.404   1_554 S
C537   H1160   1.083   1_554 S
C538   C550    1.396   .     A
C538   C551    1.399   .     A
C539   C540    1.386   .     A
C539   H556    1.083   .     S
C540   C1126   1.390   .     S
C540   H1143   1.083   .     S
C541   H557    1.077   .     S
C541   C1125   1.390   1_554 S
C541   C1117   1.418   1_554 S
C542   H568    1.113   .     S
C542   H567    1.108   .     S
C542   C544    1.534   .     S
C543   C549    1.413   .     A
C544   H564    1.112   .     S
C544   H566    1.109   .     S
C544   C545    1.525   .     S
C545   H562    1.111   .     S
C545   H563    1.110   .     S
C545   H561    1.111   .     S
C546   C550    1.401   .     A
C546   C1117   1.423   1_554 S
C546   C1132   1.420   1_554 S
C547   C548    1.392   .     A
C547   C1122   1.404   .     S
C547   C1131   1.420   .     S
C548   C549    1.386   .     A
C548   H574    1.083   .     S
C549   H559    1.080   .     S
C550   H555    1.077   .     S
C551   H554    1.083   .     S
Cu552  O578    1.960   .     S
Cu552  Cu553   2.676   .     S
Cu552  O582    1.962   .     S
Cu552  O580    1.955   .     S
Cu552  O584    1.943   .     S
Cu552  N576    2.011   .     S
Cu553  N577    2.011   .     S
Cu553  O583    1.960   .     S
Cu553  O579    1.962   .     S
Cu553  O581    1.943   .     S
Cu553  O585    1.955   .     S
H558   C1125   1.083   1_554 S
H575   C1122   1.083   .     S
C586   O644    1.289   .     A
C586   C594    1.442   .     S
C586   O643    1.289   .     A
C587   C589    1.472   .     S
C587   C604    1.403   .     A
C587   C608    1.420   .     A
C588   C594    1.394   .     A
C588   H625    1.084   .     S
C588   C785    1.382   .     S
C589   O646    1.294   .     A
C589   O645    1.297   .     A
C590   C591    1.402   .     A
C590   H630    1.084   .     S
C590   C978    1.382   1_545 S
C591   C592    1.421   .     A
C591   C600    1.452   .     S
C592   C607    1.519   .     S
C592   C983    1.394   1_545 S
C593   H634    1.085   .     S
C593   C594    1.396   .     A
C593   C787    1.394   .     S
C595   N642    1.367   .     A
C595   H635    1.082   .     S
C595   C661    1.416   .     S
C596   H636    1.082   .     S
C596   N641    1.367   .     A
C596   C725    1.416   1_455 S
C597   C608    1.418   .     A
C597   C21     1.418   1_556 S
C597   C26     1.423   1_556 S
C598   N641    1.367   .     A
C598   H637    1.082   .     S
C598   C729    1.416   1_455 S
C599   H638    1.082   .     S
C599   N642    1.367   .     A
C599   C663    1.416   .     S
C600   O647    1.288   .     A
C600   O648    1.293   .     A
C601   O650    1.295   .     A
C601   C603    1.462   .     S
C601   O649    1.292   .     A
C602   C616    1.393   .     A
C603   C615    1.396   .     A
C603   C616    1.399   .     A
C604   C605    1.386   .     A
C604   H621    1.083   .     S
C605   C21     1.390   1_556 S
C605   H38     1.083   1_556 S
C606   H622    1.077   .     S
C607   H633    1.113   .     S
C607   H632    1.108   .     S
C607   C609    1.534   .     S
C608   C614    1.413   .     A
C609   H629    1.112   .     S
C609   H631    1.109   .     S
C609   C610    1.525   .     S
C610   H627    1.111   .     S
C610   H628    1.110   .     S
C610   H626    1.111   .     S
C611   C615    1.401   .     A
C612   C613    1.392   .     A
C612   C17     1.404   1_556 S
C612   C26     1.420   1_556 S
C613   C614    1.386   .     A
C613   H639    1.083   .     S
C614   H624    1.080   .     S
C615   H620    1.077   .     S
C616   H619    1.083   .     S
Cu617  O643    1.960   .     S
Cu617  Cu618   2.676   .     S
Cu617  O647    1.962   .     S
Cu617  O645    1.955   .     S
Cu617  O649    1.943   .     S
Cu617  N641    2.011   .     S
Cu618  N642    2.011   .     S
Cu618  O648    1.960   .     S
Cu618  O644    1.962   .     S
Cu618  O646    1.943   .     S
Cu618  O650    1.955   .     S
H640   C17     1.083   1_556 S
C651   O709    1.289   .     A
C651   C659    1.442   .     S
C651   O708    1.289   .     A
C652   C654    1.472   .     S
C652   C669    1.403   .     A
C652   C673    1.420   .     A
C653   C659    1.394   .     A
C653   H690    1.084   .     S
C653   C850    1.382   .     S
C654   O711    1.294   .     A
C654   O710    1.297   .     A
C655   C656    1.402   .     A
C655   H695    1.084   .     S
C655   C1043   1.382   1_545 S
C656   C657    1.421   .     A
C656   C665    1.452   .     S
C657   C672    1.519   .     S
C657   C1048   1.394   1_545 S
C658   H699    1.085   .     S
C658   C659    1.396   .     A
C658   C852    1.394   .     S
C660   N707    1.367   .     A
C660   H700    1.082   .     S
C660   C726    1.416   .     S
C661   H701    1.082   .     S
C661   N706    1.367   .     A
C662   C673    1.418   .     A
C662   C86     1.418   1_556 S
C662   C91     1.423   1_556 S
C663   N706    1.367   .     A
C663   H702    1.082   .     S
C664   H703    1.082   .     S
C664   N707    1.367   .     A
C664   C728    1.416   .     S
C665   O712    1.288   .     A
C665   O713    1.293   .     A
C666   O715    1.295   .     A
C666   C668    1.462   .     S
C666   O714    1.292   .     A
C667   C681    1.393   .     A
C668   C680    1.396   .     A
C668   C681    1.399   .     A
C669   C670    1.386   .     A
C669   H686    1.083   .     S
C670   C86     1.390   1_556 S
C670   H103    1.083   1_556 S
C671   H687    1.077   .     S
C672   H698    1.113   .     S
C672   H697    1.108   .     S
C672   C674    1.534   .     S
C673   C679    1.413   .     A
C674   H694    1.112   .     S
C674   H696    1.109   .     S
C674   C675    1.525   .     S
C675   H692    1.111   .     S
C675   H693    1.110   .     S
C675   H691    1.111   .     S
C676   C680    1.401   .     A
C677   C678    1.392   .     A
C677   C82     1.404   1_556 S
C677   C91     1.420   1_556 S
C678   C679    1.386   .     A
C678   H704    1.083   .     S
C679   H689    1.080   .     S
C680   H685    1.077   .     S
C681   H684    1.083   .     S
Cu682  O708    1.960   .     S
Cu682  Cu683   2.676   .     S
Cu682  O712    1.962   .     S
Cu682  O710    1.955   .     S
Cu682  O714    1.943   .     S
Cu682  N706    2.011   .     S
Cu683  N707    2.011   .     S
Cu683  O713    1.960   .     S
Cu683  O709    1.962   .     S
Cu683  O711    1.943   .     S
Cu683  O715    1.955   .     S
H705   C82     1.083   1_556 S
C716   O774    1.289   .     A
C716   C724    1.442   .     S
C716   O773    1.289   .     A
C717   C719    1.472   .     S
C717   C734    1.403   .     A
C717   C738    1.420   .     A
C718   C724    1.394   .     A
C718   H755    1.084   .     S
C718   C915    1.382   .     S
C719   O776    1.294   .     A
C719   O775    1.297   .     A
C720   C721    1.402   .     A
C720   H760    1.084   .     S
C720   C1108   1.382   1_545 S
C721   C722    1.421   .     A
C721   C730    1.452   .     S
C722   C737    1.519   .     S
C722   C1113   1.394   1_545 S
C723   H764    1.085   .     S
C723   C724    1.396   .     A
C723   C917    1.394   .     S
C725   N772    1.367   .     A
C725   H765    1.082   .     S
C725   C596    1.416   1_655 S
C726   H766    1.082   .     S
C726   N771    1.367   .     A
C727   C738    1.418   .     A
C727   C151    1.418   1_556 S
C727   C156    1.423   1_556 S
C728   N771    1.367   .     A
C728   H767    1.082   .     S
C729   H768    1.082   .     S
C729   N772    1.367   .     A
C729   C598    1.416   1_655 S
C730   O777    1.288   .     A
C730   O778    1.293   .     A
C731   O780    1.295   .     A
C731   C733    1.462   .     S
C731   O779    1.292   .     A
C732   C746    1.393   .     A
C733   C745    1.396   .     A
C733   C746    1.399   .     A
C734   C735    1.386   .     A
C734   H751    1.083   .     S
C735   C151    1.390   1_556 S
C735   H168    1.083   1_556 S
C736   H752    1.077   .     S
C737   H763    1.113   .     S
C737   H762    1.108   .     S
C737   C739    1.534   .     S
C738   C744    1.413   .     A
C739   H759    1.112   .     S
C739   H761    1.109   .     S
C739   C740    1.525   .     S
C740   H757    1.111   .     S
C740   H758    1.110   .     S
C740   H756    1.111   .     S
C741   C745    1.401   .     A
C742   C743    1.392   .     A
C742   C147    1.404   1_556 S
C742   C156    1.420   1_556 S
C743   C744    1.386   .     A
C743   H769    1.083   .     S
C744   H754    1.080   .     S
C745   H750    1.077   .     S
C746   H749    1.083   .     S
Cu747  O773    1.960   .     S
Cu747  Cu748   2.676   .     S
Cu747  O777    1.962   .     S
Cu747  O775    1.955   .     S
Cu747  O779    1.943   .     S
Cu747  N771    2.011   .     S
Cu748  N772    2.011   .     S
Cu748  O778    1.960   .     S
Cu748  O774    1.962   .     S
Cu748  O776    1.943   .     S
Cu748  O780    1.955   .     S
H770   C147    1.083   1_556 S
C781   O839    1.289   .     A
C781   C789    1.442   .     S
C781   O838    1.289   .     A
C782   C784    1.472   .     S
C782   C799    1.403   .     A
C782   C803    1.420   .     A
C783   C789    1.394   .     A
C783   H820    1.084   .     S
C783   C980    1.382   .     S
C784   O841    1.294   .     A
C784   O840    1.297   .     A
C785   C786    1.402   .     A
C785   H825    1.084   .     S
C786   C787    1.421   .     A
C786   C795    1.452   .     S
C787   C802    1.519   .     S
C788   H829    1.085   .     S
C788   C789    1.396   .     A
C788   C982    1.394   .     S
C790   N837    1.367   .     A
C790   H830    1.082   .     S
C790   C856    1.416   .     S
C791   H831    1.082   .     S
C791   N836    1.367   .     A
C791   C920    1.416   1_455 S
C792   C803    1.418   .     A
C792   C216    1.418   1_556 S
C792   C221    1.423   1_556 S
C793   N836    1.367   .     A
C793   H832    1.082   .     S
C793   C924    1.416   1_455 S
C794   H833    1.082   .     S
C794   N837    1.367   .     A
C794   C858    1.416   .     S
C795   O842    1.288   .     A
C795   O843    1.293   .     A
C796   O845    1.295   .     A
C796   C798    1.462   .     S
C796   O844    1.292   .     A
C797   C811    1.393   .     A
C798   C810    1.396   .     A
C798   C811    1.399   .     A
C799   C800    1.386   .     A
C799   H816    1.083   .     S
C800   C216    1.390   1_556 S
C800   H233    1.083   1_556 S
C801   H817    1.077   .     S
C802   H828    1.113   .     S
C802   H827    1.108   .     S
C802   C804    1.534   .     S
C803   C809    1.413   .     A
C804   H824    1.112   .     S
C804   H826    1.109   .     S
C804   C805    1.525   .     S
C805   H822    1.111   .     S
C805   H823    1.110   .     S
C805   H821    1.111   .     S
C806   C810    1.401   .     A
C807   C808    1.392   .     A
C807   C212    1.404   1_556 S
C807   C221    1.420   1_556 S
C808   C809    1.386   .     A
C808   H834    1.083   .     S
C809   H819    1.080   .     S
C810   H815    1.077   .     S
C811   H814    1.083   .     S
Cu812  O838    1.960   .     S
Cu812  Cu813   2.676   .     S
Cu812  O842    1.962   .     S
Cu812  O840    1.955   .     S
Cu812  O844    1.943   .     S
Cu812  N836    2.011   .     S
Cu813  N837    2.011   .     S
Cu813  O843    1.960   .     S
Cu813  O839    1.962   .     S
Cu813  O841    1.943   .     S
Cu813  O845    1.955   .     S
H835   C212    1.083   1_556 S
C846   O904    1.289   .     A
C846   C854    1.442   .     S
C846   O903    1.289   .     A
C847   C849    1.472   .     S
C847   C864    1.403   .     A
C847   C868    1.420   .     A
C848   C854    1.394   .     A
C848   H885    1.084   .     S
C848   C1045   1.382   .     S
C849   O906    1.294   .     A
C849   O905    1.297   .     A
C850   C851    1.402   .     A
C850   H890    1.084   .     S
C851   C852    1.421   .     A
C851   C860    1.452   .     S
C852   C867    1.519   .     S
C853   H894    1.085   .     S
C853   C854    1.396   .     A
C853   C1047   1.394   .     S
C855   N902    1.367   .     A
C855   H895    1.082   .     S
C855   C921    1.416   .     S
C856   H896    1.082   .     S
C856   N901    1.367   .     A
C857   C868    1.418   .     A
C857   C281    1.418   1_556 S
C857   C286    1.423   1_556 S
C858   N901    1.367   .     A
C858   H897    1.082   .     S
C859   H898    1.082   .     S
C859   N902    1.367   .     A
C859   C923    1.416   .     S
C860   O907    1.288   .     A
C860   O908    1.293   .     A
C861   O910    1.295   .     A
C861   C863    1.462   .     S
C861   O909    1.292   .     A
C862   C876    1.393   .     A
C863   C875    1.396   .     A
C863   C876    1.399   .     A
C864   C865    1.386   .     A
C864   H881    1.083   .     S
C865   C281    1.390   1_556 S
C865   H298    1.083   1_556 S
C866   H882    1.077   .     S
C867   H893    1.113   .     S
C867   H892    1.108   .     S
C867   C869    1.534   .     S
C868   C874    1.413   .     A
C869   H889    1.112   .     S
C869   H891    1.109   .     S
C869   C870    1.525   .     S
C870   H887    1.111   .     S
C870   H888    1.110   .     S
C870   H886    1.111   .     S
C871   C875    1.401   .     A
C872   C873    1.392   .     A
C872   C277    1.404   1_556 S
C872   C286    1.420   1_556 S
C873   C874    1.386   .     A
C873   H899    1.083   .     S
C874   H884    1.080   .     S
C875   H880    1.077   .     S
C876   H879    1.083   .     S
Cu877  O903    1.960   .     S
Cu877  Cu878   2.676   .     S
Cu877  O907    1.962   .     S
Cu877  O905    1.955   .     S
Cu877  O909    1.943   .     S
Cu877  N901    2.011   .     S
Cu878  N902    2.011   .     S
Cu878  O908    1.960   .     S
Cu878  O904    1.962   .     S
Cu878  O906    1.943   .     S
Cu878  O910    1.955   .     S
H900   C277    1.083   1_556 S
C911   O969    1.289   .     A
C911   C919    1.442   .     S
C911   O968    1.289   .     A
C912   C914    1.472   .     S
C912   C929    1.403   .     A
C912   C933    1.420   .     A
C913   C919    1.394   .     A
C913   H950    1.084   .     S
C913   C1110   1.382   .     S
C914   O971    1.294   .     A
C914   O970    1.297   .     A
C915   C916    1.402   .     A
C915   H955    1.084   .     S
C916   C917    1.421   .     A
C916   C925    1.452   .     S
C917   C932    1.519   .     S
C918   H959    1.085   .     S
C918   C919    1.396   .     A
C918   C1112   1.394   .     S
C920   N967    1.367   .     A
C920   H960    1.082   .     S
C920   C791    1.416   1_655 S
C921   H961    1.082   .     S
C921   N966    1.367   .     A
C922   C933    1.418   .     A
C922   C346    1.418   1_556 S
C922   C351    1.423   1_556 S
C923   N966    1.367   .     A
C923   H962    1.082   .     S
C924   H963    1.082   .     S
C924   N967    1.367   .     A
C924   C793    1.416   1_655 S
C925   O972    1.288   .     A
C925   O973    1.293   .     A
C926   O975    1.295   .     A
C926   C928    1.462   .     S
C926   O974    1.292   .     A
C927   C941    1.393   .     A
C928   C940    1.396   .     A
C928   C941    1.399   .     A
C929   C930    1.386   .     A
C929   H946    1.083   .     S
C930   C346    1.390   1_556 S
C930   H363    1.083   1_556 S
C931   H947    1.077   .     S
C932   H958    1.113   .     S
C932   H957    1.108   .     S
C932   C934    1.534   .     S
C933   C939    1.413   .     A
C934   H954    1.112   .     S
C934   H956    1.109   .     S
C934   C935    1.525   .     S
C935   H952    1.111   .     S
C935   H953    1.110   .     S
C935   H951    1.111   .     S
C936   C940    1.401   .     A
C937   C938    1.392   .     A
C937   C342    1.404   1_556 S
C937   C351    1.420   1_556 S
C938   C939    1.386   .     A
C938   H964    1.083   .     S
C939   H949    1.080   .     S
C940   H945    1.077   .     S
C941   H944    1.083   .     S
Cu942  O968    1.960   .     S
Cu942  Cu943   2.676   .     S
Cu942  O972    1.962   .     S
Cu942  O970    1.955   .     S
Cu942  O974    1.943   .     S
Cu942  N966    2.011   .     S
Cu943  N967    2.011   .     S
Cu943  O973    1.960   .     S
Cu943  O969    1.962   .     S
Cu943  O971    1.943   .     S
Cu943  O975    1.955   .     S
H965   C342    1.083   1_556 S
C976   O1034   1.289   .     A
C976   C984    1.442   .     S
C976   O1033   1.289   .     A
C977   C979    1.472   .     S
C977   C994    1.403   .     A
C977   C998    1.420   .     A
C978   C984    1.394   .     A
C978   H1015   1.084   .     S
C978   C590    1.382   1_565 S
C979   O1036   1.294   .     A
C979   O1035   1.297   .     A
C980   C981    1.402   .     A
C980   H1020   1.084   .     S
C981   C982    1.421   .     A
C981   C990    1.452   .     S
C982   C997    1.519   .     S
C983   H1024   1.085   .     S
C983   C984    1.396   .     A
C983   C592    1.394   1_565 S
C985   N1032   1.367   .     A
C985   H1025   1.082   .     S
C985   C1051   1.416   .     S
C986   H1026   1.082   .     S
C986   N1031   1.367   .     A
C986   C1115   1.416   1_455 S
C987   C998    1.418   .     A
C987   C411    1.418   1_556 S
C987   C416    1.423   1_556 S
C988   N1031   1.367   .     A
C988   H1027   1.082   .     S
C988   C1119   1.416   1_455 S
C989   H1028   1.082   .     S
C989   N1032   1.367   .     A
C989   C1053   1.416   .     S
C990   O1037   1.288   .     A
C990   O1038   1.293   .     A
C991   O1040   1.295   .     A
C991   C993    1.462   .     S
C991   O1039   1.292   .     A
C992   C1006   1.393   .     A
C993   C1005   1.396   .     A
C993   C1006   1.399   .     A
C994   C995    1.386   .     A
C994   H1011   1.083   .     S
C995   C411    1.390   1_556 S
C995   H428    1.083   1_556 S
C996   H1012   1.077   .     S
C997   H1023   1.113   .     S
C997   H1022   1.108   .     S
C997   C999    1.534   .     S
C998   C1004   1.413   .     A
C999   H1019   1.112   .     S
C999   H1021   1.109   .     S
C999   C1000   1.525   .     S
C1000  H1017   1.111   .     S
C1000  H1018   1.110   .     S
C1000  H1016   1.111   .     S
C1001  C1005   1.401   .     A
C1002  C1003   1.392   .     A
C1002  C407    1.404   1_556 S
C1002  C416    1.420   1_556 S
C1003  C1004   1.386   .     A
C1003  H1029   1.083   .     S
C1004  H1014   1.080   .     S
C1005  H1010   1.077   .     S
C1006  H1009   1.083   .     S
Cu1007 O1033   1.960   .     S
Cu1007 Cu1008  2.676   .     S
Cu1007 O1037   1.962   .     S
Cu1007 O1035   1.955   .     S
Cu1007 O1039   1.943   .     S
Cu1007 N1031   2.011   .     S
Cu1008 N1032   2.011   .     S
Cu1008 O1038   1.960   .     S
Cu1008 O1034   1.962   .     S
Cu1008 O1036   1.943   .     S
Cu1008 O1040   1.955   .     S
H1030  C407    1.083   1_556 S
C1041  O1099   1.289   .     A
C1041  C1049   1.442   .     S
C1041  O1098   1.289   .     A
C1042  C1044   1.472   .     S
C1042  C1059   1.403   .     A
C1042  C1063   1.420   .     A
C1043  C1049   1.394   .     A
C1043  H1080   1.084   .     S
C1043  C655    1.382   1_565 S
C1044  O1101   1.294   .     A
C1044  O1100   1.297   .     A
C1045  C1046   1.402   .     A
C1045  H1085   1.084   .     S
C1046  C1047   1.421   .     A
C1046  C1055   1.452   .     S
C1047  C1062   1.519   .     S
C1048  H1089   1.085   .     S
C1048  C1049   1.396   .     A
C1048  C657    1.394   1_565 S
C1050  N1097   1.367   .     A
C1050  H1090   1.082   .     S
C1050  C1116   1.416   .     S
C1051  H1091   1.082   .     S
C1051  N1096   1.367   .     A
C1052  C1063   1.418   .     A
C1052  C476    1.418   1_556 S
C1052  C481    1.423   1_556 S
C1053  N1096   1.367   .     A
C1053  H1092   1.082   .     S
C1054  H1093   1.082   .     S
C1054  N1097   1.367   .     A
C1054  C1118   1.416   .     S
C1055  O1102   1.288   .     A
C1055  O1103   1.293   .     A
C1056  O1105   1.295   .     A
C1056  C1058   1.462   .     S
C1056  O1104   1.292   .     A
C1057  C1071   1.393   .     A
C1058  C1070   1.396   .     A
C1058  C1071   1.399   .     A
C1059  C1060   1.386   .     A
C1059  H1076   1.083   .     S
C1060  C476    1.390   1_556 S
C1060  H493    1.083   1_556 S
C1061  H1077   1.077   .     S
C1062  H1088   1.113   .     S
C1062  H1087   1.108   .     S
C1062  C1064   1.534   .     S
C1063  C1069   1.413   .     A
C1064  H1084   1.112   .     S
C1064  H1086   1.109   .     S
C1064  C1065   1.525   .     S
C1065  H1082   1.111   .     S
C1065  H1083   1.110   .     S
C1065  H1081   1.111   .     S
C1066  C1070   1.401   .     A
C1067  C1068   1.392   .     A
C1067  C472    1.404   1_556 S
C1067  C481    1.420   1_556 S
C1068  C1069   1.386   .     A
C1068  H1094   1.083   .     S
C1069  H1079   1.080   .     S
C1070  H1075   1.077   .     S
C1071  H1074   1.083   .     S
Cu1072 O1098   1.960   .     S
Cu1072 Cu1073  2.676   .     S
Cu1072 O1102   1.962   .     S
Cu1072 O1100   1.955   .     S
Cu1072 O1104   1.943   .     S
Cu1072 N1096   2.011   .     S
Cu1073 N1097   2.011   .     S
Cu1073 O1103   1.960   .     S
Cu1073 O1099   1.962   .     S
Cu1073 O1101   1.943   .     S
Cu1073 O1105   1.955   .     S
H1095  C472    1.083   1_556 S
C1106  O1164   1.289   .     A
C1106  C1114   1.442   .     S
C1106  O1163   1.289   .     A
C1107  C1109   1.472   .     S
C1107  C1124   1.403   .     A
C1107  C1128   1.420   .     A
C1108  C1114   1.394   .     A
C1108  H1145   1.084   .     S
C1108  C720    1.382   1_565 S
C1109  O1166   1.294   .     A
C1109  O1165   1.297   .     A
C1110  C1111   1.402   .     A
C1110  H1150   1.084   .     S
C1111  C1112   1.421   .     A
C1111  C1120   1.452   .     S
C1112  C1127   1.519   .     S
C1113  H1154   1.085   .     S
C1113  C1114   1.396   .     A
C1113  C722    1.394   1_565 S
C1115  N1162   1.367   .     A
C1115  H1155   1.082   .     S
C1115  C986    1.416   1_655 S
C1116  H1156   1.082   .     S
C1116  N1161   1.367   .     A
C1117  C1128   1.418   .     A
C1117  C541    1.418   1_556 S
C1117  C546    1.423   1_556 S
C1118  N1161   1.367   .     A
C1118  H1157   1.082   .     S
C1119  H1158   1.082   .     S
C1119  N1162   1.367   .     A
C1119  C988    1.416   1_655 S
C1120  O1167   1.288   .     A
C1120  O1168   1.293   .     A
C1121  O1170   1.295   .     A
C1121  C1123   1.462   .     S
C1121  O1169   1.292   .     A
C1122  C1136   1.393   .     A
C1123  C1135   1.396   .     A
C1123  C1136   1.399   .     A
C1124  C1125   1.386   .     A
C1124  H1141   1.083   .     S
C1125  C541    1.390   1_556 S
C1125  H558    1.083   1_556 S
C1126  H1142   1.077   .     S
C1127  H1153   1.113   .     S
C1127  H1152   1.108   .     S
C1127  C1129   1.534   .     S
C1128  C1134   1.413   .     A
C1129  H1149   1.112   .     S
C1129  H1151   1.109   .     S
C1129  C1130   1.525   .     S
C1130  H1147   1.111   .     S
C1130  H1148   1.110   .     S
C1130  H1146   1.111   .     S
C1131  C1135   1.401   .     A
C1132  C1133   1.392   .     A
C1132  C537    1.404   1_556 S
C1132  C546    1.420   1_556 S
C1133  C1134   1.386   .     A
C1133  H1159   1.083   .     S
C1134  H1144   1.080   .     S
C1135  H1140   1.077   .     S
C1136  H1139   1.083   .     S
Cu1137 O1163   1.960   .     S
Cu1137 Cu1138  2.676   .     S
Cu1137 O1167   1.962   .     S
Cu1137 O1165   1.955   .     S
Cu1137 O1169   1.943   .     S
Cu1137 N1161   2.011   .     S
Cu1138 N1162   2.011   .     S
Cu1138 O1168   1.960   .     S
Cu1138 O1164   1.962   .     S
Cu1138 O1166   1.943   .     S
Cu1138 O1170   1.955   .     S
H1160  C537    1.083   1_556 S
