data_str_m3_o1_o5_pcu_sym.22
_audit_creation_date              2020-01-03
_audit_creation_method            'Materials Studio'
_symmetry_space_group_name_H-M    'P1'
_symmetry_Int_Tables_number       1
_symmetry_cell_setting            triclinic
loop_
_symmetry_equiv_pos_as_xyz
  x,y,z
_cell_length_a                    32.2818
_cell_length_b                    29.6532
_cell_length_c                    26.7506
_cell_angle_alpha                 89.9953
_cell_angle_beta                  91.5085
_cell_angle_gamma                 90.0095
loop_
_atom_site_label
_atom_site_type_symbol
_atom_site_fract_x
_atom_site_fract_y
_atom_site_fract_z
_atom_site_U_iso_or_equiv
_atom_site_adp_type
_atom_site_occupancy
O1     O     0.10559   0.20487   0.16666   0.00000  Uiso   1.00
O2     O     0.22774   0.12846   0.16667   0.00000  Uiso   1.00
O3     O     0.22774   0.20487   0.16667   0.00000  Uiso   1.00
O4     O     0.10559   0.12846   0.16666   0.00000  Uiso   1.00
C5     C     0.08681   0.16666   0.17134   0.00000  Uiso   1.00
C6     C     0.24652   0.16667   0.16199   0.00000  Uiso   1.00
O7     O     0.16667   0.20488   0.09511   0.00000  Uiso   1.00
O8     O     0.16666   0.12845   0.23822   0.00000  Uiso   1.00
O9     O     0.16666   0.20488   0.23822   0.00000  Uiso   1.00
O10    O     0.16667   0.12845   0.09511   0.00000  Uiso   1.00
C11    C     0.16652   0.16667   0.07291   0.00000  Uiso   1.00
C12    C     0.16681   0.16667   0.26043   0.00000  Uiso   1.00
Zn13   Zn    0.16667   0.21771   0.16667   0.00000  Uiso   1.00
Zn14   Zn    0.16667   0.11563   0.16667   0.00000  Uiso   1.00
C15    C     0.16661   0.16667   0.02179   0.00000  Uiso   1.00
C16    C     0.16672   0.16667   0.31154   0.00000  Uiso   1.00
C17    C     0.02073   0.12533   0.17346   0.00000  Uiso   1.00
C18    C     0.31260   0.20800   0.15986   0.00000  Uiso   1.00
C19    C     0.31259   0.12534   0.15981   0.00000  Uiso   1.00
C20    C     0.02074   0.20799   0.17352   0.00000  Uiso   1.00
C21    C     0.29102   0.16667   0.15768   0.00000  Uiso   1.00
C22    C     0.04231   0.16666   0.17564   0.00000  Uiso   1.00
C23    C     0.18605   0.02397   0.20458   0.00000  Uiso   1.00
C24    C     0.14729   0.30937   0.12875   0.00000  Uiso   1.00
C25    C     0.14730   0.02396   0.12874   0.00000  Uiso   1.00
C26    C     0.18604   0.30937   0.20459   0.00000  Uiso   1.00
N27    N     0.16667   0.28573   0.16667   0.00000  Uiso   1.00
N28    N     0.16667   0.04760   0.16667   0.00000  Uiso   1.00
Cl29   Cl    0.04306   0.07322   0.19304   0.00000  Uiso   1.00
Cl30   Cl    0.29027   0.26011   0.14028   0.00000  Uiso   1.00
Cl31   Cl    0.29023   0.07326   0.14015   0.00000  Uiso   1.00
Cl32   Cl    0.04310   0.26008   0.19317   0.00000  Uiso   1.00
N33    N     0.20671   0.04754   0.24455   0.00000  Uiso   1.00
O34    O     0.19051   0.04820   0.28853   0.00000  Uiso   1.00
O35    O     0.24494   0.06025   0.23992   0.00000  Uiso   1.00
N36    N     0.12666   0.28580   0.08875   0.00000  Uiso   1.00
O37    O     0.14280   0.28528   0.04474   0.00000  Uiso   1.00
O38    O     0.08853   0.27279   0.09347   0.00000  Uiso   1.00
N39    N     0.12671   0.04752   0.08871   0.00000  Uiso   1.00
O40    O     0.08865   0.06076   0.09346   0.00000  Uiso   1.00
O41    O     0.14280   0.04790   0.04467   0.00000  Uiso   1.00
N42    N     0.20663   0.28581   0.24463   0.00000  Uiso   1.00
O43    O     0.24466   0.27249   0.23984   0.00000  Uiso   1.00
O44    O     0.19057   0.28552   0.28868   0.00000  Uiso   1.00
O45    O     0.43892   0.20487   0.16666   0.00000  Uiso   1.00
O46    O     0.56108   0.12846   0.16667   0.00000  Uiso   1.00
O47    O     0.56108   0.20487   0.16667   0.00000  Uiso   1.00
O48    O     0.43892   0.12846   0.16666   0.00000  Uiso   1.00
C49    C     0.42014   0.16666   0.17134   0.00000  Uiso   1.00
C50    C     0.57986   0.16667   0.16199   0.00000  Uiso   1.00
O51    O     0.50000   0.20488   0.09511   0.00000  Uiso   1.00
O52    O     0.50000   0.12845   0.23822   0.00000  Uiso   1.00
O53    O     0.50000   0.20488   0.23822   0.00000  Uiso   1.00
O54    O     0.50000   0.12845   0.09511   0.00000  Uiso   1.00
C55    C     0.49986   0.16667   0.07291   0.00000  Uiso   1.00
C56    C     0.50014   0.16667   0.26043   0.00000  Uiso   1.00
Zn57   Zn    0.50000   0.21771   0.16667   0.00000  Uiso   1.00
Zn58   Zn    0.50000   0.11563   0.16667   0.00000  Uiso   1.00
C59    C     0.49995   0.16667   0.02179   0.00000  Uiso   1.00
C60    C     0.50005   0.16667   0.31154   0.00000  Uiso   1.00
C61    C     0.35406   0.12533   0.17346   0.00000  Uiso   1.00
C62    C     0.64594   0.20800   0.15986   0.00000  Uiso   1.00
C63    C     0.64592   0.12534   0.15981   0.00000  Uiso   1.00
C64    C     0.35408   0.20799   0.17352   0.00000  Uiso   1.00
C65    C     0.62436   0.16667   0.15768   0.00000  Uiso   1.00
C66    C     0.37564   0.16666   0.17564   0.00000  Uiso   1.00
C67    C     0.51938   0.02397   0.20458   0.00000  Uiso   1.00
C68    C     0.48063   0.30937   0.12875   0.00000  Uiso   1.00
C69    C     0.48063   0.02396   0.12874   0.00000  Uiso   1.00
C70    C     0.51937   0.30937   0.20459   0.00000  Uiso   1.00
N71    N     0.50000   0.28573   0.16667   0.00000  Uiso   1.00
N72    N     0.50000   0.04760   0.16667   0.00000  Uiso   1.00
Cl73   Cl    0.37640   0.07322   0.19304   0.00000  Uiso   1.00
Cl74   Cl    0.62360   0.26011   0.14028   0.00000  Uiso   1.00
Cl75   Cl    0.62356   0.07326   0.14015   0.00000  Uiso   1.00
Cl76   Cl    0.37643   0.26008   0.19317   0.00000  Uiso   1.00
N77    N     0.54004   0.04754   0.24455   0.00000  Uiso   1.00
O78    O     0.52384   0.04820   0.28853   0.00000  Uiso   1.00
O79    O     0.57827   0.06025   0.23992   0.00000  Uiso   1.00
N80    N     0.45999   0.28580   0.08875   0.00000  Uiso   1.00
O81    O     0.47613   0.28528   0.04474   0.00000  Uiso   1.00
O82    O     0.42186   0.27279   0.09347   0.00000  Uiso   1.00
N83    N     0.46004   0.04752   0.08871   0.00000  Uiso   1.00
O84    O     0.42198   0.06076   0.09346   0.00000  Uiso   1.00
O85    O     0.47613   0.04790   0.04467   0.00000  Uiso   1.00
N86    N     0.53996   0.28581   0.24463   0.00000  Uiso   1.00
O87    O     0.57799   0.27249   0.23984   0.00000  Uiso   1.00
O88    O     0.52390   0.28552   0.28868   0.00000  Uiso   1.00
O89    O     0.77226   0.20487   0.16666   0.00000  Uiso   1.00
O90    O     0.89441   0.12846   0.16667   0.00000  Uiso   1.00
O91    O     0.89441   0.20487   0.16667   0.00000  Uiso   1.00
O92    O     0.77226   0.12846   0.16666   0.00000  Uiso   1.00
C93    C     0.75348   0.16666   0.17134   0.00000  Uiso   1.00
C94    C     0.91319   0.16667   0.16199   0.00000  Uiso   1.00
O95    O     0.83334   0.20488   0.09511   0.00000  Uiso   1.00
O96    O     0.83333   0.12845   0.23822   0.00000  Uiso   1.00
O97    O     0.83333   0.20488   0.23822   0.00000  Uiso   1.00
O98    O     0.83334   0.12845   0.09511   0.00000  Uiso   1.00
C99    C     0.83319   0.16667   0.07291   0.00000  Uiso   1.00
C100   C     0.83348   0.16667   0.26043   0.00000  Uiso   1.00
Zn101  Zn    0.83333   0.21771   0.16667   0.00000  Uiso   1.00
Zn102  Zn    0.83333   0.11563   0.16667   0.00000  Uiso   1.00
C103   C     0.83328   0.16667   0.02179   0.00000  Uiso   1.00
C104   C     0.83338   0.16667   0.31154   0.00000  Uiso   1.00
C105   C     0.68739   0.12533   0.17346   0.00000  Uiso   1.00
C106   C     0.97927   0.20800   0.15986   0.00000  Uiso   1.00
C107   C     0.97925   0.12534   0.15981   0.00000  Uiso   1.00
C108   C     0.68741   0.20799   0.17352   0.00000  Uiso   1.00
C109   C     0.95769   0.16667   0.15768   0.00000  Uiso   1.00
C110   C     0.70898   0.16666   0.17564   0.00000  Uiso   1.00
C111   C     0.85271   0.02397   0.20458   0.00000  Uiso   1.00
C112   C     0.81396   0.30937   0.12875   0.00000  Uiso   1.00
C113   C     0.81396   0.02396   0.12874   0.00000  Uiso   1.00
C114   C     0.85271   0.30937   0.20459   0.00000  Uiso   1.00
N115   N     0.83333   0.28573   0.16667   0.00000  Uiso   1.00
N116   N     0.83333   0.04760   0.16667   0.00000  Uiso   1.00
Cl117  Cl    0.70973   0.07322   0.19304   0.00000  Uiso   1.00
Cl118  Cl    0.95693   0.26011   0.14028   0.00000  Uiso   1.00
Cl119  Cl    0.95690   0.07326   0.14015   0.00000  Uiso   1.00
Cl120  Cl    0.70977   0.26008   0.19317   0.00000  Uiso   1.00
N121   N     0.87337   0.04754   0.24455   0.00000  Uiso   1.00
O122   O     0.85718   0.04820   0.28853   0.00000  Uiso   1.00
O123   O     0.91160   0.06025   0.23992   0.00000  Uiso   1.00
N124   N     0.79333   0.28580   0.08875   0.00000  Uiso   1.00
O125   O     0.80946   0.28528   0.04474   0.00000  Uiso   1.00
O126   O     0.75519   0.27279   0.09347   0.00000  Uiso   1.00
N127   N     0.79337   0.04752   0.08871   0.00000  Uiso   1.00
O128   O     0.75531   0.06076   0.09346   0.00000  Uiso   1.00
O129   O     0.80947   0.04790   0.04467   0.00000  Uiso   1.00
N130   N     0.87329   0.28581   0.24463   0.00000  Uiso   1.00
O131   O     0.91132   0.27249   0.23984   0.00000  Uiso   1.00
O132   O     0.85723   0.28552   0.28868   0.00000  Uiso   1.00
O133   O     0.10559   0.53821   0.16666   0.00000  Uiso   1.00
O134   O     0.22774   0.46179   0.16667   0.00000  Uiso   1.00
O135   O     0.22774   0.53821   0.16667   0.00000  Uiso   1.00
O136   O     0.10559   0.46179   0.16666   0.00000  Uiso   1.00
C137   C     0.08681   0.50000   0.17134   0.00000  Uiso   1.00
C138   C     0.24652   0.50000   0.16199   0.00000  Uiso   1.00
O139   O     0.16667   0.53821   0.09511   0.00000  Uiso   1.00
O140   O     0.16666   0.46179   0.23822   0.00000  Uiso   1.00
O141   O     0.16666   0.53821   0.23822   0.00000  Uiso   1.00
O142   O     0.16667   0.46179   0.09511   0.00000  Uiso   1.00
C143   C     0.16652   0.50000   0.07291   0.00000  Uiso   1.00
C144   C     0.16681   0.50000   0.26043   0.00000  Uiso   1.00
Zn145  Zn    0.16667   0.55104   0.16667   0.00000  Uiso   1.00
Zn146  Zn    0.16667   0.44896   0.16667   0.00000  Uiso   1.00
C147   C     0.16661   0.50000   0.02179   0.00000  Uiso   1.00
C148   C     0.16672   0.50000   0.31154   0.00000  Uiso   1.00
C149   C     0.02073   0.45867   0.17346   0.00000  Uiso   1.00
C150   C     0.31260   0.54133   0.15986   0.00000  Uiso   1.00
C151   C     0.31259   0.45868   0.15981   0.00000  Uiso   1.00
C152   C     0.02074   0.54132   0.17352   0.00000  Uiso   1.00
C153   C     0.29102   0.50001   0.15768   0.00000  Uiso   1.00
C154   C     0.04231   0.49999   0.17564   0.00000  Uiso   1.00
C155   C     0.18605   0.35730   0.20458   0.00000  Uiso   1.00
C156   C     0.14729   0.64270   0.12875   0.00000  Uiso   1.00
C157   C     0.14730   0.35730   0.12874   0.00000  Uiso   1.00
C158   C     0.18604   0.64270   0.20459   0.00000  Uiso   1.00
N159   N     0.16667   0.61907   0.16667   0.00000  Uiso   1.00
N160   N     0.16667   0.38093   0.16667   0.00000  Uiso   1.00
Cl161  Cl    0.04306   0.40655   0.19304   0.00000  Uiso   1.00
Cl162  Cl    0.29027   0.59345   0.14028   0.00000  Uiso   1.00
Cl163  Cl    0.29023   0.40659   0.14015   0.00000  Uiso   1.00
Cl164  Cl    0.04310   0.59341   0.19317   0.00000  Uiso   1.00
N165   N     0.20671   0.38087   0.24455   0.00000  Uiso   1.00
O166   O     0.19051   0.38153   0.28853   0.00000  Uiso   1.00
O167   O     0.24494   0.39359   0.23992   0.00000  Uiso   1.00
N168   N     0.12666   0.61913   0.08875   0.00000  Uiso   1.00
O169   O     0.14280   0.61862   0.04474   0.00000  Uiso   1.00
O170   O     0.08853   0.60612   0.09347   0.00000  Uiso   1.00
N171   N     0.12671   0.38086   0.08871   0.00000  Uiso   1.00
O172   O     0.08865   0.39409   0.09346   0.00000  Uiso   1.00
O173   O     0.14280   0.38123   0.04467   0.00000  Uiso   1.00
N174   N     0.20663   0.61915   0.24463   0.00000  Uiso   1.00
O175   O     0.24466   0.60583   0.23984   0.00000  Uiso   1.00
O176   O     0.19057   0.61885   0.28868   0.00000  Uiso   1.00
O177   O     0.43892   0.53821   0.16666   0.00000  Uiso   1.00
O178   O     0.56108   0.46179   0.16667   0.00000  Uiso   1.00
O179   O     0.56108   0.53821   0.16667   0.00000  Uiso   1.00
O180   O     0.43892   0.46179   0.16666   0.00000  Uiso   1.00
C181   C     0.42014   0.50000   0.17134   0.00000  Uiso   1.00
C182   C     0.57986   0.50000   0.16199   0.00000  Uiso   1.00
O183   O     0.50000   0.53821   0.09511   0.00000  Uiso   1.00
O184   O     0.50000   0.46179   0.23822   0.00000  Uiso   1.00
O185   O     0.50000   0.53821   0.23822   0.00000  Uiso   1.00
O186   O     0.50000   0.46179   0.09511   0.00000  Uiso   1.00
C187   C     0.49986   0.50000   0.07291   0.00000  Uiso   1.00
C188   C     0.50014   0.50000   0.26043   0.00000  Uiso   1.00
Zn189  Zn    0.50000   0.55104   0.16667   0.00000  Uiso   1.00
Zn190  Zn    0.50000   0.44896   0.16667   0.00000  Uiso   1.00
C191   C     0.49995   0.50000   0.02179   0.00000  Uiso   1.00
C192   C     0.50005   0.50000   0.31154   0.00000  Uiso   1.00
C193   C     0.35406   0.45867   0.17346   0.00000  Uiso   1.00
C194   C     0.64594   0.54133   0.15986   0.00000  Uiso   1.00
C195   C     0.64592   0.45868   0.15981   0.00000  Uiso   1.00
C196   C     0.35408   0.54132   0.17352   0.00000  Uiso   1.00
C197   C     0.62436   0.50001   0.15768   0.00000  Uiso   1.00
C198   C     0.37564   0.49999   0.17564   0.00000  Uiso   1.00
C199   C     0.51938   0.35730   0.20458   0.00000  Uiso   1.00
C200   C     0.48063   0.64270   0.12875   0.00000  Uiso   1.00
C201   C     0.48063   0.35730   0.12874   0.00000  Uiso   1.00
C202   C     0.51937   0.64270   0.20459   0.00000  Uiso   1.00
N203   N     0.50000   0.61907   0.16667   0.00000  Uiso   1.00
N204   N     0.50000   0.38093   0.16667   0.00000  Uiso   1.00
Cl205  Cl    0.37640   0.40655   0.19304   0.00000  Uiso   1.00
Cl206  Cl    0.62360   0.59345   0.14028   0.00000  Uiso   1.00
Cl207  Cl    0.62356   0.40659   0.14015   0.00000  Uiso   1.00
Cl208  Cl    0.37643   0.59341   0.19317   0.00000  Uiso   1.00
N209   N     0.54004   0.38087   0.24455   0.00000  Uiso   1.00
O210   O     0.52384   0.38153   0.28853   0.00000  Uiso   1.00
O211   O     0.57827   0.39359   0.23992   0.00000  Uiso   1.00
N212   N     0.45999   0.61913   0.08875   0.00000  Uiso   1.00
O213   O     0.47613   0.61862   0.04474   0.00000  Uiso   1.00
O214   O     0.42186   0.60612   0.09347   0.00000  Uiso   1.00
N215   N     0.46004   0.38086   0.08871   0.00000  Uiso   1.00
O216   O     0.42198   0.39409   0.09346   0.00000  Uiso   1.00
O217   O     0.47613   0.38123   0.04467   0.00000  Uiso   1.00
N218   N     0.53996   0.61915   0.24463   0.00000  Uiso   1.00
O219   O     0.57799   0.60583   0.23984   0.00000  Uiso   1.00
O220   O     0.52390   0.61885   0.28868   0.00000  Uiso   1.00
O221   O     0.77226   0.53821   0.16666   0.00000  Uiso   1.00
O222   O     0.89441   0.46179   0.16667   0.00000  Uiso   1.00
O223   O     0.89441   0.53821   0.16667   0.00000  Uiso   1.00
O224   O     0.77226   0.46179   0.16666   0.00000  Uiso   1.00
C225   C     0.75348   0.50000   0.17134   0.00000  Uiso   1.00
C226   C     0.91319   0.50000   0.16199   0.00000  Uiso   1.00
O227   O     0.83334   0.53821   0.09511   0.00000  Uiso   1.00
O228   O     0.83333   0.46179   0.23822   0.00000  Uiso   1.00
O229   O     0.83333   0.53821   0.23822   0.00000  Uiso   1.00
O230   O     0.83334   0.46179   0.09511   0.00000  Uiso   1.00
C231   C     0.83319   0.50000   0.07291   0.00000  Uiso   1.00
C232   C     0.83348   0.50000   0.26043   0.00000  Uiso   1.00
Zn233  Zn    0.83333   0.55104   0.16667   0.00000  Uiso   1.00
Zn234  Zn    0.83333   0.44896   0.16667   0.00000  Uiso   1.00
C235   C     0.83328   0.50000   0.02179   0.00000  Uiso   1.00
C236   C     0.83338   0.50000   0.31154   0.00000  Uiso   1.00
C237   C     0.68739   0.45867   0.17346   0.00000  Uiso   1.00
C238   C     0.97927   0.54133   0.15986   0.00000  Uiso   1.00
C239   C     0.97925   0.45868   0.15981   0.00000  Uiso   1.00
C240   C     0.68741   0.54132   0.17352   0.00000  Uiso   1.00
C241   C     0.95769   0.50001   0.15768   0.00000  Uiso   1.00
C242   C     0.70898   0.49999   0.17564   0.00000  Uiso   1.00
C243   C     0.85271   0.35730   0.20458   0.00000  Uiso   1.00
C244   C     0.81396   0.64270   0.12875   0.00000  Uiso   1.00
C245   C     0.81396   0.35730   0.12874   0.00000  Uiso   1.00
C246   C     0.85271   0.64270   0.20459   0.00000  Uiso   1.00
N247   N     0.83333   0.61907   0.16667   0.00000  Uiso   1.00
N248   N     0.83333   0.38093   0.16667   0.00000  Uiso   1.00
Cl249  Cl    0.70973   0.40655   0.19304   0.00000  Uiso   1.00
Cl250  Cl    0.95693   0.59345   0.14028   0.00000  Uiso   1.00
Cl251  Cl    0.95690   0.40659   0.14015   0.00000  Uiso   1.00
Cl252  Cl    0.70977   0.59341   0.19317   0.00000  Uiso   1.00
N253   N     0.87337   0.38087   0.24455   0.00000  Uiso   1.00
O254   O     0.85718   0.38153   0.28853   0.00000  Uiso   1.00
O255   O     0.91160   0.39359   0.23992   0.00000  Uiso   1.00
N256   N     0.79333   0.61913   0.08875   0.00000  Uiso   1.00
O257   O     0.80946   0.61862   0.04474   0.00000  Uiso   1.00
O258   O     0.75519   0.60612   0.09347   0.00000  Uiso   1.00
N259   N     0.79337   0.38086   0.08871   0.00000  Uiso   1.00
O260   O     0.75531   0.39409   0.09346   0.00000  Uiso   1.00
O261   O     0.80947   0.38123   0.04467   0.00000  Uiso   1.00
N262   N     0.87329   0.61915   0.24463   0.00000  Uiso   1.00
O263   O     0.91132   0.60583   0.23984   0.00000  Uiso   1.00
O264   O     0.85723   0.61885   0.28868   0.00000  Uiso   1.00
O265   O     0.10559   0.87154   0.16666   0.00000  Uiso   1.00
O266   O     0.22774   0.79513   0.16667   0.00000  Uiso   1.00
O267   O     0.22774   0.87154   0.16667   0.00000  Uiso   1.00
O268   O     0.10559   0.79513   0.16666   0.00000  Uiso   1.00
C269   C     0.08681   0.83333   0.17134   0.00000  Uiso   1.00
C270   C     0.24652   0.83334   0.16199   0.00000  Uiso   1.00
O271   O     0.16667   0.87155   0.09511   0.00000  Uiso   1.00
O272   O     0.16666   0.79512   0.23822   0.00000  Uiso   1.00
O273   O     0.16666   0.87155   0.23822   0.00000  Uiso   1.00
O274   O     0.16667   0.79512   0.09511   0.00000  Uiso   1.00
C275   C     0.16652   0.83333   0.07291   0.00000  Uiso   1.00
C276   C     0.16681   0.83333   0.26043   0.00000  Uiso   1.00
Zn277  Zn    0.16667   0.88437   0.16667   0.00000  Uiso   1.00
Zn278  Zn    0.16667   0.78229   0.16667   0.00000  Uiso   1.00
C279   C     0.16661   0.83334   0.02179   0.00000  Uiso   1.00
C280   C     0.16672   0.83333   0.31154   0.00000  Uiso   1.00
C281   C     0.02073   0.79200   0.17346   0.00000  Uiso   1.00
C282   C     0.31260   0.87467   0.15986   0.00000  Uiso   1.00
C283   C     0.31259   0.79201   0.15981   0.00000  Uiso   1.00
C284   C     0.02074   0.87466   0.17352   0.00000  Uiso   1.00
C285   C     0.29102   0.83334   0.15768   0.00000  Uiso   1.00
C286   C     0.04231   0.83333   0.17564   0.00000  Uiso   1.00
C287   C     0.18605   0.69064   0.20458   0.00000  Uiso   1.00
C288   C     0.14729   0.97603   0.12875   0.00000  Uiso   1.00
C289   C     0.14730   0.69063   0.12874   0.00000  Uiso   1.00
C290   C     0.18604   0.97604   0.20459   0.00000  Uiso   1.00
N291   N     0.16667   0.95240   0.16667   0.00000  Uiso   1.00
N292   N     0.16667   0.71427   0.16667   0.00000  Uiso   1.00
Cl293  Cl    0.04306   0.73989   0.19304   0.00000  Uiso   1.00
Cl294  Cl    0.29027   0.92678   0.14028   0.00000  Uiso   1.00
Cl295  Cl    0.29023   0.73992   0.14015   0.00000  Uiso   1.00
Cl296  Cl    0.04310   0.92674   0.19317   0.00000  Uiso   1.00
N297   N     0.20671   0.71420   0.24455   0.00000  Uiso   1.00
O298   O     0.19051   0.71487   0.28853   0.00000  Uiso   1.00
O299   O     0.24494   0.72692   0.23992   0.00000  Uiso   1.00
N300   N     0.12666   0.95247   0.08875   0.00000  Uiso   1.00
O301   O     0.14280   0.95195   0.04474   0.00000  Uiso   1.00
O302   O     0.08853   0.93946   0.09347   0.00000  Uiso   1.00
N303   N     0.12671   0.71419   0.08871   0.00000  Uiso   1.00
O304   O     0.08865   0.72743   0.09346   0.00000  Uiso   1.00
O305   O     0.14280   0.71456   0.04467   0.00000  Uiso   1.00
N306   N     0.20663   0.95248   0.24463   0.00000  Uiso   1.00
O307   O     0.24466   0.93916   0.23984   0.00000  Uiso   1.00
O308   O     0.19057   0.95219   0.28868   0.00000  Uiso   1.00
O309   O     0.43892   0.87154   0.16666   0.00000  Uiso   1.00
O310   O     0.56108   0.79513   0.16667   0.00000  Uiso   1.00
O311   O     0.56108   0.87154   0.16667   0.00000  Uiso   1.00
O312   O     0.43892   0.79513   0.16666   0.00000  Uiso   1.00
C313   C     0.42014   0.83333   0.17134   0.00000  Uiso   1.00
C314   C     0.57986   0.83334   0.16199   0.00000  Uiso   1.00
O315   O     0.50000   0.87155   0.09511   0.00000  Uiso   1.00
O316   O     0.50000   0.79512   0.23822   0.00000  Uiso   1.00
O317   O     0.50000   0.87155   0.23822   0.00000  Uiso   1.00
O318   O     0.50000   0.79512   0.09511   0.00000  Uiso   1.00
C319   C     0.49986   0.83333   0.07291   0.00000  Uiso   1.00
C320   C     0.50014   0.83333   0.26043   0.00000  Uiso   1.00
Zn321  Zn    0.50000   0.88437   0.16667   0.00000  Uiso   1.00
Zn322  Zn    0.50000   0.78229   0.16667   0.00000  Uiso   1.00
C323   C     0.49995   0.83334   0.02179   0.00000  Uiso   1.00
C324   C     0.50005   0.83333   0.31154   0.00000  Uiso   1.00
C325   C     0.35406   0.79200   0.17346   0.00000  Uiso   1.00
C326   C     0.64594   0.87467   0.15986   0.00000  Uiso   1.00
C327   C     0.64592   0.79201   0.15981   0.00000  Uiso   1.00
C328   C     0.35408   0.87466   0.17352   0.00000  Uiso   1.00
C329   C     0.62436   0.83334   0.15768   0.00000  Uiso   1.00
C330   C     0.37564   0.83333   0.17564   0.00000  Uiso   1.00
C331   C     0.51938   0.69064   0.20458   0.00000  Uiso   1.00
C332   C     0.48063   0.97603   0.12875   0.00000  Uiso   1.00
C333   C     0.48063   0.69063   0.12874   0.00000  Uiso   1.00
C334   C     0.51937   0.97604   0.20459   0.00000  Uiso   1.00
N335   N     0.50000   0.95240   0.16667   0.00000  Uiso   1.00
N336   N     0.50000   0.71427   0.16667   0.00000  Uiso   1.00
Cl337  Cl    0.37640   0.73989   0.19304   0.00000  Uiso   1.00
Cl338  Cl    0.62360   0.92678   0.14028   0.00000  Uiso   1.00
Cl339  Cl    0.62356   0.73992   0.14015   0.00000  Uiso   1.00
Cl340  Cl    0.37643   0.92674   0.19317   0.00000  Uiso   1.00
N341   N     0.54004   0.71420   0.24455   0.00000  Uiso   1.00
O342   O     0.52384   0.71487   0.28853   0.00000  Uiso   1.00
O343   O     0.57827   0.72692   0.23992   0.00000  Uiso   1.00
N344   N     0.45999   0.95247   0.08875   0.00000  Uiso   1.00
O345   O     0.47613   0.95195   0.04474   0.00000  Uiso   1.00
O346   O     0.42186   0.93946   0.09347   0.00000  Uiso   1.00
N347   N     0.46004   0.71419   0.08871   0.00000  Uiso   1.00
O348   O     0.42198   0.72743   0.09346   0.00000  Uiso   1.00
O349   O     0.47613   0.71456   0.04467   0.00000  Uiso   1.00
N350   N     0.53996   0.95248   0.24463   0.00000  Uiso   1.00
O351   O     0.57799   0.93916   0.23984   0.00000  Uiso   1.00
O352   O     0.52390   0.95219   0.28868   0.00000  Uiso   1.00
O353   O     0.77226   0.87154   0.16666   0.00000  Uiso   1.00
O354   O     0.89441   0.79513   0.16667   0.00000  Uiso   1.00
O355   O     0.89441   0.87154   0.16667   0.00000  Uiso   1.00
O356   O     0.77226   0.79513   0.16666   0.00000  Uiso   1.00
C357   C     0.75348   0.83333   0.17134   0.00000  Uiso   1.00
C358   C     0.91319   0.83334   0.16199   0.00000  Uiso   1.00
O359   O     0.83334   0.87155   0.09511   0.00000  Uiso   1.00
O360   O     0.83333   0.79512   0.23822   0.00000  Uiso   1.00
O361   O     0.83333   0.87155   0.23822   0.00000  Uiso   1.00
O362   O     0.83334   0.79512   0.09511   0.00000  Uiso   1.00
C363   C     0.83319   0.83333   0.07291   0.00000  Uiso   1.00
C364   C     0.83348   0.83333   0.26043   0.00000  Uiso   1.00
Zn365  Zn    0.83333   0.88437   0.16667   0.00000  Uiso   1.00
Zn366  Zn    0.83333   0.78229   0.16667   0.00000  Uiso   1.00
C367   C     0.83328   0.83334   0.02179   0.00000  Uiso   1.00
C368   C     0.83338   0.83333   0.31154   0.00000  Uiso   1.00
C369   C     0.68739   0.79200   0.17346   0.00000  Uiso   1.00
C370   C     0.97927   0.87467   0.15986   0.00000  Uiso   1.00
C371   C     0.97925   0.79201   0.15981   0.00000  Uiso   1.00
C372   C     0.68741   0.87466   0.17352   0.00000  Uiso   1.00
C373   C     0.95769   0.83334   0.15768   0.00000  Uiso   1.00
C374   C     0.70898   0.83333   0.17564   0.00000  Uiso   1.00
C375   C     0.85271   0.69064   0.20458   0.00000  Uiso   1.00
C376   C     0.81396   0.97603   0.12875   0.00000  Uiso   1.00
C377   C     0.81396   0.69063   0.12874   0.00000  Uiso   1.00
C378   C     0.85271   0.97604   0.20459   0.00000  Uiso   1.00
N379   N     0.83333   0.95240   0.16667   0.00000  Uiso   1.00
N380   N     0.83333   0.71427   0.16667   0.00000  Uiso   1.00
Cl381  Cl    0.70973   0.73989   0.19304   0.00000  Uiso   1.00
Cl382  Cl    0.95693   0.92678   0.14028   0.00000  Uiso   1.00
Cl383  Cl    0.95690   0.73992   0.14015   0.00000  Uiso   1.00
Cl384  Cl    0.70977   0.92674   0.19317   0.00000  Uiso   1.00
N385   N     0.87337   0.71420   0.24455   0.00000  Uiso   1.00
O386   O     0.85718   0.71487   0.28853   0.00000  Uiso   1.00
O387   O     0.91160   0.72692   0.23992   0.00000  Uiso   1.00
N388   N     0.79333   0.95247   0.08875   0.00000  Uiso   1.00
O389   O     0.80946   0.95195   0.04474   0.00000  Uiso   1.00
O390   O     0.75519   0.93946   0.09347   0.00000  Uiso   1.00
N391   N     0.79337   0.71419   0.08871   0.00000  Uiso   1.00
O392   O     0.75531   0.72743   0.09346   0.00000  Uiso   1.00
O393   O     0.80947   0.71456   0.04467   0.00000  Uiso   1.00
N394   N     0.87329   0.95248   0.24463   0.00000  Uiso   1.00
O395   O     0.91132   0.93916   0.23984   0.00000  Uiso   1.00
O396   O     0.85723   0.95219   0.28868   0.00000  Uiso   1.00
O397   O     0.10559   0.20487   0.50000   0.00000  Uiso   1.00
O398   O     0.22774   0.12846   0.50000   0.00000  Uiso   1.00
O399   O     0.22774   0.20487   0.50000   0.00000  Uiso   1.00
O400   O     0.10559   0.12846   0.50000   0.00000  Uiso   1.00
C401   C     0.08681   0.16666   0.50468   0.00000  Uiso   1.00
C402   C     0.24652   0.16667   0.49532   0.00000  Uiso   1.00
O403   O     0.16667   0.20488   0.42845   0.00000  Uiso   1.00
O404   O     0.16666   0.12845   0.57155   0.00000  Uiso   1.00
O405   O     0.16666   0.20488   0.57155   0.00000  Uiso   1.00
O406   O     0.16667   0.12845   0.42845   0.00000  Uiso   1.00
C407   C     0.16652   0.16667   0.40624   0.00000  Uiso   1.00
C408   C     0.16681   0.16667   0.59376   0.00000  Uiso   1.00
Zn409  Zn    0.16667   0.21771   0.50000   0.00000  Uiso   1.00
Zn410  Zn    0.16667   0.11563   0.50000   0.00000  Uiso   1.00
C411   C     0.16661   0.16667   0.35513   0.00000  Uiso   1.00
C412   C     0.16672   0.16667   0.64487   0.00000  Uiso   1.00
C413   C     0.02073   0.12533   0.50679   0.00000  Uiso   1.00
C414   C     0.31260   0.20800   0.49320   0.00000  Uiso   1.00
C415   C     0.31259   0.12534   0.49314   0.00000  Uiso   1.00
C416   C     0.02074   0.20799   0.50685   0.00000  Uiso   1.00
C417   C     0.29102   0.16667   0.49102   0.00000  Uiso   1.00
C418   C     0.04231   0.16666   0.50898   0.00000  Uiso   1.00
C419   C     0.18605   0.02397   0.53791   0.00000  Uiso   1.00
C420   C     0.14729   0.30937   0.46208   0.00000  Uiso   1.00
C421   C     0.14730   0.02396   0.46208   0.00000  Uiso   1.00
C422   C     0.18604   0.30937   0.53792   0.00000  Uiso   1.00
N423   N     0.16667   0.28573   0.50000   0.00000  Uiso   1.00
N424   N     0.16667   0.04760   0.50000   0.00000  Uiso   1.00
Cl425  Cl    0.04306   0.07322   0.52638   0.00000  Uiso   1.00
Cl426  Cl    0.29027   0.26011   0.47361   0.00000  Uiso   1.00
Cl427  Cl    0.29023   0.07326   0.47349   0.00000  Uiso   1.00
Cl428  Cl    0.04310   0.26008   0.52650   0.00000  Uiso   1.00
N429   N     0.20671   0.04754   0.57789   0.00000  Uiso   1.00
O430   O     0.19051   0.04820   0.62186   0.00000  Uiso   1.00
O431   O     0.24494   0.06025   0.57325   0.00000  Uiso   1.00
N432   N     0.12666   0.28580   0.42208   0.00000  Uiso   1.00
O433   O     0.14280   0.28528   0.37807   0.00000  Uiso   1.00
O434   O     0.08853   0.27279   0.42680   0.00000  Uiso   1.00
N435   N     0.12671   0.04752   0.42204   0.00000  Uiso   1.00
O436   O     0.08865   0.06076   0.42680   0.00000  Uiso   1.00
O437   O     0.14280   0.04790   0.37801   0.00000  Uiso   1.00
N438   N     0.20663   0.28581   0.57796   0.00000  Uiso   1.00
O439   O     0.24466   0.27249   0.57318   0.00000  Uiso   1.00
O440   O     0.19057   0.28552   0.62202   0.00000  Uiso   1.00
O441   O     0.43892   0.20487   0.50000   0.00000  Uiso   1.00
O442   O     0.56108   0.12846   0.50000   0.00000  Uiso   1.00
O443   O     0.56108   0.20487   0.50000   0.00000  Uiso   1.00
O444   O     0.43892   0.12846   0.50000   0.00000  Uiso   1.00
C445   C     0.42014   0.16666   0.50468   0.00000  Uiso   1.00
C446   C     0.57986   0.16667   0.49532   0.00000  Uiso   1.00
O447   O     0.50000   0.20488   0.42845   0.00000  Uiso   1.00
O448   O     0.50000   0.12845   0.57155   0.00000  Uiso   1.00
O449   O     0.50000   0.20488   0.57155   0.00000  Uiso   1.00
O450   O     0.50000   0.12845   0.42845   0.00000  Uiso   1.00
C451   C     0.49986   0.16667   0.40624   0.00000  Uiso   1.00
C452   C     0.50014   0.16667   0.59376   0.00000  Uiso   1.00
Zn453  Zn    0.50000   0.21771   0.50000   0.00000  Uiso   1.00
Zn454  Zn    0.50000   0.11563   0.50000   0.00000  Uiso   1.00
C455   C     0.49995   0.16667   0.35513   0.00000  Uiso   1.00
C456   C     0.50005   0.16667   0.64487   0.00000  Uiso   1.00
C457   C     0.35406   0.12533   0.50679   0.00000  Uiso   1.00
C458   C     0.64594   0.20800   0.49320   0.00000  Uiso   1.00
C459   C     0.64592   0.12534   0.49314   0.00000  Uiso   1.00
C460   C     0.35408   0.20799   0.50685   0.00000  Uiso   1.00
C461   C     0.62436   0.16667   0.49102   0.00000  Uiso   1.00
C462   C     0.37564   0.16666   0.50898   0.00000  Uiso   1.00
C463   C     0.51938   0.02397   0.53791   0.00000  Uiso   1.00
C464   C     0.48063   0.30937   0.46208   0.00000  Uiso   1.00
C465   C     0.48063   0.02396   0.46208   0.00000  Uiso   1.00
C466   C     0.51937   0.30937   0.53792   0.00000  Uiso   1.00
N467   N     0.50000   0.28573   0.50000   0.00000  Uiso   1.00
N468   N     0.50000   0.04760   0.50000   0.00000  Uiso   1.00
Cl469  Cl    0.37640   0.07322   0.52638   0.00000  Uiso   1.00
Cl470  Cl    0.62360   0.26011   0.47361   0.00000  Uiso   1.00
Cl471  Cl    0.62356   0.07326   0.47349   0.00000  Uiso   1.00
Cl472  Cl    0.37643   0.26008   0.52650   0.00000  Uiso   1.00
N473   N     0.54004   0.04754   0.57789   0.00000  Uiso   1.00
O474   O     0.52384   0.04820   0.62186   0.00000  Uiso   1.00
O475   O     0.57827   0.06025   0.57325   0.00000  Uiso   1.00
N476   N     0.45999   0.28580   0.42208   0.00000  Uiso   1.00
O477   O     0.47613   0.28528   0.37807   0.00000  Uiso   1.00
O478   O     0.42186   0.27279   0.42680   0.00000  Uiso   1.00
N479   N     0.46004   0.04752   0.42204   0.00000  Uiso   1.00
O480   O     0.42198   0.06076   0.42680   0.00000  Uiso   1.00
O481   O     0.47613   0.04790   0.37801   0.00000  Uiso   1.00
N482   N     0.53996   0.28581   0.57796   0.00000  Uiso   1.00
O483   O     0.57799   0.27249   0.57318   0.00000  Uiso   1.00
O484   O     0.52390   0.28552   0.62202   0.00000  Uiso   1.00
O485   O     0.77226   0.20487   0.50000   0.00000  Uiso   1.00
O486   O     0.89441   0.12846   0.50000   0.00000  Uiso   1.00
O487   O     0.89441   0.20487   0.50000   0.00000  Uiso   1.00
O488   O     0.77226   0.12846   0.50000   0.00000  Uiso   1.00
C489   C     0.75348   0.16666   0.50468   0.00000  Uiso   1.00
C490   C     0.91319   0.16667   0.49532   0.00000  Uiso   1.00
O491   O     0.83334   0.20488   0.42845   0.00000  Uiso   1.00
O492   O     0.83333   0.12845   0.57155   0.00000  Uiso   1.00
O493   O     0.83333   0.20488   0.57155   0.00000  Uiso   1.00
O494   O     0.83334   0.12845   0.42845   0.00000  Uiso   1.00
C495   C     0.83319   0.16667   0.40624   0.00000  Uiso   1.00
C496   C     0.83348   0.16667   0.59376   0.00000  Uiso   1.00
Zn497  Zn    0.83333   0.21771   0.50000   0.00000  Uiso   1.00
Zn498  Zn    0.83333   0.11563   0.50000   0.00000  Uiso   1.00
C499   C     0.83328   0.16667   0.35513   0.00000  Uiso   1.00
C500   C     0.83338   0.16667   0.64487   0.00000  Uiso   1.00
C501   C     0.68739   0.12533   0.50679   0.00000  Uiso   1.00
C502   C     0.97927   0.20800   0.49320   0.00000  Uiso   1.00
C503   C     0.97925   0.12534   0.49314   0.00000  Uiso   1.00
C504   C     0.68741   0.20799   0.50685   0.00000  Uiso   1.00
C505   C     0.95769   0.16667   0.49102   0.00000  Uiso   1.00
C506   C     0.70898   0.16666   0.50898   0.00000  Uiso   1.00
C507   C     0.85271   0.02397   0.53791   0.00000  Uiso   1.00
C508   C     0.81396   0.30937   0.46208   0.00000  Uiso   1.00
C509   C     0.81396   0.02396   0.46208   0.00000  Uiso   1.00
C510   C     0.85271   0.30937   0.53792   0.00000  Uiso   1.00
N511   N     0.83333   0.28573   0.50000   0.00000  Uiso   1.00
N512   N     0.83333   0.04760   0.50000   0.00000  Uiso   1.00
Cl513  Cl    0.70973   0.07322   0.52638   0.00000  Uiso   1.00
Cl514  Cl    0.95693   0.26011   0.47361   0.00000  Uiso   1.00
Cl515  Cl    0.95690   0.07326   0.47349   0.00000  Uiso   1.00
Cl516  Cl    0.70977   0.26008   0.52650   0.00000  Uiso   1.00
N517   N     0.87337   0.04754   0.57789   0.00000  Uiso   1.00
O518   O     0.85718   0.04820   0.62186   0.00000  Uiso   1.00
O519   O     0.91160   0.06025   0.57325   0.00000  Uiso   1.00
N520   N     0.79333   0.28580   0.42208   0.00000  Uiso   1.00
O521   O     0.80946   0.28528   0.37807   0.00000  Uiso   1.00
O522   O     0.75519   0.27279   0.42680   0.00000  Uiso   1.00
N523   N     0.79337   0.04752   0.42204   0.00000  Uiso   1.00
O524   O     0.75531   0.06076   0.42680   0.00000  Uiso   1.00
O525   O     0.80947   0.04790   0.37801   0.00000  Uiso   1.00
N526   N     0.87329   0.28581   0.57796   0.00000  Uiso   1.00
O527   O     0.91132   0.27249   0.57318   0.00000  Uiso   1.00
O528   O     0.85723   0.28552   0.62202   0.00000  Uiso   1.00
O529   O     0.10559   0.53821   0.50000   0.00000  Uiso   1.00
O530   O     0.22774   0.46179   0.50000   0.00000  Uiso   1.00
O531   O     0.22774   0.53821   0.50000   0.00000  Uiso   1.00
O532   O     0.10559   0.46179   0.50000   0.00000  Uiso   1.00
C533   C     0.08681   0.50000   0.50468   0.00000  Uiso   1.00
C534   C     0.24652   0.50000   0.49532   0.00000  Uiso   1.00
O535   O     0.16667   0.53821   0.42845   0.00000  Uiso   1.00
O536   O     0.16666   0.46179   0.57155   0.00000  Uiso   1.00
O537   O     0.16666   0.53821   0.57155   0.00000  Uiso   1.00
O538   O     0.16667   0.46179   0.42845   0.00000  Uiso   1.00
C539   C     0.16652   0.50000   0.40624   0.00000  Uiso   1.00
C540   C     0.16681   0.50000   0.59376   0.00000  Uiso   1.00
Zn541  Zn    0.16667   0.55104   0.50000   0.00000  Uiso   1.00
Zn542  Zn    0.16667   0.44896   0.50000   0.00000  Uiso   1.00
C543   C     0.16661   0.50000   0.35513   0.00000  Uiso   1.00
C544   C     0.16672   0.50000   0.64487   0.00000  Uiso   1.00
C545   C     0.02073   0.45867   0.50679   0.00000  Uiso   1.00
C546   C     0.31260   0.54133   0.49320   0.00000  Uiso   1.00
C547   C     0.31259   0.45868   0.49314   0.00000  Uiso   1.00
C548   C     0.02074   0.54132   0.50685   0.00000  Uiso   1.00
C549   C     0.29102   0.50001   0.49102   0.00000  Uiso   1.00
C550   C     0.04231   0.49999   0.50898   0.00000  Uiso   1.00
C551   C     0.18605   0.35730   0.53791   0.00000  Uiso   1.00
C552   C     0.14729   0.64270   0.46208   0.00000  Uiso   1.00
C553   C     0.14730   0.35730   0.46208   0.00000  Uiso   1.00
C554   C     0.18604   0.64270   0.53792   0.00000  Uiso   1.00
N555   N     0.16667   0.61907   0.50000   0.00000  Uiso   1.00
N556   N     0.16667   0.38093   0.50000   0.00000  Uiso   1.00
Cl557  Cl    0.04306   0.40655   0.52638   0.00000  Uiso   1.00
Cl558  Cl    0.29027   0.59345   0.47361   0.00000  Uiso   1.00
Cl559  Cl    0.29023   0.40659   0.47349   0.00000  Uiso   1.00
Cl560  Cl    0.04310   0.59341   0.52650   0.00000  Uiso   1.00
N561   N     0.20671   0.38087   0.57789   0.00000  Uiso   1.00
O562   O     0.19051   0.38153   0.62186   0.00000  Uiso   1.00
O563   O     0.24494   0.39359   0.57325   0.00000  Uiso   1.00
N564   N     0.12666   0.61913   0.42208   0.00000  Uiso   1.00
O565   O     0.14280   0.61862   0.37807   0.00000  Uiso   1.00
O566   O     0.08853   0.60612   0.42680   0.00000  Uiso   1.00
N567   N     0.12671   0.38086   0.42204   0.00000  Uiso   1.00
O568   O     0.08865   0.39409   0.42680   0.00000  Uiso   1.00
O569   O     0.14280   0.38123   0.37801   0.00000  Uiso   1.00
N570   N     0.20663   0.61915   0.57796   0.00000  Uiso   1.00
O571   O     0.24466   0.60583   0.57318   0.00000  Uiso   1.00
O572   O     0.19057   0.61885   0.62202   0.00000  Uiso   1.00
O573   O     0.43892   0.53821   0.50000   0.00000  Uiso   1.00
O574   O     0.56108   0.46179   0.50000   0.00000  Uiso   1.00
O575   O     0.56108   0.53821   0.50000   0.00000  Uiso   1.00
O576   O     0.43892   0.46179   0.50000   0.00000  Uiso   1.00
C577   C     0.42014   0.50000   0.50468   0.00000  Uiso   1.00
C578   C     0.57986   0.50000   0.49532   0.00000  Uiso   1.00
O579   O     0.50000   0.53821   0.42845   0.00000  Uiso   1.00
O580   O     0.50000   0.46179   0.57155   0.00000  Uiso   1.00
O581   O     0.50000   0.53821   0.57155   0.00000  Uiso   1.00
O582   O     0.50000   0.46179   0.42845   0.00000  Uiso   1.00
C583   C     0.49986   0.50000   0.40624   0.00000  Uiso   1.00
C584   C     0.50014   0.50000   0.59376   0.00000  Uiso   1.00
Zn585  Zn    0.50000   0.55104   0.50000   0.00000  Uiso   1.00
Zn586  Zn    0.50000   0.44896   0.50000   0.00000  Uiso   1.00
C587   C     0.49995   0.50000   0.35513   0.00000  Uiso   1.00
C588   C     0.50005   0.50000   0.64487   0.00000  Uiso   1.00
C589   C     0.35406   0.45867   0.50679   0.00000  Uiso   1.00
C590   C     0.64594   0.54133   0.49320   0.00000  Uiso   1.00
C591   C     0.64592   0.45868   0.49314   0.00000  Uiso   1.00
C592   C     0.35408   0.54132   0.50685   0.00000  Uiso   1.00
C593   C     0.62436   0.50001   0.49102   0.00000  Uiso   1.00
C594   C     0.37564   0.49999   0.50898   0.00000  Uiso   1.00
C595   C     0.51938   0.35730   0.53791   0.00000  Uiso   1.00
C596   C     0.48063   0.64270   0.46208   0.00000  Uiso   1.00
C597   C     0.48063   0.35730   0.46208   0.00000  Uiso   1.00
C598   C     0.51937   0.64270   0.53792   0.00000  Uiso   1.00
N599   N     0.50000   0.61907   0.50000   0.00000  Uiso   1.00
N600   N     0.50000   0.38093   0.50000   0.00000  Uiso   1.00
Cl601  Cl    0.37640   0.40655   0.52638   0.00000  Uiso   1.00
Cl602  Cl    0.62360   0.59345   0.47361   0.00000  Uiso   1.00
Cl603  Cl    0.62356   0.40659   0.47349   0.00000  Uiso   1.00
Cl604  Cl    0.37643   0.59341   0.52650   0.00000  Uiso   1.00
N605   N     0.54004   0.38087   0.57789   0.00000  Uiso   1.00
O606   O     0.52384   0.38153   0.62186   0.00000  Uiso   1.00
O607   O     0.57827   0.39359   0.57325   0.00000  Uiso   1.00
N608   N     0.45999   0.61913   0.42208   0.00000  Uiso   1.00
O609   O     0.47613   0.61862   0.37807   0.00000  Uiso   1.00
O610   O     0.42186   0.60612   0.42680   0.00000  Uiso   1.00
N611   N     0.46004   0.38086   0.42204   0.00000  Uiso   1.00
O612   O     0.42198   0.39409   0.42680   0.00000  Uiso   1.00
O613   O     0.47613   0.38123   0.37801   0.00000  Uiso   1.00
N614   N     0.53996   0.61915   0.57796   0.00000  Uiso   1.00
O615   O     0.57799   0.60583   0.57318   0.00000  Uiso   1.00
O616   O     0.52390   0.61885   0.62202   0.00000  Uiso   1.00
O617   O     0.77226   0.53821   0.50000   0.00000  Uiso   1.00
O618   O     0.89441   0.46179   0.50000   0.00000  Uiso   1.00
O619   O     0.89441   0.53821   0.50000   0.00000  Uiso   1.00
O620   O     0.77226   0.46179   0.50000   0.00000  Uiso   1.00
C621   C     0.75348   0.50000   0.50468   0.00000  Uiso   1.00
C622   C     0.91319   0.50000   0.49532   0.00000  Uiso   1.00
O623   O     0.83334   0.53821   0.42845   0.00000  Uiso   1.00
O624   O     0.83333   0.46179   0.57155   0.00000  Uiso   1.00
O625   O     0.83333   0.53821   0.57155   0.00000  Uiso   1.00
O626   O     0.83334   0.46179   0.42845   0.00000  Uiso   1.00
C627   C     0.83319   0.50000   0.40624   0.00000  Uiso   1.00
C628   C     0.83348   0.50000   0.59376   0.00000  Uiso   1.00
Zn629  Zn    0.83333   0.55104   0.50000   0.00000  Uiso   1.00
Zn630  Zn    0.83333   0.44896   0.50000   0.00000  Uiso   1.00
C631   C     0.83328   0.50000   0.35513   0.00000  Uiso   1.00
C632   C     0.83338   0.50000   0.64487   0.00000  Uiso   1.00
C633   C     0.68739   0.45867   0.50679   0.00000  Uiso   1.00
C634   C     0.97927   0.54133   0.49320   0.00000  Uiso   1.00
C635   C     0.97925   0.45868   0.49314   0.00000  Uiso   1.00
C636   C     0.68741   0.54132   0.50685   0.00000  Uiso   1.00
C637   C     0.95769   0.50001   0.49102   0.00000  Uiso   1.00
C638   C     0.70898   0.49999   0.50898   0.00000  Uiso   1.00
C639   C     0.85271   0.35730   0.53791   0.00000  Uiso   1.00
C640   C     0.81396   0.64270   0.46208   0.00000  Uiso   1.00
C641   C     0.81396   0.35730   0.46208   0.00000  Uiso   1.00
C642   C     0.85271   0.64270   0.53792   0.00000  Uiso   1.00
N643   N     0.83333   0.61907   0.50000   0.00000  Uiso   1.00
N644   N     0.83333   0.38093   0.50000   0.00000  Uiso   1.00
Cl645  Cl    0.70973   0.40655   0.52638   0.00000  Uiso   1.00
Cl646  Cl    0.95693   0.59345   0.47361   0.00000  Uiso   1.00
Cl647  Cl    0.95690   0.40659   0.47349   0.00000  Uiso   1.00
Cl648  Cl    0.70977   0.59341   0.52650   0.00000  Uiso   1.00
N649   N     0.87337   0.38087   0.57789   0.00000  Uiso   1.00
O650   O     0.85718   0.38153   0.62186   0.00000  Uiso   1.00
O651   O     0.91160   0.39359   0.57325   0.00000  Uiso   1.00
N652   N     0.79333   0.61913   0.42208   0.00000  Uiso   1.00
O653   O     0.80946   0.61862   0.37807   0.00000  Uiso   1.00
O654   O     0.75519   0.60612   0.42680   0.00000  Uiso   1.00
N655   N     0.79337   0.38086   0.42204   0.00000  Uiso   1.00
O656   O     0.75531   0.39409   0.42680   0.00000  Uiso   1.00
O657   O     0.80947   0.38123   0.37801   0.00000  Uiso   1.00
N658   N     0.87329   0.61915   0.57796   0.00000  Uiso   1.00
O659   O     0.91132   0.60583   0.57318   0.00000  Uiso   1.00
O660   O     0.85723   0.61885   0.62202   0.00000  Uiso   1.00
O661   O     0.10559   0.87154   0.50000   0.00000  Uiso   1.00
O662   O     0.22774   0.79513   0.50000   0.00000  Uiso   1.00
O663   O     0.22774   0.87154   0.50000   0.00000  Uiso   1.00
O664   O     0.10559   0.79513   0.50000   0.00000  Uiso   1.00
C665   C     0.08681   0.83333   0.50468   0.00000  Uiso   1.00
C666   C     0.24652   0.83334   0.49532   0.00000  Uiso   1.00
O667   O     0.16667   0.87155   0.42845   0.00000  Uiso   1.00
O668   O     0.16666   0.79512   0.57155   0.00000  Uiso   1.00
O669   O     0.16666   0.87155   0.57155   0.00000  Uiso   1.00
O670   O     0.16667   0.79512   0.42845   0.00000  Uiso   1.00
C671   C     0.16652   0.83333   0.40624   0.00000  Uiso   1.00
C672   C     0.16681   0.83333   0.59376   0.00000  Uiso   1.00
Zn673  Zn    0.16667   0.88437   0.50000   0.00000  Uiso   1.00
Zn674  Zn    0.16667   0.78229   0.50000   0.00000  Uiso   1.00
C675   C     0.16661   0.83334   0.35513   0.00000  Uiso   1.00
C676   C     0.16672   0.83333   0.64487   0.00000  Uiso   1.00
C677   C     0.02073   0.79200   0.50679   0.00000  Uiso   1.00
C678   C     0.31260   0.87467   0.49320   0.00000  Uiso   1.00
C679   C     0.31259   0.79201   0.49314   0.00000  Uiso   1.00
C680   C     0.02074   0.87466   0.50685   0.00000  Uiso   1.00
C681   C     0.29102   0.83334   0.49102   0.00000  Uiso   1.00
C682   C     0.04231   0.83333   0.50898   0.00000  Uiso   1.00
C683   C     0.18605   0.69064   0.53791   0.00000  Uiso   1.00
C684   C     0.14729   0.97603   0.46208   0.00000  Uiso   1.00
C685   C     0.14730   0.69063   0.46208   0.00000  Uiso   1.00
C686   C     0.18604   0.97604   0.53792   0.00000  Uiso   1.00
N687   N     0.16667   0.95240   0.50000   0.00000  Uiso   1.00
N688   N     0.16667   0.71427   0.50000   0.00000  Uiso   1.00
Cl689  Cl    0.04306   0.73989   0.52638   0.00000  Uiso   1.00
Cl690  Cl    0.29027   0.92678   0.47361   0.00000  Uiso   1.00
Cl691  Cl    0.29023   0.73992   0.47349   0.00000  Uiso   1.00
Cl692  Cl    0.04310   0.92674   0.52650   0.00000  Uiso   1.00
N693   N     0.20671   0.71420   0.57789   0.00000  Uiso   1.00
O694   O     0.19051   0.71487   0.62186   0.00000  Uiso   1.00
O695   O     0.24494   0.72692   0.57325   0.00000  Uiso   1.00
N696   N     0.12666   0.95247   0.42208   0.00000  Uiso   1.00
O697   O     0.14280   0.95195   0.37807   0.00000  Uiso   1.00
O698   O     0.08853   0.93946   0.42680   0.00000  Uiso   1.00
N699   N     0.12671   0.71419   0.42204   0.00000  Uiso   1.00
O700   O     0.08865   0.72743   0.42680   0.00000  Uiso   1.00
O701   O     0.14280   0.71456   0.37801   0.00000  Uiso   1.00
N702   N     0.20663   0.95248   0.57796   0.00000  Uiso   1.00
O703   O     0.24466   0.93916   0.57318   0.00000  Uiso   1.00
O704   O     0.19057   0.95219   0.62202   0.00000  Uiso   1.00
O705   O     0.43892   0.87154   0.50000   0.00000  Uiso   1.00
O706   O     0.56108   0.79513   0.50000   0.00000  Uiso   1.00
O707   O     0.56108   0.87154   0.50000   0.00000  Uiso   1.00
O708   O     0.43892   0.79513   0.50000   0.00000  Uiso   1.00
C709   C     0.42014   0.83333   0.50468   0.00000  Uiso   1.00
C710   C     0.57986   0.83334   0.49532   0.00000  Uiso   1.00
O711   O     0.50000   0.87155   0.42845   0.00000  Uiso   1.00
O712   O     0.50000   0.79512   0.57155   0.00000  Uiso   1.00
O713   O     0.50000   0.87155   0.57155   0.00000  Uiso   1.00
O714   O     0.50000   0.79512   0.42845   0.00000  Uiso   1.00
C715   C     0.49986   0.83333   0.40624   0.00000  Uiso   1.00
C716   C     0.50014   0.83333   0.59376   0.00000  Uiso   1.00
Zn717  Zn    0.50000   0.88437   0.50000   0.00000  Uiso   1.00
Zn718  Zn    0.50000   0.78229   0.50000   0.00000  Uiso   1.00
C719   C     0.49995   0.83334   0.35513   0.00000  Uiso   1.00
C720   C     0.50005   0.83333   0.64487   0.00000  Uiso   1.00
C721   C     0.35406   0.79200   0.50679   0.00000  Uiso   1.00
C722   C     0.64594   0.87467   0.49320   0.00000  Uiso   1.00
C723   C     0.64592   0.79201   0.49314   0.00000  Uiso   1.00
C724   C     0.35408   0.87466   0.50685   0.00000  Uiso   1.00
C725   C     0.62436   0.83334   0.49102   0.00000  Uiso   1.00
C726   C     0.37564   0.83333   0.50898   0.00000  Uiso   1.00
C727   C     0.51938   0.69064   0.53791   0.00000  Uiso   1.00
C728   C     0.48063   0.97603   0.46208   0.00000  Uiso   1.00
C729   C     0.48063   0.69063   0.46208   0.00000  Uiso   1.00
C730   C     0.51937   0.97604   0.53792   0.00000  Uiso   1.00
N731   N     0.50000   0.95240   0.50000   0.00000  Uiso   1.00
N732   N     0.50000   0.71427   0.50000   0.00000  Uiso   1.00
Cl733  Cl    0.37640   0.73989   0.52638   0.00000  Uiso   1.00
Cl734  Cl    0.62360   0.92678   0.47361   0.00000  Uiso   1.00
Cl735  Cl    0.62356   0.73992   0.47349   0.00000  Uiso   1.00
Cl736  Cl    0.37643   0.92674   0.52650   0.00000  Uiso   1.00
N737   N     0.54004   0.71420   0.57789   0.00000  Uiso   1.00
O738   O     0.52384   0.71487   0.62186   0.00000  Uiso   1.00
O739   O     0.57827   0.72692   0.57325   0.00000  Uiso   1.00
N740   N     0.45999   0.95247   0.42208   0.00000  Uiso   1.00
O741   O     0.47613   0.95195   0.37807   0.00000  Uiso   1.00
O742   O     0.42186   0.93946   0.42680   0.00000  Uiso   1.00
N743   N     0.46004   0.71419   0.42204   0.00000  Uiso   1.00
O744   O     0.42198   0.72743   0.42680   0.00000  Uiso   1.00
O745   O     0.47613   0.71456   0.37801   0.00000  Uiso   1.00
N746   N     0.53996   0.95248   0.57796   0.00000  Uiso   1.00
O747   O     0.57799   0.93916   0.57318   0.00000  Uiso   1.00
O748   O     0.52390   0.95219   0.62202   0.00000  Uiso   1.00
O749   O     0.77226   0.87154   0.50000   0.00000  Uiso   1.00
O750   O     0.89441   0.79513   0.50000   0.00000  Uiso   1.00
O751   O     0.89441   0.87154   0.50000   0.00000  Uiso   1.00
O752   O     0.77226   0.79513   0.50000   0.00000  Uiso   1.00
C753   C     0.75348   0.83333   0.50468   0.00000  Uiso   1.00
C754   C     0.91319   0.83334   0.49532   0.00000  Uiso   1.00
O755   O     0.83334   0.87155   0.42845   0.00000  Uiso   1.00
O756   O     0.83333   0.79512   0.57155   0.00000  Uiso   1.00
O757   O     0.83333   0.87155   0.57155   0.00000  Uiso   1.00
O758   O     0.83334   0.79512   0.42845   0.00000  Uiso   1.00
C759   C     0.83319   0.83333   0.40624   0.00000  Uiso   1.00
C760   C     0.83348   0.83333   0.59376   0.00000  Uiso   1.00
Zn761  Zn    0.83333   0.88437   0.50000   0.00000  Uiso   1.00
Zn762  Zn    0.83333   0.78229   0.50000   0.00000  Uiso   1.00
C763   C     0.83328   0.83334   0.35513   0.00000  Uiso   1.00
C764   C     0.83338   0.83333   0.64487   0.00000  Uiso   1.00
C765   C     0.68739   0.79200   0.50679   0.00000  Uiso   1.00
C766   C     0.97927   0.87467   0.49320   0.00000  Uiso   1.00
C767   C     0.97925   0.79201   0.49314   0.00000  Uiso   1.00
C768   C     0.68741   0.87466   0.50685   0.00000  Uiso   1.00
C769   C     0.95769   0.83334   0.49102   0.00000  Uiso   1.00
C770   C     0.70898   0.83333   0.50898   0.00000  Uiso   1.00
C771   C     0.85271   0.69064   0.53791   0.00000  Uiso   1.00
C772   C     0.81396   0.97603   0.46208   0.00000  Uiso   1.00
C773   C     0.81396   0.69063   0.46208   0.00000  Uiso   1.00
C774   C     0.85271   0.97604   0.53792   0.00000  Uiso   1.00
N775   N     0.83333   0.95240   0.50000   0.00000  Uiso   1.00
N776   N     0.83333   0.71427   0.50000   0.00000  Uiso   1.00
Cl777  Cl    0.70973   0.73989   0.52638   0.00000  Uiso   1.00
Cl778  Cl    0.95693   0.92678   0.47361   0.00000  Uiso   1.00
Cl779  Cl    0.95690   0.73992   0.47349   0.00000  Uiso   1.00
Cl780  Cl    0.70977   0.92674   0.52650   0.00000  Uiso   1.00
N781   N     0.87337   0.71420   0.57789   0.00000  Uiso   1.00
O782   O     0.85718   0.71487   0.62186   0.00000  Uiso   1.00
O783   O     0.91160   0.72692   0.57325   0.00000  Uiso   1.00
N784   N     0.79333   0.95247   0.42208   0.00000  Uiso   1.00
O785   O     0.80946   0.95195   0.37807   0.00000  Uiso   1.00
O786   O     0.75519   0.93946   0.42680   0.00000  Uiso   1.00
N787   N     0.79337   0.71419   0.42204   0.00000  Uiso   1.00
O788   O     0.75531   0.72743   0.42680   0.00000  Uiso   1.00
O789   O     0.80947   0.71456   0.37801   0.00000  Uiso   1.00
N790   N     0.87329   0.95248   0.57796   0.00000  Uiso   1.00
O791   O     0.91132   0.93916   0.57318   0.00000  Uiso   1.00
O792   O     0.85723   0.95219   0.62202   0.00000  Uiso   1.00
O793   O     0.10559   0.20487   0.83333   0.00000  Uiso   1.00
O794   O     0.22774   0.12846   0.83334   0.00000  Uiso   1.00
O795   O     0.22774   0.20487   0.83334   0.00000  Uiso   1.00
O796   O     0.10559   0.12846   0.83333   0.00000  Uiso   1.00
C797   C     0.08681   0.16666   0.83801   0.00000  Uiso   1.00
C798   C     0.24652   0.16667   0.82865   0.00000  Uiso   1.00
O799   O     0.16667   0.20488   0.76178   0.00000  Uiso   1.00
O800   O     0.16666   0.12845   0.90489   0.00000  Uiso   1.00
O801   O     0.16666   0.20488   0.90489   0.00000  Uiso   1.00
O802   O     0.16667   0.12845   0.76178   0.00000  Uiso   1.00
C803   C     0.16652   0.16667   0.73957   0.00000  Uiso   1.00
C804   C     0.16681   0.16667   0.92710   0.00000  Uiso   1.00
Zn805  Zn    0.16667   0.21771   0.83333   0.00000  Uiso   1.00
Zn806  Zn    0.16667   0.11563   0.83333   0.00000  Uiso   1.00
C807   C     0.16661   0.16667   0.68846   0.00000  Uiso   1.00
C808   C     0.16672   0.16667   0.97821   0.00000  Uiso   1.00
C809   C     0.02073   0.12533   0.84013   0.00000  Uiso   1.00
C810   C     0.31260   0.20800   0.82653   0.00000  Uiso   1.00
C811   C     0.31259   0.12534   0.82648   0.00000  Uiso   1.00
C812   C     0.02074   0.20799   0.84018   0.00000  Uiso   1.00
C813   C     0.29102   0.16667   0.82435   0.00000  Uiso   1.00
C814   C     0.04231   0.16666   0.84231   0.00000  Uiso   1.00
C815   C     0.18605   0.02397   0.87125   0.00000  Uiso   1.00
C816   C     0.14729   0.30937   0.79541   0.00000  Uiso   1.00
C817   C     0.14730   0.02396   0.79541   0.00000  Uiso   1.00
C818   C     0.18604   0.30937   0.87125   0.00000  Uiso   1.00
N819   N     0.16667   0.28573   0.83333   0.00000  Uiso   1.00
N820   N     0.16667   0.04760   0.83333   0.00000  Uiso   1.00
Cl821  Cl    0.04306   0.07322   0.85971   0.00000  Uiso   1.00
Cl822  Cl    0.29027   0.26011   0.80694   0.00000  Uiso   1.00
Cl823  Cl    0.29023   0.07326   0.80682   0.00000  Uiso   1.00
Cl824  Cl    0.04310   0.26008   0.85983   0.00000  Uiso   1.00
N825   N     0.20671   0.04754   0.91122   0.00000  Uiso   1.00
O826   O     0.19051   0.04820   0.95520   0.00000  Uiso   1.00
O827   O     0.24494   0.06025   0.90658   0.00000  Uiso   1.00
N828   N     0.12666   0.28580   0.75542   0.00000  Uiso   1.00
O829   O     0.14280   0.28528   0.71141   0.00000  Uiso   1.00
O830   O     0.08853   0.27279   0.76013   0.00000  Uiso   1.00
N831   N     0.12671   0.04752   0.75538   0.00000  Uiso   1.00
O832   O     0.08865   0.06076   0.76013   0.00000  Uiso   1.00
O833   O     0.14280   0.04790   0.71134   0.00000  Uiso   1.00
N834   N     0.20663   0.28581   0.91129   0.00000  Uiso   1.00
O835   O     0.24466   0.27249   0.90651   0.00000  Uiso   1.00
O836   O     0.19057   0.28552   0.95535   0.00000  Uiso   1.00
O837   O     0.43892   0.20487   0.83333   0.00000  Uiso   1.00
O838   O     0.56108   0.12846   0.83334   0.00000  Uiso   1.00
O839   O     0.56108   0.20487   0.83334   0.00000  Uiso   1.00
O840   O     0.43892   0.12846   0.83333   0.00000  Uiso   1.00
C841   C     0.42014   0.16666   0.83801   0.00000  Uiso   1.00
C842   C     0.57986   0.16667   0.82865   0.00000  Uiso   1.00
O843   O     0.50000   0.20488   0.76178   0.00000  Uiso   1.00
O844   O     0.50000   0.12845   0.90489   0.00000  Uiso   1.00
O845   O     0.50000   0.20488   0.90489   0.00000  Uiso   1.00
O846   O     0.50000   0.12845   0.76178   0.00000  Uiso   1.00
C847   C     0.49986   0.16667   0.73957   0.00000  Uiso   1.00
C848   C     0.50014   0.16667   0.92710   0.00000  Uiso   1.00
Zn849  Zn    0.50000   0.21771   0.83333   0.00000  Uiso   1.00
Zn850  Zn    0.50000   0.11563   0.83333   0.00000  Uiso   1.00
C851   C     0.49995   0.16667   0.68846   0.00000  Uiso   1.00
C852   C     0.50005   0.16667   0.97821   0.00000  Uiso   1.00
C853   C     0.35406   0.12533   0.84013   0.00000  Uiso   1.00
C854   C     0.64594   0.20800   0.82653   0.00000  Uiso   1.00
C855   C     0.64592   0.12534   0.82648   0.00000  Uiso   1.00
C856   C     0.35408   0.20799   0.84018   0.00000  Uiso   1.00
C857   C     0.62436   0.16667   0.82435   0.00000  Uiso   1.00
C858   C     0.37564   0.16666   0.84231   0.00000  Uiso   1.00
C859   C     0.51938   0.02397   0.87125   0.00000  Uiso   1.00
C860   C     0.48063   0.30937   0.79541   0.00000  Uiso   1.00
C861   C     0.48063   0.02396   0.79541   0.00000  Uiso   1.00
C862   C     0.51937   0.30937   0.87125   0.00000  Uiso   1.00
N863   N     0.50000   0.28573   0.83333   0.00000  Uiso   1.00
N864   N     0.50000   0.04760   0.83333   0.00000  Uiso   1.00
Cl865  Cl    0.37640   0.07322   0.85971   0.00000  Uiso   1.00
Cl866  Cl    0.62360   0.26011   0.80694   0.00000  Uiso   1.00
Cl867  Cl    0.62356   0.07326   0.80682   0.00000  Uiso   1.00
Cl868  Cl    0.37643   0.26008   0.85983   0.00000  Uiso   1.00
N869   N     0.54004   0.04754   0.91122   0.00000  Uiso   1.00
O870   O     0.52384   0.04820   0.95520   0.00000  Uiso   1.00
O871   O     0.57827   0.06025   0.90658   0.00000  Uiso   1.00
N872   N     0.45999   0.28580   0.75542   0.00000  Uiso   1.00
O873   O     0.47613   0.28528   0.71141   0.00000  Uiso   1.00
O874   O     0.42186   0.27279   0.76013   0.00000  Uiso   1.00
N875   N     0.46004   0.04752   0.75538   0.00000  Uiso   1.00
O876   O     0.42198   0.06076   0.76013   0.00000  Uiso   1.00
O877   O     0.47613   0.04790   0.71134   0.00000  Uiso   1.00
N878   N     0.53996   0.28581   0.91129   0.00000  Uiso   1.00
O879   O     0.57799   0.27249   0.90651   0.00000  Uiso   1.00
O880   O     0.52390   0.28552   0.95535   0.00000  Uiso   1.00
O881   O     0.77226   0.20487   0.83333   0.00000  Uiso   1.00
O882   O     0.89441   0.12846   0.83334   0.00000  Uiso   1.00
O883   O     0.89441   0.20487   0.83334   0.00000  Uiso   1.00
O884   O     0.77226   0.12846   0.83333   0.00000  Uiso   1.00
C885   C     0.75348   0.16666   0.83801   0.00000  Uiso   1.00
C886   C     0.91319   0.16667   0.82865   0.00000  Uiso   1.00
O887   O     0.83334   0.20488   0.76178   0.00000  Uiso   1.00
O888   O     0.83333   0.12845   0.90489   0.00000  Uiso   1.00
O889   O     0.83333   0.20488   0.90489   0.00000  Uiso   1.00
O890   O     0.83334   0.12845   0.76178   0.00000  Uiso   1.00
C891   C     0.83319   0.16667   0.73957   0.00000  Uiso   1.00
C892   C     0.83348   0.16667   0.92710   0.00000  Uiso   1.00
Zn893  Zn    0.83333   0.21771   0.83333   0.00000  Uiso   1.00
Zn894  Zn    0.83333   0.11563   0.83333   0.00000  Uiso   1.00
C895   C     0.83328   0.16667   0.68846   0.00000  Uiso   1.00
C896   C     0.83338   0.16667   0.97821   0.00000  Uiso   1.00
C897   C     0.68739   0.12533   0.84013   0.00000  Uiso   1.00
C898   C     0.97927   0.20800   0.82653   0.00000  Uiso   1.00
C899   C     0.97925   0.12534   0.82648   0.00000  Uiso   1.00
C900   C     0.68741   0.20799   0.84018   0.00000  Uiso   1.00
C901   C     0.95769   0.16667   0.82435   0.00000  Uiso   1.00
C902   C     0.70898   0.16666   0.84231   0.00000  Uiso   1.00
C903   C     0.85271   0.02397   0.87125   0.00000  Uiso   1.00
C904   C     0.81396   0.30937   0.79541   0.00000  Uiso   1.00
C905   C     0.81396   0.02396   0.79541   0.00000  Uiso   1.00
C906   C     0.85271   0.30937   0.87125   0.00000  Uiso   1.00
N907   N     0.83333   0.28573   0.83333   0.00000  Uiso   1.00
N908   N     0.83333   0.04760   0.83333   0.00000  Uiso   1.00
Cl909  Cl    0.70973   0.07322   0.85971   0.00000  Uiso   1.00
Cl910  Cl    0.95693   0.26011   0.80694   0.00000  Uiso   1.00
Cl911  Cl    0.95690   0.07326   0.80682   0.00000  Uiso   1.00
Cl912  Cl    0.70977   0.26008   0.85983   0.00000  Uiso   1.00
N913   N     0.87337   0.04754   0.91122   0.00000  Uiso   1.00
O914   O     0.85718   0.04820   0.95520   0.00000  Uiso   1.00
O915   O     0.91160   0.06025   0.90658   0.00000  Uiso   1.00
N916   N     0.79333   0.28580   0.75542   0.00000  Uiso   1.00
O917   O     0.80946   0.28528   0.71141   0.00000  Uiso   1.00
O918   O     0.75519   0.27279   0.76013   0.00000  Uiso   1.00
N919   N     0.79337   0.04752   0.75538   0.00000  Uiso   1.00
O920   O     0.75531   0.06076   0.76013   0.00000  Uiso   1.00
O921   O     0.80947   0.04790   0.71134   0.00000  Uiso   1.00
N922   N     0.87329   0.28581   0.91129   0.00000  Uiso   1.00
O923   O     0.91132   0.27249   0.90651   0.00000  Uiso   1.00
O924   O     0.85723   0.28552   0.95535   0.00000  Uiso   1.00
O925   O     0.10559   0.53821   0.83333   0.00000  Uiso   1.00
O926   O     0.22774   0.46179   0.83334   0.00000  Uiso   1.00
O927   O     0.22774   0.53821   0.83334   0.00000  Uiso   1.00
O928   O     0.10559   0.46179   0.83333   0.00000  Uiso   1.00
C929   C     0.08681   0.50000   0.83801   0.00000  Uiso   1.00
C930   C     0.24652   0.50000   0.82865   0.00000  Uiso   1.00
O931   O     0.16667   0.53821   0.76178   0.00000  Uiso   1.00
O932   O     0.16666   0.46179   0.90489   0.00000  Uiso   1.00
O933   O     0.16666   0.53821   0.90489   0.00000  Uiso   1.00
O934   O     0.16667   0.46179   0.76178   0.00000  Uiso   1.00
C935   C     0.16652   0.50000   0.73957   0.00000  Uiso   1.00
C936   C     0.16681   0.50000   0.92710   0.00000  Uiso   1.00
Zn937  Zn    0.16667   0.55104   0.83333   0.00000  Uiso   1.00
Zn938  Zn    0.16667   0.44896   0.83333   0.00000  Uiso   1.00
C939   C     0.16661   0.50000   0.68846   0.00000  Uiso   1.00
C940   C     0.16672   0.50000   0.97821   0.00000  Uiso   1.00
C941   C     0.02073   0.45867   0.84013   0.00000  Uiso   1.00
C942   C     0.31260   0.54133   0.82653   0.00000  Uiso   1.00
C943   C     0.31259   0.45868   0.82648   0.00000  Uiso   1.00
C944   C     0.02074   0.54132   0.84018   0.00000  Uiso   1.00
C945   C     0.29102   0.50001   0.82435   0.00000  Uiso   1.00
C946   C     0.04231   0.49999   0.84231   0.00000  Uiso   1.00
C947   C     0.18605   0.35730   0.87125   0.00000  Uiso   1.00
C948   C     0.14729   0.64270   0.79541   0.00000  Uiso   1.00
C949   C     0.14730   0.35730   0.79541   0.00000  Uiso   1.00
C950   C     0.18604   0.64270   0.87125   0.00000  Uiso   1.00
N951   N     0.16667   0.61907   0.83333   0.00000  Uiso   1.00
N952   N     0.16667   0.38093   0.83333   0.00000  Uiso   1.00
Cl953  Cl    0.04306   0.40655   0.85971   0.00000  Uiso   1.00
Cl954  Cl    0.29027   0.59345   0.80694   0.00000  Uiso   1.00
Cl955  Cl    0.29023   0.40659   0.80682   0.00000  Uiso   1.00
Cl956  Cl    0.04310   0.59341   0.85983   0.00000  Uiso   1.00
N957   N     0.20671   0.38087   0.91122   0.00000  Uiso   1.00
O958   O     0.19051   0.38153   0.95520   0.00000  Uiso   1.00
O959   O     0.24494   0.39359   0.90658   0.00000  Uiso   1.00
N960   N     0.12666   0.61913   0.75542   0.00000  Uiso   1.00
O961   O     0.14280   0.61862   0.71141   0.00000  Uiso   1.00
O962   O     0.08853   0.60612   0.76013   0.00000  Uiso   1.00
N963   N     0.12671   0.38086   0.75538   0.00000  Uiso   1.00
O964   O     0.08865   0.39409   0.76013   0.00000  Uiso   1.00
O965   O     0.14280   0.38123   0.71134   0.00000  Uiso   1.00
N966   N     0.20663   0.61915   0.91129   0.00000  Uiso   1.00
O967   O     0.24466   0.60583   0.90651   0.00000  Uiso   1.00
O968   O     0.19057   0.61885   0.95535   0.00000  Uiso   1.00
O969   O     0.43892   0.53821   0.83333   0.00000  Uiso   1.00
O970   O     0.56108   0.46179   0.83334   0.00000  Uiso   1.00
O971   O     0.56108   0.53821   0.83334   0.00000  Uiso   1.00
O972   O     0.43892   0.46179   0.83333   0.00000  Uiso   1.00
C973   C     0.42014   0.50000   0.83801   0.00000  Uiso   1.00
C974   C     0.57986   0.50000   0.82865   0.00000  Uiso   1.00
O975   O     0.50000   0.53821   0.76178   0.00000  Uiso   1.00
O976   O     0.50000   0.46179   0.90489   0.00000  Uiso   1.00
O977   O     0.50000   0.53821   0.90489   0.00000  Uiso   1.00
O978   O     0.50000   0.46179   0.76178   0.00000  Uiso   1.00
C979   C     0.49986   0.50000   0.73957   0.00000  Uiso   1.00
C980   C     0.50014   0.50000   0.92710   0.00000  Uiso   1.00
Zn981  Zn    0.50000   0.55104   0.83333   0.00000  Uiso   1.00
Zn982  Zn    0.50000   0.44896   0.83333   0.00000  Uiso   1.00
C983   C     0.49995   0.50000   0.68846   0.00000  Uiso   1.00
C984   C     0.50005   0.50000   0.97821   0.00000  Uiso   1.00
C985   C     0.35406   0.45867   0.84013   0.00000  Uiso   1.00
C986   C     0.64594   0.54133   0.82653   0.00000  Uiso   1.00
C987   C     0.64592   0.45868   0.82648   0.00000  Uiso   1.00
C988   C     0.35408   0.54132   0.84018   0.00000  Uiso   1.00
C989   C     0.62436   0.50001   0.82435   0.00000  Uiso   1.00
C990   C     0.37564   0.49999   0.84231   0.00000  Uiso   1.00
C991   C     0.51938   0.35730   0.87125   0.00000  Uiso   1.00
C992   C     0.48063   0.64270   0.79541   0.00000  Uiso   1.00
C993   C     0.48063   0.35730   0.79541   0.00000  Uiso   1.00
C994   C     0.51937   0.64270   0.87125   0.00000  Uiso   1.00
N995   N     0.50000   0.61907   0.83333   0.00000  Uiso   1.00
N996   N     0.50000   0.38093   0.83333   0.00000  Uiso   1.00
Cl997  Cl    0.37640   0.40655   0.85971   0.00000  Uiso   1.00
Cl998  Cl    0.62360   0.59345   0.80694   0.00000  Uiso   1.00
Cl999  Cl    0.62356   0.40659   0.80682   0.00000  Uiso   1.00
Cl1000 Cl    0.37643   0.59341   0.85983   0.00000  Uiso   1.00
N1001  N     0.54004   0.38087   0.91122   0.00000  Uiso   1.00
O1002  O     0.52384   0.38153   0.95520   0.00000  Uiso   1.00
O1003  O     0.57827   0.39359   0.90658   0.00000  Uiso   1.00
N1004  N     0.45999   0.61913   0.75542   0.00000  Uiso   1.00
O1005  O     0.47613   0.61862   0.71141   0.00000  Uiso   1.00
O1006  O     0.42186   0.60612   0.76013   0.00000  Uiso   1.00
N1007  N     0.46004   0.38086   0.75538   0.00000  Uiso   1.00
O1008  O     0.42198   0.39409   0.76013   0.00000  Uiso   1.00
O1009  O     0.47613   0.38123   0.71134   0.00000  Uiso   1.00
N1010  N     0.53996   0.61915   0.91129   0.00000  Uiso   1.00
O1011  O     0.57799   0.60583   0.90651   0.00000  Uiso   1.00
O1012  O     0.52390   0.61885   0.95535   0.00000  Uiso   1.00
O1013  O     0.77226   0.53821   0.83333   0.00000  Uiso   1.00
O1014  O     0.89441   0.46179   0.83334   0.00000  Uiso   1.00
O1015  O     0.89441   0.53821   0.83334   0.00000  Uiso   1.00
O1016  O     0.77226   0.46179   0.83333   0.00000  Uiso   1.00
C1017  C     0.75348   0.50000   0.83801   0.00000  Uiso   1.00
C1018  C     0.91319   0.50000   0.82865   0.00000  Uiso   1.00
O1019  O     0.83334   0.53821   0.76178   0.00000  Uiso   1.00
O1020  O     0.83333   0.46179   0.90489   0.00000  Uiso   1.00
O1021  O     0.83333   0.53821   0.90489   0.00000  Uiso   1.00
O1022  O     0.83334   0.46179   0.76178   0.00000  Uiso   1.00
C1023  C     0.83319   0.50000   0.73957   0.00000  Uiso   1.00
C1024  C     0.83348   0.50000   0.92710   0.00000  Uiso   1.00
Zn1025 Zn    0.83333   0.55104   0.83333   0.00000  Uiso   1.00
Zn1026 Zn    0.83333   0.44896   0.83333   0.00000  Uiso   1.00
C1027  C     0.83328   0.50000   0.68846   0.00000  Uiso   1.00
C1028  C     0.83338   0.50000   0.97821   0.00000  Uiso   1.00
C1029  C     0.68739   0.45867   0.84013   0.00000  Uiso   1.00
C1030  C     0.97927   0.54133   0.82653   0.00000  Uiso   1.00
C1031  C     0.97925   0.45868   0.82648   0.00000  Uiso   1.00
C1032  C     0.68741   0.54132   0.84018   0.00000  Uiso   1.00
C1033  C     0.95769   0.50001   0.82435   0.00000  Uiso   1.00
C1034  C     0.70898   0.49999   0.84231   0.00000  Uiso   1.00
C1035  C     0.85271   0.35730   0.87125   0.00000  Uiso   1.00
C1036  C     0.81396   0.64270   0.79541   0.00000  Uiso   1.00
C1037  C     0.81396   0.35730   0.79541   0.00000  Uiso   1.00
C1038  C     0.85271   0.64270   0.87125   0.00000  Uiso   1.00
N1039  N     0.83333   0.61907   0.83333   0.00000  Uiso   1.00
N1040  N     0.83333   0.38093   0.83333   0.00000  Uiso   1.00
Cl1041 Cl    0.70973   0.40655   0.85971   0.00000  Uiso   1.00
Cl1042 Cl    0.95693   0.59345   0.80694   0.00000  Uiso   1.00
Cl1043 Cl    0.95690   0.40659   0.80682   0.00000  Uiso   1.00
Cl1044 Cl    0.70977   0.59341   0.85983   0.00000  Uiso   1.00
N1045  N     0.87337   0.38087   0.91122   0.00000  Uiso   1.00
O1046  O     0.85718   0.38153   0.95520   0.00000  Uiso   1.00
O1047  O     0.91160   0.39359   0.90658   0.00000  Uiso   1.00
N1048  N     0.79333   0.61913   0.75542   0.00000  Uiso   1.00
O1049  O     0.80946   0.61862   0.71141   0.00000  Uiso   1.00
O1050  O     0.75519   0.60612   0.76013   0.00000  Uiso   1.00
N1051  N     0.79337   0.38086   0.75538   0.00000  Uiso   1.00
O1052  O     0.75531   0.39409   0.76013   0.00000  Uiso   1.00
O1053  O     0.80947   0.38123   0.71134   0.00000  Uiso   1.00
N1054  N     0.87329   0.61915   0.91129   0.00000  Uiso   1.00
O1055  O     0.91132   0.60583   0.90651   0.00000  Uiso   1.00
O1056  O     0.85723   0.61885   0.95535   0.00000  Uiso   1.00
O1057  O     0.10559   0.87154   0.83333   0.00000  Uiso   1.00
O1058  O     0.22774   0.79513   0.83334   0.00000  Uiso   1.00
O1059  O     0.22774   0.87154   0.83334   0.00000  Uiso   1.00
O1060  O     0.10559   0.79513   0.83333   0.00000  Uiso   1.00
C1061  C     0.08681   0.83333   0.83801   0.00000  Uiso   1.00
C1062  C     0.24652   0.83334   0.82865   0.00000  Uiso   1.00
O1063  O     0.16667   0.87155   0.76178   0.00000  Uiso   1.00
O1064  O     0.16666   0.79512   0.90489   0.00000  Uiso   1.00
O1065  O     0.16666   0.87155   0.90489   0.00000  Uiso   1.00
O1066  O     0.16667   0.79512   0.76178   0.00000  Uiso   1.00
C1067  C     0.16652   0.83333   0.73957   0.00000  Uiso   1.00
C1068  C     0.16681   0.83333   0.92710   0.00000  Uiso   1.00
Zn1069 Zn    0.16667   0.88437   0.83333   0.00000  Uiso   1.00
Zn1070 Zn    0.16667   0.78229   0.83333   0.00000  Uiso   1.00
C1071  C     0.16661   0.83334   0.68846   0.00000  Uiso   1.00
C1072  C     0.16672   0.83333   0.97821   0.00000  Uiso   1.00
C1073  C     0.02073   0.79200   0.84013   0.00000  Uiso   1.00
C1074  C     0.31260   0.87467   0.82653   0.00000  Uiso   1.00
C1075  C     0.31259   0.79201   0.82648   0.00000  Uiso   1.00
C1076  C     0.02074   0.87466   0.84018   0.00000  Uiso   1.00
C1077  C     0.29102   0.83334   0.82435   0.00000  Uiso   1.00
C1078  C     0.04231   0.83333   0.84231   0.00000  Uiso   1.00
C1079  C     0.18605   0.69064   0.87125   0.00000  Uiso   1.00
C1080  C     0.14729   0.97603   0.79541   0.00000  Uiso   1.00
C1081  C     0.14730   0.69063   0.79541   0.00000  Uiso   1.00
C1082  C     0.18604   0.97604   0.87125   0.00000  Uiso   1.00
N1083  N     0.16667   0.95240   0.83333   0.00000  Uiso   1.00
N1084  N     0.16667   0.71427   0.83333   0.00000  Uiso   1.00
Cl1085 Cl    0.04306   0.73989   0.85971   0.00000  Uiso   1.00
Cl1086 Cl    0.29027   0.92678   0.80694   0.00000  Uiso   1.00
Cl1087 Cl    0.29023   0.73992   0.80682   0.00000  Uiso   1.00
Cl1088 Cl    0.04310   0.92674   0.85983   0.00000  Uiso   1.00
N1089  N     0.20671   0.71420   0.91122   0.00000  Uiso   1.00
O1090  O     0.19051   0.71487   0.95520   0.00000  Uiso   1.00
O1091  O     0.24494   0.72692   0.90658   0.00000  Uiso   1.00
N1092  N     0.12666   0.95247   0.75542   0.00000  Uiso   1.00
O1093  O     0.14280   0.95195   0.71141   0.00000  Uiso   1.00
O1094  O     0.08853   0.93946   0.76013   0.00000  Uiso   1.00
N1095  N     0.12671   0.71419   0.75538   0.00000  Uiso   1.00
O1096  O     0.08865   0.72743   0.76013   0.00000  Uiso   1.00
O1097  O     0.14280   0.71456   0.71134   0.00000  Uiso   1.00
N1098  N     0.20663   0.95248   0.91129   0.00000  Uiso   1.00
O1099  O     0.24466   0.93916   0.90651   0.00000  Uiso   1.00
O1100  O     0.19057   0.95219   0.95535   0.00000  Uiso   1.00
O1101  O     0.43892   0.87154   0.83333   0.00000  Uiso   1.00
O1102  O     0.56108   0.79513   0.83334   0.00000  Uiso   1.00
O1103  O     0.56108   0.87154   0.83334   0.00000  Uiso   1.00
O1104  O     0.43892   0.79513   0.83333   0.00000  Uiso   1.00
C1105  C     0.42014   0.83333   0.83801   0.00000  Uiso   1.00
C1106  C     0.57986   0.83334   0.82865   0.00000  Uiso   1.00
O1107  O     0.50000   0.87155   0.76178   0.00000  Uiso   1.00
O1108  O     0.50000   0.79512   0.90489   0.00000  Uiso   1.00
O1109  O     0.50000   0.87155   0.90489   0.00000  Uiso   1.00
O1110  O     0.50000   0.79512   0.76178   0.00000  Uiso   1.00
C1111  C     0.49986   0.83333   0.73957   0.00000  Uiso   1.00
C1112  C     0.50014   0.83333   0.92710   0.00000  Uiso   1.00
Zn1113 Zn    0.50000   0.88437   0.83333   0.00000  Uiso   1.00
Zn1114 Zn    0.50000   0.78229   0.83333   0.00000  Uiso   1.00
C1115  C     0.49995   0.83334   0.68846   0.00000  Uiso   1.00
C1116  C     0.50005   0.83333   0.97821   0.00000  Uiso   1.00
C1117  C     0.35406   0.79200   0.84013   0.00000  Uiso   1.00
C1118  C     0.64594   0.87467   0.82653   0.00000  Uiso   1.00
C1119  C     0.64592   0.79201   0.82648   0.00000  Uiso   1.00
C1120  C     0.35408   0.87466   0.84018   0.00000  Uiso   1.00
C1121  C     0.62436   0.83334   0.82435   0.00000  Uiso   1.00
C1122  C     0.37564   0.83333   0.84231   0.00000  Uiso   1.00
C1123  C     0.51938   0.69064   0.87125   0.00000  Uiso   1.00
C1124  C     0.48063   0.97603   0.79541   0.00000  Uiso   1.00
C1125  C     0.48063   0.69063   0.79541   0.00000  Uiso   1.00
C1126  C     0.51937   0.97604   0.87125   0.00000  Uiso   1.00
N1127  N     0.50000   0.95240   0.83333   0.00000  Uiso   1.00
N1128  N     0.50000   0.71427   0.83333   0.00000  Uiso   1.00
Cl1129 Cl    0.37640   0.73989   0.85971   0.00000  Uiso   1.00
Cl1130 Cl    0.62360   0.92678   0.80694   0.00000  Uiso   1.00
Cl1131 Cl    0.62356   0.73992   0.80682   0.00000  Uiso   1.00
Cl1132 Cl    0.37643   0.92674   0.85983   0.00000  Uiso   1.00
N1133  N     0.54004   0.71420   0.91122   0.00000  Uiso   1.00
O1134  O     0.52384   0.71487   0.95520   0.00000  Uiso   1.00
O1135  O     0.57827   0.72692   0.90658   0.00000  Uiso   1.00
N1136  N     0.45999   0.95247   0.75542   0.00000  Uiso   1.00
O1137  O     0.47613   0.95195   0.71141   0.00000  Uiso   1.00
O1138  O     0.42186   0.93946   0.76013   0.00000  Uiso   1.00
N1139  N     0.46004   0.71419   0.75538   0.00000  Uiso   1.00
O1140  O     0.42198   0.72743   0.76013   0.00000  Uiso   1.00
O1141  O     0.47613   0.71456   0.71134   0.00000  Uiso   1.00
N1142  N     0.53996   0.95248   0.91129   0.00000  Uiso   1.00
O1143  O     0.57799   0.93916   0.90651   0.00000  Uiso   1.00
O1144  O     0.52390   0.95219   0.95535   0.00000  Uiso   1.00
O1145  O     0.77226   0.87154   0.83333   0.00000  Uiso   1.00
O1146  O     0.89441   0.79513   0.83334   0.00000  Uiso   1.00
O1147  O     0.89441   0.87154   0.83334   0.00000  Uiso   1.00
O1148  O     0.77226   0.79513   0.83333   0.00000  Uiso   1.00
C1149  C     0.75348   0.83333   0.83801   0.00000  Uiso   1.00
C1150  C     0.91319   0.83334   0.82865   0.00000  Uiso   1.00
O1151  O     0.83334   0.87155   0.76178   0.00000  Uiso   1.00
O1152  O     0.83333   0.79512   0.90489   0.00000  Uiso   1.00
O1153  O     0.83333   0.87155   0.90489   0.00000  Uiso   1.00
O1154  O     0.83334   0.79512   0.76178   0.00000  Uiso   1.00
C1155  C     0.83319   0.83333   0.73957   0.00000  Uiso   1.00
C1156  C     0.83348   0.83333   0.92710   0.00000  Uiso   1.00
Zn1157 Zn    0.83333   0.88437   0.83333   0.00000  Uiso   1.00
Zn1158 Zn    0.83333   0.78229   0.83333   0.00000  Uiso   1.00
C1159  C     0.83328   0.83334   0.68846   0.00000  Uiso   1.00
C1160  C     0.83338   0.83333   0.97821   0.00000  Uiso   1.00
C1161  C     0.68739   0.79200   0.84013   0.00000  Uiso   1.00
C1162  C     0.97927   0.87467   0.82653   0.00000  Uiso   1.00
C1163  C     0.97925   0.79201   0.82648   0.00000  Uiso   1.00
C1164  C     0.68741   0.87466   0.84018   0.00000  Uiso   1.00
C1165  C     0.95769   0.83334   0.82435   0.00000  Uiso   1.00
C1166  C     0.70898   0.83333   0.84231   0.00000  Uiso   1.00
C1167  C     0.85271   0.69064   0.87125   0.00000  Uiso   1.00
C1168  C     0.81396   0.97603   0.79541   0.00000  Uiso   1.00
C1169  C     0.81396   0.69063   0.79541   0.00000  Uiso   1.00
C1170  C     0.85271   0.97604   0.87125   0.00000  Uiso   1.00
N1171  N     0.83333   0.95240   0.83333   0.00000  Uiso   1.00
N1172  N     0.83333   0.71427   0.83333   0.00000  Uiso   1.00
Cl1173 Cl    0.70973   0.73989   0.85971   0.00000  Uiso   1.00
Cl1174 Cl    0.95693   0.92678   0.80694   0.00000  Uiso   1.00
Cl1175 Cl    0.95690   0.73992   0.80682   0.00000  Uiso   1.00
Cl1176 Cl    0.70977   0.92674   0.85983   0.00000  Uiso   1.00
N1177  N     0.87337   0.71420   0.91122   0.00000  Uiso   1.00
O1178  O     0.85718   0.71487   0.95520   0.00000  Uiso   1.00
O1179  O     0.91160   0.72692   0.90658   0.00000  Uiso   1.00
N1180  N     0.79333   0.95247   0.75542   0.00000  Uiso   1.00
O1181  O     0.80946   0.95195   0.71141   0.00000  Uiso   1.00
O1182  O     0.75519   0.93946   0.76013   0.00000  Uiso   1.00
N1183  N     0.79337   0.71419   0.75538   0.00000  Uiso   1.00
O1184  O     0.75531   0.72743   0.76013   0.00000  Uiso   1.00
O1185  O     0.80947   0.71456   0.71134   0.00000  Uiso   1.00
N1186  N     0.87329   0.95248   0.91129   0.00000  Uiso   1.00
O1187  O     0.91132   0.93916   0.90651   0.00000  Uiso   1.00
O1188  O     0.85723   0.95219   0.95535   0.00000  Uiso   1.00
loop_
_geom_bond_atom_site_label_1
_geom_bond_atom_site_label_2
_geom_bond_distance
_geom_bond_site_symmetry_2
_ccdc_geom_bond_type
O1     C5      1.293   .     A
O1     Zn13    2.008   .     S
O2     C6      1.293   .     A
O2     Zn14    2.008   .     S
O3     Zn13    2.008   .     S
O3     C6      1.293   .     A
O4     Zn14    2.008   .     S
O4     C5      1.293   .     A
C5     C22     1.444   .     S
C6     C21     1.444   .     S
O7     C11     1.279   .     A
O7     Zn13    1.952   .     S
O8     C12     1.279   .     A
O8     Zn14    1.952   .     S
O9     C12     1.279   .     A
O9     Zn13    1.951   .     S
O10    C11     1.279   .     A
O10    Zn14    1.951   .     S
C11    C15     1.367   .     S
C12    C16     1.367   .     S
Zn13   N27     2.017   .     S
Zn14   N28     2.017   .     S
C15    C808    1.166   1_554 S
C16    C411    1.166   .     S
C17    Cl29    1.778   .     S
C17    C22     1.410   .     A
C17    C107    1.378   1_455 S
C18    Cl30    1.778   .     S
C18    C21     1.410   .     A
C18    C64     1.378   .     S
C19    Cl31    1.778   .     S
C19    C21     1.410   .     A
C19    C61     1.378   .     S
C20    Cl32    1.778   .     S
C20    C22     1.410   .     A
C20    C106    1.378   1_455 S
C23    N28     1.370   .     A
C23    N33     1.428   .     S
C23    C290    1.421   1_545 S
C24    N27     1.370   .     A
C24    N36     1.428   .     S
C24    C157    1.421   .     S
C25    N39     1.428   .     S
C25    N28     1.370   .     A
C25    C288    1.421   1_545 S
C26    N27     1.370   .     A
C26    N42     1.428   .     S
C26    C155    1.421   .     S
N33    O34     1.300   .     A
N33    O35     1.299   .     A
N36    O38     1.299   .     A
N36    O37     1.300   .     A
N39    O41     1.300   .     A
N39    O40     1.299   .     A
N42    O44     1.300   .     A
N42    O43     1.299   .     A
O45    C49     1.293   .     A
O45    Zn57    2.008   .     S
O46    C50     1.293   .     A
O46    Zn58    2.008   .     S
O47    Zn57    2.008   .     S
O47    C50     1.293   .     A
O48    Zn58    2.008   .     S
O48    C49     1.293   .     A
C49    C66     1.444   .     S
C50    C65     1.444   .     S
O51    C55     1.279   .     A
O51    Zn57    1.952   .     S
O52    C56     1.279   .     A
O52    Zn58    1.952   .     S
O53    C56     1.279   .     A
O53    Zn57    1.951   .     S
O54    C55     1.279   .     A
O54    Zn58    1.951   .     S
C55    C59     1.367   .     S
C56    C60     1.367   .     S
Zn57   N71     2.017   .     S
Zn58   N72     2.017   .     S
C59    C852    1.166   1_554 S
C60    C455    1.166   .     S
C61    Cl73    1.778   .     S
C61    C66     1.410   .     A
C62    Cl74    1.778   .     S
C62    C65     1.410   .     A
C62    C108    1.378   .     S
C63    Cl75    1.778   .     S
C63    C65     1.410   .     A
C63    C105    1.378   .     S
C64    Cl76    1.778   .     S
C64    C66     1.410   .     A
C67    N72     1.370   .     A
C67    N77     1.428   .     S
C67    C334    1.421   1_545 S
C68    N71     1.370   .     A
C68    N80     1.428   .     S
C68    C201    1.421   .     S
C69    N83     1.428   .     S
C69    N72     1.370   .     A
C69    C332    1.421   1_545 S
C70    N71     1.370   .     A
C70    N86     1.428   .     S
C70    C199    1.421   .     S
N77    O78     1.300   .     A
N77    O79     1.299   .     A
N80    O82     1.299   .     A
N80    O81     1.300   .     A
N83    O85     1.300   .     A
N83    O84     1.299   .     A
N86    O88     1.300   .     A
N86    O87     1.299   .     A
O89    C93     1.293   .     A
O89    Zn101   2.008   .     S
O90    C94     1.293   .     A
O90    Zn102   2.008   .     S
O91    Zn101   2.008   .     S
O91    C94     1.293   .     A
O92    Zn102   2.008   .     S
O92    C93     1.293   .     A
C93    C110    1.444   .     S
C94    C109    1.444   .     S
O95    C99     1.279   .     A
O95    Zn101   1.952   .     S
O96    C100    1.279   .     A
O96    Zn102   1.952   .     S
O97    C100    1.279   .     A
O97    Zn101   1.951   .     S
O98    C99     1.279   .     A
O98    Zn102   1.951   .     S
C99    C103    1.367   .     S
C100   C104    1.367   .     S
Zn101  N115    2.017   .     S
Zn102  N116    2.017   .     S
C103   C896    1.166   1_554 S
C104   C499    1.166   .     S
C105   Cl117   1.778   .     S
C105   C110    1.410   .     A
C106   Cl118   1.778   .     S
C106   C109    1.410   .     A
C106   C20     1.378   1_655 S
C107   Cl119   1.778   .     S
C107   C109    1.410   .     A
C107   C17     1.378   1_655 S
C108   Cl120   1.778   .     S
C108   C110    1.410   .     A
C111   N116    1.370   .     A
C111   N121    1.428   .     S
C111   C378    1.421   1_545 S
C112   N115    1.370   .     A
C112   N124    1.428   .     S
C112   C245    1.421   .     S
C113   N127    1.428   .     S
C113   N116    1.370   .     A
C113   C376    1.421   1_545 S
C114   N115    1.370   .     A
C114   N130    1.428   .     S
C114   C243    1.421   .     S
N121   O122    1.300   .     A
N121   O123    1.299   .     A
N124   O126    1.299   .     A
N124   O125    1.300   .     A
N127   O129    1.300   .     A
N127   O128    1.299   .     A
N130   O132    1.300   .     A
N130   O131    1.299   .     A
O133   C137    1.293   .     A
O133   Zn145   2.008   .     S
O134   C138    1.293   .     A
O134   Zn146   2.008   .     S
O135   Zn145   2.008   .     S
O135   C138    1.293   .     A
O136   Zn146   2.008   .     S
O136   C137    1.293   .     A
C137   C154    1.444   .     S
C138   C153    1.444   .     S
O139   C143    1.279   .     A
O139   Zn145   1.952   .     S
O140   C144    1.279   .     A
O140   Zn146   1.952   .     S
O141   C144    1.279   .     A
O141   Zn145   1.951   .     S
O142   C143    1.279   .     A
O142   Zn146   1.951   .     S
C143   C147    1.367   .     S
C144   C148    1.367   .     S
Zn145  N159    2.017   .     S
Zn146  N160    2.017   .     S
C147   C940    1.166   1_554 S
C148   C543    1.166   .     S
C149   Cl161   1.778   .     S
C149   C154    1.410   .     A
C149   C239    1.378   1_455 S
C150   Cl162   1.778   .     S
C150   C153    1.410   .     A
C150   C196    1.378   .     S
C151   Cl163   1.778   .     S
C151   C153    1.410   .     A
C151   C193    1.378   .     S
C152   Cl164   1.778   .     S
C152   C154    1.410   .     A
C152   C238    1.378   1_455 S
C155   N160    1.370   .     A
C155   N165    1.428   .     S
C156   N159    1.370   .     A
C156   N168    1.428   .     S
C156   C289    1.421   .     S
C157   N171    1.428   .     S
C157   N160    1.370   .     A
C158   N159    1.370   .     A
C158   N174    1.428   .     S
C158   C287    1.421   .     S
N165   O166    1.300   .     A
N165   O167    1.299   .     A
N168   O170    1.299   .     A
N168   O169    1.300   .     A
N171   O173    1.300   .     A
N171   O172    1.299   .     A
N174   O176    1.300   .     A
N174   O175    1.299   .     A
O177   C181    1.293   .     A
O177   Zn189   2.008   .     S
O178   C182    1.293   .     A
O178   Zn190   2.008   .     S
O179   Zn189   2.008   .     S
O179   C182    1.293   .     A
O180   Zn190   2.008   .     S
O180   C181    1.293   .     A
C181   C198    1.444   .     S
C182   C197    1.444   .     S
O183   C187    1.279   .     A
O183   Zn189   1.952   .     S
O184   C188    1.279   .     A
O184   Zn190   1.952   .     S
O185   C188    1.279   .     A
O185   Zn189   1.951   .     S
O186   C187    1.279   .     A
O186   Zn190   1.951   .     S
C187   C191    1.367   .     S
C188   C192    1.367   .     S
Zn189  N203    2.017   .     S
Zn190  N204    2.017   .     S
C191   C984    1.166   1_554 S
C192   C587    1.166   .     S
C193   Cl205   1.778   .     S
C193   C198    1.410   .     A
C194   Cl206   1.778   .     S
C194   C197    1.410   .     A
C194   C240    1.378   .     S
C195   Cl207   1.778   .     S
C195   C197    1.410   .     A
C195   C237    1.378   .     S
C196   Cl208   1.778   .     S
C196   C198    1.410   .     A
C199   N204    1.370   .     A
C199   N209    1.428   .     S
C200   N203    1.370   .     A
C200   N212    1.428   .     S
C200   C333    1.421   .     S
C201   N215    1.428   .     S
C201   N204    1.370   .     A
C202   N203    1.370   .     A
C202   N218    1.428   .     S
C202   C331    1.421   .     S
N209   O210    1.300   .     A
N209   O211    1.299   .     A
N212   O214    1.299   .     A
N212   O213    1.300   .     A
N215   O217    1.300   .     A
N215   O216    1.299   .     A
N218   O220    1.300   .     A
N218   O219    1.299   .     A
O221   C225    1.293   .     A
O221   Zn233   2.008   .     S
O222   C226    1.293   .     A
O222   Zn234   2.008   .     S
O223   Zn233   2.008   .     S
O223   C226    1.293   .     A
O224   Zn234   2.008   .     S
O224   C225    1.293   .     A
C225   C242    1.444   .     S
C226   C241    1.444   .     S
O227   C231    1.279   .     A
O227   Zn233   1.952   .     S
O228   C232    1.279   .     A
O228   Zn234   1.952   .     S
O229   C232    1.279   .     A
O229   Zn233   1.951   .     S
O230   C231    1.279   .     A
O230   Zn234   1.951   .     S
C231   C235    1.367   .     S
C232   C236    1.367   .     S
Zn233  N247    2.017   .     S
Zn234  N248    2.017   .     S
C235   C1028   1.166   1_554 S
C236   C631    1.166   .     S
C237   Cl249   1.778   .     S
C237   C242    1.410   .     A
C238   Cl250   1.778   .     S
C238   C241    1.410   .     A
C238   C152    1.378   1_655 S
C239   Cl251   1.778   .     S
C239   C241    1.410   .     A
C239   C149    1.378   1_655 S
C240   Cl252   1.778   .     S
C240   C242    1.410   .     A
C243   N248    1.370   .     A
C243   N253    1.428   .     S
C244   N247    1.370   .     A
C244   N256    1.428   .     S
C244   C377    1.421   .     S
C245   N259    1.428   .     S
C245   N248    1.370   .     A
C246   N247    1.370   .     A
C246   N262    1.428   .     S
C246   C375    1.421   .     S
N253   O254    1.300   .     A
N253   O255    1.299   .     A
N256   O258    1.299   .     A
N256   O257    1.300   .     A
N259   O261    1.300   .     A
N259   O260    1.299   .     A
N262   O264    1.300   .     A
N262   O263    1.299   .     A
O265   C269    1.293   .     A
O265   Zn277   2.008   .     S
O266   C270    1.293   .     A
O266   Zn278   2.008   .     S
O267   Zn277   2.008   .     S
O267   C270    1.293   .     A
O268   Zn278   2.008   .     S
O268   C269    1.293   .     A
C269   C286    1.444   .     S
C270   C285    1.444   .     S
O271   C275    1.279   .     A
O271   Zn277   1.952   .     S
O272   C276    1.279   .     A
O272   Zn278   1.952   .     S
O273   C276    1.279   .     A
O273   Zn277   1.951   .     S
O274   C275    1.279   .     A
O274   Zn278   1.951   .     S
C275   C279    1.367   .     S
C276   C280    1.367   .     S
Zn277  N291    2.017   .     S
Zn278  N292    2.017   .     S
C279   C1072   1.166   1_554 S
C280   C675    1.166   .     S
C281   Cl293   1.778   .     S
C281   C286    1.410   .     A
C281   C371    1.378   1_455 S
C282   Cl294   1.778   .     S
C282   C285    1.410   .     A
C282   C328    1.378   .     S
C283   Cl295   1.778   .     S
C283   C285    1.410   .     A
C283   C325    1.378   .     S
C284   Cl296   1.778   .     S
C284   C286    1.410   .     A
C284   C370    1.378   1_455 S
C287   N292    1.370   .     A
C287   N297    1.428   .     S
C288   N291    1.370   .     A
C288   N300    1.428   .     S
C288   C25     1.421   1_565 S
C289   N303    1.428   .     S
C289   N292    1.370   .     A
C290   N291    1.370   .     A
C290   N306    1.428   .     S
C290   C23     1.421   1_565 S
N297   O298    1.300   .     A
N297   O299    1.299   .     A
N300   O302    1.299   .     A
N300   O301    1.300   .     A
N303   O305    1.300   .     A
N303   O304    1.299   .     A
N306   O308    1.300   .     A
N306   O307    1.299   .     A
O309   C313    1.293   .     A
O309   Zn321   2.008   .     S
O310   C314    1.293   .     A
O310   Zn322   2.008   .     S
O311   Zn321   2.008   .     S
O311   C314    1.293   .     A
O312   Zn322   2.008   .     S
O312   C313    1.293   .     A
C313   C330    1.444   .     S
C314   C329    1.444   .     S
O315   C319    1.279   .     A
O315   Zn321   1.952   .     S
O316   C320    1.279   .     A
O316   Zn322   1.952   .     S
O317   C320    1.279   .     A
O317   Zn321   1.951   .     S
O318   C319    1.279   .     A
O318   Zn322   1.951   .     S
C319   C323    1.367   .     S
C320   C324    1.367   .     S
Zn321  N335    2.017   .     S
Zn322  N336    2.017   .     S
C323   C1116   1.166   1_554 S
C324   C719    1.166   .     S
C325   Cl337   1.778   .     S
C325   C330    1.410   .     A
C326   Cl338   1.778   .     S
C326   C329    1.410   .     A
C326   C372    1.378   .     S
C327   Cl339   1.778   .     S
C327   C329    1.410   .     A
C327   C369    1.378   .     S
C328   Cl340   1.778   .     S
C328   C330    1.410   .     A
C331   N336    1.370   .     A
C331   N341    1.428   .     S
C332   N335    1.370   .     A
C332   N344    1.428   .     S
C332   C69     1.421   1_565 S
C333   N347    1.428   .     S
C333   N336    1.370   .     A
C334   N335    1.370   .     A
C334   N350    1.428   .     S
C334   C67     1.421   1_565 S
N341   O342    1.300   .     A
N341   O343    1.299   .     A
N344   O346    1.299   .     A
N344   O345    1.300   .     A
N347   O349    1.300   .     A
N347   O348    1.299   .     A
N350   O352    1.300   .     A
N350   O351    1.299   .     A
O353   C357    1.293   .     A
O353   Zn365   2.008   .     S
O354   C358    1.293   .     A
O354   Zn366   2.008   .     S
O355   Zn365   2.008   .     S
O355   C358    1.293   .     A
O356   Zn366   2.008   .     S
O356   C357    1.293   .     A
C357   C374    1.444   .     S
C358   C373    1.444   .     S
O359   C363    1.279   .     A
O359   Zn365   1.952   .     S
O360   C364    1.279   .     A
O360   Zn366   1.952   .     S
O361   C364    1.279   .     A
O361   Zn365   1.951   .     S
O362   C363    1.279   .     A
O362   Zn366   1.951   .     S
C363   C367    1.367   .     S
C364   C368    1.367   .     S
Zn365  N379    2.017   .     S
Zn366  N380    2.017   .     S
C367   C1160   1.166   1_554 S
C368   C763    1.166   .     S
C369   Cl381   1.778   .     S
C369   C374    1.410   .     A
C370   Cl382   1.778   .     S
C370   C373    1.410   .     A
C370   C284    1.378   1_655 S
C371   Cl383   1.778   .     S
C371   C373    1.410   .     A
C371   C281    1.378   1_655 S
C372   Cl384   1.778   .     S
C372   C374    1.410   .     A
C375   N380    1.370   .     A
C375   N385    1.428   .     S
C376   N379    1.370   .     A
C376   N388    1.428   .     S
C376   C113    1.421   1_565 S
C377   N391    1.428   .     S
C377   N380    1.370   .     A
C378   N379    1.370   .     A
C378   N394    1.428   .     S
C378   C111    1.421   1_565 S
N385   O386    1.300   .     A
N385   O387    1.299   .     A
N388   O390    1.299   .     A
N388   O389    1.300   .     A
N391   O393    1.300   .     A
N391   O392    1.299   .     A
N394   O396    1.300   .     A
N394   O395    1.299   .     A
O397   C401    1.293   .     A
O397   Zn409   2.008   .     S
O398   C402    1.293   .     A
O398   Zn410   2.008   .     S
O399   Zn409   2.008   .     S
O399   C402    1.293   .     A
O400   Zn410   2.008   .     S
O400   C401    1.293   .     A
C401   C418    1.444   .     S
C402   C417    1.444   .     S
O403   C407    1.279   .     A
O403   Zn409   1.952   .     S
O404   C408    1.279   .     A
O404   Zn410   1.952   .     S
O405   C408    1.279   .     A
O405   Zn409   1.951   .     S
O406   C407    1.279   .     A
O406   Zn410   1.951   .     S
C407   C411    1.367   .     S
C408   C412    1.367   .     S
Zn409  N423    2.017   .     S
Zn410  N424    2.017   .     S
C412   C807    1.166   .     S
C413   Cl425   1.778   .     S
C413   C418    1.410   .     A
C413   C503    1.378   1_455 S
C414   Cl426   1.778   .     S
C414   C417    1.410   .     A
C414   C460    1.378   .     S
C415   Cl427   1.778   .     S
C415   C417    1.410   .     A
C415   C457    1.378   .     S
C416   Cl428   1.778   .     S
C416   C418    1.410   .     A
C416   C502    1.378   1_455 S
C419   N424    1.370   .     A
C419   N429    1.428   .     S
C419   C686    1.421   1_545 S
C420   N423    1.370   .     A
C420   N432    1.428   .     S
C420   C553    1.421   .     S
C421   N435    1.428   .     S
C421   N424    1.370   .     A
C421   C684    1.421   1_545 S
C422   N423    1.370   .     A
C422   N438    1.428   .     S
C422   C551    1.421   .     S
N429   O430    1.300   .     A
N429   O431    1.299   .     A
N432   O434    1.299   .     A
N432   O433    1.300   .     A
N435   O437    1.300   .     A
N435   O436    1.299   .     A
N438   O440    1.300   .     A
N438   O439    1.299   .     A
O441   C445    1.293   .     A
O441   Zn453   2.008   .     S
O442   C446    1.293   .     A
O442   Zn454   2.008   .     S
O443   Zn453   2.008   .     S
O443   C446    1.293   .     A
O444   Zn454   2.008   .     S
O444   C445    1.293   .     A
C445   C462    1.444   .     S
C446   C461    1.444   .     S
O447   C451    1.279   .     A
O447   Zn453   1.952   .     S
O448   C452    1.279   .     A
O448   Zn454   1.952   .     S
O449   C452    1.279   .     A
O449   Zn453   1.951   .     S
O450   C451    1.279   .     A
O450   Zn454   1.951   .     S
C451   C455    1.367   .     S
C452   C456    1.367   .     S
Zn453  N467    2.017   .     S
Zn454  N468    2.017   .     S
C456   C851    1.166   .     S
C457   Cl469   1.778   .     S
C457   C462    1.410   .     A
C458   Cl470   1.778   .     S
C458   C461    1.410   .     A
C458   C504    1.378   .     S
C459   Cl471   1.778   .     S
C459   C461    1.410   .     A
C459   C501    1.378   .     S
C460   Cl472   1.778   .     S
C460   C462    1.410   .     A
C463   N468    1.370   .     A
C463   N473    1.428   .     S
C463   C730    1.421   1_545 S
C464   N467    1.370   .     A
C464   N476    1.428   .     S
C464   C597    1.421   .     S
C465   N479    1.428   .     S
C465   N468    1.370   .     A
C465   C728    1.421   1_545 S
C466   N467    1.370   .     A
C466   N482    1.428   .     S
C466   C595    1.421   .     S
N473   O474    1.300   .     A
N473   O475    1.299   .     A
N476   O478    1.299   .     A
N476   O477    1.300   .     A
N479   O481    1.300   .     A
N479   O480    1.299   .     A
N482   O484    1.300   .     A
N482   O483    1.299   .     A
O485   C489    1.293   .     A
O485   Zn497   2.008   .     S
O486   C490    1.293   .     A
O486   Zn498   2.008   .     S
O487   Zn497   2.008   .     S
O487   C490    1.293   .     A
O488   Zn498   2.008   .     S
O488   C489    1.293   .     A
C489   C506    1.444   .     S
C490   C505    1.444   .     S
O491   C495    1.279   .     A
O491   Zn497   1.952   .     S
O492   C496    1.279   .     A
O492   Zn498   1.952   .     S
O493   C496    1.279   .     A
O493   Zn497   1.951   .     S
O494   C495    1.279   .     A
O494   Zn498   1.951   .     S
C495   C499    1.367   .     S
C496   C500    1.367   .     S
Zn497  N511    2.017   .     S
Zn498  N512    2.017   .     S
C500   C895    1.166   .     S
C501   Cl513   1.778   .     S
C501   C506    1.410   .     A
C502   Cl514   1.778   .     S
C502   C505    1.410   .     A
C502   C416    1.378   1_655 S
C503   Cl515   1.778   .     S
C503   C505    1.410   .     A
C503   C413    1.378   1_655 S
C504   Cl516   1.778   .     S
C504   C506    1.410   .     A
C507   N512    1.370   .     A
C507   N517    1.428   .     S
C507   C774    1.421   1_545 S
C508   N511    1.370   .     A
C508   N520    1.428   .     S
C508   C641    1.421   .     S
C509   N523    1.428   .     S
C509   N512    1.370   .     A
C509   C772    1.421   1_545 S
C510   N511    1.370   .     A
C510   N526    1.428   .     S
C510   C639    1.421   .     S
N517   O518    1.300   .     A
N517   O519    1.299   .     A
N520   O522    1.299   .     A
N520   O521    1.300   .     A
N523   O525    1.300   .     A
N523   O524    1.299   .     A
N526   O528    1.300   .     A
N526   O527    1.299   .     A
O529   C533    1.293   .     A
O529   Zn541   2.008   .     S
O530   C534    1.293   .     A
O530   Zn542   2.008   .     S
O531   Zn541   2.008   .     S
O531   C534    1.293   .     A
O532   Zn542   2.008   .     S
O532   C533    1.293   .     A
C533   C550    1.444   .     S
C534   C549    1.444   .     S
O535   C539    1.279   .     A
O535   Zn541   1.952   .     S
O536   C540    1.279   .     A
O536   Zn542   1.952   .     S
O537   C540    1.279   .     A
O537   Zn541   1.951   .     S
O538   C539    1.279   .     A
O538   Zn542   1.951   .     S
C539   C543    1.367   .     S
C540   C544    1.367   .     S
Zn541  N555    2.017   .     S
Zn542  N556    2.017   .     S
C544   C939    1.166   .     S
C545   Cl557   1.778   .     S
C545   C550    1.410   .     A
C545   C635    1.378   1_455 S
C546   Cl558   1.778   .     S
C546   C549    1.410   .     A
C546   C592    1.378   .     S
C547   Cl559   1.778   .     S
C547   C549    1.410   .     A
C547   C589    1.378   .     S
C548   Cl560   1.778   .     S
C548   C550    1.410   .     A
C548   C634    1.378   1_455 S
C551   N556    1.370   .     A
C551   N561    1.428   .     S
C552   N555    1.370   .     A
C552   N564    1.428   .     S
C552   C685    1.421   .     S
C553   N567    1.428   .     S
C553   N556    1.370   .     A
C554   N555    1.370   .     A
C554   N570    1.428   .     S
C554   C683    1.421   .     S
N561   O562    1.300   .     A
N561   O563    1.299   .     A
N564   O566    1.299   .     A
N564   O565    1.300   .     A
N567   O569    1.300   .     A
N567   O568    1.299   .     A
N570   O572    1.300   .     A
N570   O571    1.299   .     A
O573   C577    1.293   .     A
O573   Zn585   2.008   .     S
O574   C578    1.293   .     A
O574   Zn586   2.008   .     S
O575   Zn585   2.008   .     S
O575   C578    1.293   .     A
O576   Zn586   2.008   .     S
O576   C577    1.293   .     A
C577   C594    1.444   .     S
C578   C593    1.444   .     S
O579   C583    1.279   .     A
O579   Zn585   1.952   .     S
O580   C584    1.279   .     A
O580   Zn586   1.952   .     S
O581   C584    1.279   .     A
O581   Zn585   1.951   .     S
O582   C583    1.279   .     A
O582   Zn586   1.951   .     S
C583   C587    1.367   .     S
C584   C588    1.367   .     S
Zn585  N599    2.017   .     S
Zn586  N600    2.017   .     S
C588   C983    1.166   .     S
C589   Cl601   1.778   .     S
C589   C594    1.410   .     A
C590   Cl602   1.778   .     S
C590   C593    1.410   .     A
C590   C636    1.378   .     S
C591   Cl603   1.778   .     S
C591   C593    1.410   .     A
C591   C633    1.378   .     S
C592   Cl604   1.778   .     S
C592   C594    1.410   .     A
C595   N600    1.370   .     A
C595   N605    1.428   .     S
C596   N599    1.370   .     A
C596   N608    1.428   .     S
C596   C729    1.421   .     S
C597   N611    1.428   .     S
C597   N600    1.370   .     A
C598   N599    1.370   .     A
C598   N614    1.428   .     S
C598   C727    1.421   .     S
N605   O606    1.300   .     A
N605   O607    1.299   .     A
N608   O610    1.299   .     A
N608   O609    1.300   .     A
N611   O613    1.300   .     A
N611   O612    1.299   .     A
N614   O616    1.300   .     A
N614   O615    1.299   .     A
O617   C621    1.293   .     A
O617   Zn629   2.008   .     S
O618   C622    1.293   .     A
O618   Zn630   2.008   .     S
O619   Zn629   2.008   .     S
O619   C622    1.293   .     A
O620   Zn630   2.008   .     S
O620   C621    1.293   .     A
C621   C638    1.444   .     S
C622   C637    1.444   .     S
O623   C627    1.279   .     A
O623   Zn629   1.952   .     S
O624   C628    1.279   .     A
O624   Zn630   1.952   .     S
O625   C628    1.279   .     A
O625   Zn629   1.951   .     S
O626   C627    1.279   .     A
O626   Zn630   1.951   .     S
C627   C631    1.367   .     S
C628   C632    1.367   .     S
Zn629  N643    2.017   .     S
Zn630  N644    2.017   .     S
C632   C1027   1.166   .     S
C633   Cl645   1.778   .     S
C633   C638    1.410   .     A
C634   Cl646   1.778   .     S
C634   C637    1.410   .     A
C634   C548    1.378   1_655 S
C635   Cl647   1.778   .     S
C635   C637    1.410   .     A
C635   C545    1.378   1_655 S
C636   Cl648   1.778   .     S
C636   C638    1.410   .     A
C639   N644    1.370   .     A
C639   N649    1.428   .     S
C640   N643    1.370   .     A
C640   N652    1.428   .     S
C640   C773    1.421   .     S
C641   N655    1.428   .     S
C641   N644    1.370   .     A
C642   N643    1.370   .     A
C642   N658    1.428   .     S
C642   C771    1.421   .     S
N649   O650    1.300   .     A
N649   O651    1.299   .     A
N652   O654    1.299   .     A
N652   O653    1.300   .     A
N655   O657    1.300   .     A
N655   O656    1.299   .     A
N658   O660    1.300   .     A
N658   O659    1.299   .     A
O661   C665    1.293   .     A
O661   Zn673   2.008   .     S
O662   C666    1.293   .     A
O662   Zn674   2.008   .     S
O663   Zn673   2.008   .     S
O663   C666    1.293   .     A
O664   Zn674   2.008   .     S
O664   C665    1.293   .     A
C665   C682    1.444   .     S
C666   C681    1.444   .     S
O667   C671    1.279   .     A
O667   Zn673   1.952   .     S
O668   C672    1.279   .     A
O668   Zn674   1.952   .     S
O669   C672    1.279   .     A
O669   Zn673   1.951   .     S
O670   C671    1.279   .     A
O670   Zn674   1.951   .     S
C671   C675    1.367   .     S
C672   C676    1.367   .     S
Zn673  N687    2.017   .     S
Zn674  N688    2.017   .     S
C676   C1071   1.166   .     S
C677   Cl689   1.778   .     S
C677   C682    1.410   .     A
C677   C767    1.378   1_455 S
C678   Cl690   1.778   .     S
C678   C681    1.410   .     A
C678   C724    1.378   .     S
C679   Cl691   1.778   .     S
C679   C681    1.410   .     A
C679   C721    1.378   .     S
C680   Cl692   1.778   .     S
C680   C682    1.410   .     A
C680   C766    1.378   1_455 S
C683   N688    1.370   .     A
C683   N693    1.428   .     S
C684   N687    1.370   .     A
C684   N696    1.428   .     S
C684   C421    1.421   1_565 S
C685   N699    1.428   .     S
C685   N688    1.370   .     A
C686   N687    1.370   .     A
C686   N702    1.428   .     S
C686   C419    1.421   1_565 S
N693   O694    1.300   .     A
N693   O695    1.299   .     A
N696   O698    1.299   .     A
N696   O697    1.300   .     A
N699   O701    1.300   .     A
N699   O700    1.299   .     A
N702   O704    1.300   .     A
N702   O703    1.299   .     A
O705   C709    1.293   .     A
O705   Zn717   2.008   .     S
O706   C710    1.293   .     A
O706   Zn718   2.008   .     S
O707   Zn717   2.008   .     S
O707   C710    1.293   .     A
O708   Zn718   2.008   .     S
O708   C709    1.293   .     A
C709   C726    1.444   .     S
C710   C725    1.444   .     S
O711   C715    1.279   .     A
O711   Zn717   1.952   .     S
O712   C716    1.279   .     A
O712   Zn718   1.952   .     S
O713   C716    1.279   .     A
O713   Zn717   1.951   .     S
O714   C715    1.279   .     A
O714   Zn718   1.951   .     S
C715   C719    1.367   .     S
C716   C720    1.367   .     S
Zn717  N731    2.017   .     S
Zn718  N732    2.017   .     S
C720   C1115   1.166   .     S
C721   Cl733   1.778   .     S
C721   C726    1.410   .     A
C722   Cl734   1.778   .     S
C722   C725    1.410   .     A
C722   C768    1.378   .     S
C723   Cl735   1.778   .     S
C723   C725    1.410   .     A
C723   C765    1.378   .     S
C724   Cl736   1.778   .     S
C724   C726    1.410   .     A
C727   N732    1.370   .     A
C727   N737    1.428   .     S
C728   N731    1.370   .     A
C728   N740    1.428   .     S
C728   C465    1.421   1_565 S
C729   N743    1.428   .     S
C729   N732    1.370   .     A
C730   N731    1.370   .     A
C730   N746    1.428   .     S
C730   C463    1.421   1_565 S
N737   O738    1.300   .     A
N737   O739    1.299   .     A
N740   O742    1.299   .     A
N740   O741    1.300   .     A
N743   O745    1.300   .     A
N743   O744    1.299   .     A
N746   O748    1.300   .     A
N746   O747    1.299   .     A
O749   C753    1.293   .     A
O749   Zn761   2.008   .     S
O750   C754    1.293   .     A
O750   Zn762   2.008   .     S
O751   Zn761   2.008   .     S
O751   C754    1.293   .     A
O752   Zn762   2.008   .     S
O752   C753    1.293   .     A
C753   C770    1.444   .     S
C754   C769    1.444   .     S
O755   C759    1.279   .     A
O755   Zn761   1.952   .     S
O756   C760    1.279   .     A
O756   Zn762   1.952   .     S
O757   C760    1.279   .     A
O757   Zn761   1.951   .     S
O758   C759    1.279   .     A
O758   Zn762   1.951   .     S
C759   C763    1.367   .     S
C760   C764    1.367   .     S
Zn761  N775    2.017   .     S
Zn762  N776    2.017   .     S
C764   C1159   1.166   .     S
C765   Cl777   1.778   .     S
C765   C770    1.410   .     A
C766   Cl778   1.778   .     S
C766   C769    1.410   .     A
C766   C680    1.378   1_655 S
C767   Cl779   1.778   .     S
C767   C769    1.410   .     A
C767   C677    1.378   1_655 S
C768   Cl780   1.778   .     S
C768   C770    1.410   .     A
C771   N776    1.370   .     A
C771   N781    1.428   .     S
C772   N775    1.370   .     A
C772   N784    1.428   .     S
C772   C509    1.421   1_565 S
C773   N787    1.428   .     S
C773   N776    1.370   .     A
C774   N775    1.370   .     A
C774   N790    1.428   .     S
C774   C507    1.421   1_565 S
N781   O782    1.300   .     A
N781   O783    1.299   .     A
N784   O786    1.299   .     A
N784   O785    1.300   .     A
N787   O789    1.300   .     A
N787   O788    1.299   .     A
N790   O792    1.300   .     A
N790   O791    1.299   .     A
O793   C797    1.293   .     A
O793   Zn805   2.008   .     S
O794   C798    1.293   .     A
O794   Zn806   2.008   .     S
O795   Zn805   2.008   .     S
O795   C798    1.293   .     A
O796   Zn806   2.008   .     S
O796   C797    1.293   .     A
C797   C814    1.444   .     S
C798   C813    1.444   .     S
O799   C803    1.279   .     A
O799   Zn805   1.952   .     S
O800   C804    1.279   .     A
O800   Zn806   1.952   .     S
O801   C804    1.279   .     A
O801   Zn805   1.951   .     S
O802   C803    1.279   .     A
O802   Zn806   1.951   .     S
C803   C807    1.367   .     S
C804   C808    1.367   .     S
Zn805  N819    2.017   .     S
Zn806  N820    2.017   .     S
C808   C15     1.166   1_556 S
C809   Cl821   1.778   .     S
C809   C814    1.410   .     A
C809   C899    1.378   1_455 S
C810   Cl822   1.778   .     S
C810   C813    1.410   .     A
C810   C856    1.378   .     S
C811   Cl823   1.778   .     S
C811   C813    1.410   .     A
C811   C853    1.378   .     S
C812   Cl824   1.778   .     S
C812   C814    1.410   .     A
C812   C898    1.378   1_455 S
C815   N820    1.370   .     A
C815   N825    1.428   .     S
C815   C1082   1.421   1_545 S
C816   N819    1.370   .     A
C816   N828    1.428   .     S
C816   C949    1.421   .     S
C817   N831    1.428   .     S
C817   N820    1.370   .     A
C817   C1080   1.421   1_545 S
C818   N819    1.370   .     A
C818   N834    1.428   .     S
C818   C947    1.421   .     S
N825   O826    1.300   .     A
N825   O827    1.299   .     A
N828   O830    1.299   .     A
N828   O829    1.300   .     A
N831   O833    1.300   .     A
N831   O832    1.299   .     A
N834   O836    1.300   .     A
N834   O835    1.299   .     A
O837   C841    1.293   .     A
O837   Zn849   2.008   .     S
O838   C842    1.293   .     A
O838   Zn850   2.008   .     S
O839   Zn849   2.008   .     S
O839   C842    1.293   .     A
O840   Zn850   2.008   .     S
O840   C841    1.293   .     A
C841   C858    1.444   .     S
C842   C857    1.444   .     S
O843   C847    1.279   .     A
O843   Zn849   1.952   .     S
O844   C848    1.279   .     A
O844   Zn850   1.952   .     S
O845   C848    1.279   .     A
O845   Zn849   1.951   .     S
O846   C847    1.279   .     A
O846   Zn850   1.951   .     S
C847   C851    1.367   .     S
C848   C852    1.367   .     S
Zn849  N863    2.017   .     S
Zn850  N864    2.017   .     S
C852   C59     1.166   1_556 S
C853   Cl865   1.778   .     S
C853   C858    1.410   .     A
C854   Cl866   1.778   .     S
C854   C857    1.410   .     A
C854   C900    1.378   .     S
C855   Cl867   1.778   .     S
C855   C857    1.410   .     A
C855   C897    1.378   .     S
C856   Cl868   1.778   .     S
C856   C858    1.410   .     A
C859   N864    1.370   .     A
C859   N869    1.428   .     S
C859   C1126   1.421   1_545 S
C860   N863    1.370   .     A
C860   N872    1.428   .     S
C860   C993    1.421   .     S
C861   N875    1.428   .     S
C861   N864    1.370   .     A
C861   C1124   1.421   1_545 S
C862   N863    1.370   .     A
C862   N878    1.428   .     S
C862   C991    1.421   .     S
N869   O870    1.300   .     A
N869   O871    1.299   .     A
N872   O874    1.299   .     A
N872   O873    1.300   .     A
N875   O877    1.300   .     A
N875   O876    1.299   .     A
N878   O880    1.300   .     A
N878   O879    1.299   .     A
O881   C885    1.293   .     A
O881   Zn893   2.008   .     S
O882   C886    1.293   .     A
O882   Zn894   2.008   .     S
O883   Zn893   2.008   .     S
O883   C886    1.293   .     A
O884   Zn894   2.008   .     S
O884   C885    1.293   .     A
C885   C902    1.444   .     S
C886   C901    1.444   .     S
O887   C891    1.279   .     A
O887   Zn893   1.952   .     S
O888   C892    1.279   .     A
O888   Zn894   1.952   .     S
O889   C892    1.279   .     A
O889   Zn893   1.951   .     S
O890   C891    1.279   .     A
O890   Zn894   1.951   .     S
C891   C895    1.367   .     S
C892   C896    1.367   .     S
Zn893  N907    2.017   .     S
Zn894  N908    2.017   .     S
C896   C103    1.166   1_556 S
C897   Cl909   1.778   .     S
C897   C902    1.410   .     A
C898   Cl910   1.778   .     S
C898   C901    1.410   .     A
C898   C812    1.378   1_655 S
C899   Cl911   1.778   .     S
C899   C901    1.410   .     A
C899   C809    1.378   1_655 S
C900   Cl912   1.778   .     S
C900   C902    1.410   .     A
C903   N908    1.370   .     A
C903   N913    1.428   .     S
C903   C1170   1.421   1_545 S
C904   N907    1.370   .     A
C904   N916    1.428   .     S
C904   C1037   1.421   .     S
C905   N919    1.428   .     S
C905   N908    1.370   .     A
C905   C1168   1.421   1_545 S
C906   N907    1.370   .     A
C906   N922    1.428   .     S
C906   C1035   1.421   .     S
N913   O914    1.300   .     A
N913   O915    1.299   .     A
N916   O918    1.299   .     A
N916   O917    1.300   .     A
N919   O921    1.300   .     A
N919   O920    1.299   .     A
N922   O924    1.300   .     A
N922   O923    1.299   .     A
O925   C929    1.293   .     A
O925   Zn937   2.008   .     S
O926   C930    1.293   .     A
O926   Zn938   2.008   .     S
O927   Zn937   2.008   .     S
O927   C930    1.293   .     A
O928   Zn938   2.008   .     S
O928   C929    1.293   .     A
C929   C946    1.444   .     S
C930   C945    1.444   .     S
O931   C935    1.279   .     A
O931   Zn937   1.952   .     S
O932   C936    1.279   .     A
O932   Zn938   1.952   .     S
O933   C936    1.279   .     A
O933   Zn937   1.951   .     S
O934   C935    1.279   .     A
O934   Zn938   1.951   .     S
C935   C939    1.367   .     S
C936   C940    1.367   .     S
Zn937  N951    2.017   .     S
Zn938  N952    2.017   .     S
C940   C147    1.166   1_556 S
C941   Cl953   1.778   .     S
C941   C946    1.410   .     A
C941   C1031   1.378   1_455 S
C942   Cl954   1.778   .     S
C942   C945    1.410   .     A
C942   C988    1.378   .     S
C943   Cl955   1.778   .     S
C943   C945    1.410   .     A
C943   C985    1.378   .     S
C944   Cl956   1.778   .     S
C944   C946    1.410   .     A
C944   C1030   1.378   1_455 S
C947   N952    1.370   .     A
C947   N957    1.428   .     S
C948   N951    1.370   .     A
C948   N960    1.428   .     S
C948   C1081   1.421   .     S
C949   N963    1.428   .     S
C949   N952    1.370   .     A
C950   N951    1.370   .     A
C950   N966    1.428   .     S
C950   C1079   1.421   .     S
N957   O958    1.300   .     A
N957   O959    1.299   .     A
N960   O962    1.299   .     A
N960   O961    1.300   .     A
N963   O965    1.300   .     A
N963   O964    1.299   .     A
N966   O968    1.300   .     A
N966   O967    1.299   .     A
O969   C973    1.293   .     A
O969   Zn981   2.008   .     S
O970   C974    1.293   .     A
O970   Zn982   2.008   .     S
O971   Zn981   2.008   .     S
O971   C974    1.293   .     A
O972   Zn982   2.008   .     S
O972   C973    1.293   .     A
C973   C990    1.444   .     S
C974   C989    1.444   .     S
O975   C979    1.279   .     A
O975   Zn981   1.952   .     S
O976   C980    1.279   .     A
O976   Zn982   1.952   .     S
O977   C980    1.279   .     A
O977   Zn981   1.951   .     S
O978   C979    1.279   .     A
O978   Zn982   1.951   .     S
C979   C983    1.367   .     S
C980   C984    1.367   .     S
Zn981  N995    2.017   .     S
Zn982  N996    2.017   .     S
C984   C191    1.166   1_556 S
C985   Cl997   1.778   .     S
C985   C990    1.410   .     A
C986   Cl998   1.778   .     S
C986   C989    1.410   .     A
C986   C1032   1.378   .     S
C987   Cl999   1.778   .     S
C987   C989    1.410   .     A
C987   C1029   1.378   .     S
C988   Cl1000  1.778   .     S
C988   C990    1.410   .     A
C991   N996    1.370   .     A
C991   N1001   1.428   .     S
C992   N995    1.370   .     A
C992   N1004   1.428   .     S
C992   C1125   1.421   .     S
C993   N1007   1.428   .     S
C993   N996    1.370   .     A
C994   N995    1.370   .     A
C994   N1010   1.428   .     S
C994   C1123   1.421   .     S
N1001  O1002   1.300   .     A
N1001  O1003   1.299   .     A
N1004  O1006   1.299   .     A
N1004  O1005   1.300   .     A
N1007  O1009   1.300   .     A
N1007  O1008   1.299   .     A
N1010  O1012   1.300   .     A
N1010  O1011   1.299   .     A
O1013  C1017   1.293   .     A
O1013  Zn1025  2.008   .     S
O1014  C1018   1.293   .     A
O1014  Zn1026  2.008   .     S
O1015  Zn1025  2.008   .     S
O1015  C1018   1.293   .     A
O1016  Zn1026  2.008   .     S
O1016  C1017   1.293   .     A
C1017  C1034   1.444   .     S
C1018  C1033   1.444   .     S
O1019  C1023   1.279   .     A
O1019  Zn1025  1.952   .     S
O1020  C1024   1.279   .     A
O1020  Zn1026  1.952   .     S
O1021  C1024   1.279   .     A
O1021  Zn1025  1.951   .     S
O1022  C1023   1.279   .     A
O1022  Zn1026  1.951   .     S
C1023  C1027   1.367   .     S
C1024  C1028   1.367   .     S
Zn1025 N1039   2.017   .     S
Zn1026 N1040   2.017   .     S
C1028  C235    1.166   1_556 S
C1029  Cl1041  1.778   .     S
C1029  C1034   1.410   .     A
C1030  Cl1042  1.778   .     S
C1030  C1033   1.410   .     A
C1030  C944    1.378   1_655 S
C1031  Cl1043  1.778   .     S
C1031  C1033   1.410   .     A
C1031  C941    1.378   1_655 S
C1032  Cl1044  1.778   .     S
C1032  C1034   1.410   .     A
C1035  N1040   1.370   .     A
C1035  N1045   1.428   .     S
C1036  N1039   1.370   .     A
C1036  N1048   1.428   .     S
C1036  C1169   1.421   .     S
C1037  N1051   1.428   .     S
C1037  N1040   1.370   .     A
C1038  N1039   1.370   .     A
C1038  N1054   1.428   .     S
C1038  C1167   1.421   .     S
N1045  O1046   1.300   .     A
N1045  O1047   1.299   .     A
N1048  O1050   1.299   .     A
N1048  O1049   1.300   .     A
N1051  O1053   1.300   .     A
N1051  O1052   1.299   .     A
N1054  O1056   1.300   .     A
N1054  O1055   1.299   .     A
O1057  C1061   1.293   .     A
O1057  Zn1069  2.008   .     S
O1058  C1062   1.293   .     A
O1058  Zn1070  2.008   .     S
O1059  Zn1069  2.008   .     S
O1059  C1062   1.293   .     A
O1060  Zn1070  2.008   .     S
O1060  C1061   1.293   .     A
C1061  C1078   1.444   .     S
C1062  C1077   1.444   .     S
O1063  C1067   1.279   .     A
O1063  Zn1069  1.952   .     S
O1064  C1068   1.279   .     A
O1064  Zn1070  1.952   .     S
O1065  C1068   1.279   .     A
O1065  Zn1069  1.951   .     S
O1066  C1067   1.279   .     A
O1066  Zn1070  1.951   .     S
C1067  C1071   1.367   .     S
C1068  C1072   1.367   .     S
Zn1069 N1083   2.017   .     S
Zn1070 N1084   2.017   .     S
C1072  C279    1.166   1_556 S
C1073  Cl1085  1.778   .     S
C1073  C1078   1.410   .     A
C1073  C1163   1.378   1_455 S
C1074  Cl1086  1.778   .     S
C1074  C1077   1.410   .     A
C1074  C1120   1.378   .     S
C1075  Cl1087  1.778   .     S
C1075  C1077   1.410   .     A
C1075  C1117   1.378   .     S
C1076  Cl1088  1.778   .     S
C1076  C1078   1.410   .     A
C1076  C1162   1.378   1_455 S
C1079  N1084   1.370   .     A
C1079  N1089   1.428   .     S
C1080  N1083   1.370   .     A
C1080  N1092   1.428   .     S
C1080  C817    1.421   1_565 S
C1081  N1095   1.428   .     S
C1081  N1084   1.370   .     A
C1082  N1083   1.370   .     A
C1082  N1098   1.428   .     S
C1082  C815    1.421   1_565 S
N1089  O1090   1.300   .     A
N1089  O1091   1.299   .     A
N1092  O1094   1.299   .     A
N1092  O1093   1.300   .     A
N1095  O1097   1.300   .     A
N1095  O1096   1.299   .     A
N1098  O1100   1.300   .     A
N1098  O1099   1.299   .     A
O1101  C1105   1.293   .     A
O1101  Zn1113  2.008   .     S
O1102  C1106   1.293   .     A
O1102  Zn1114  2.008   .     S
O1103  Zn1113  2.008   .     S
O1103  C1106   1.293   .     A
O1104  Zn1114  2.008   .     S
O1104  C1105   1.293   .     A
C1105  C1122   1.444   .     S
C1106  C1121   1.444   .     S
O1107  C1111   1.279   .     A
O1107  Zn1113  1.952   .     S
O1108  C1112   1.279   .     A
O1108  Zn1114  1.952   .     S
O1109  C1112   1.279   .     A
O1109  Zn1113  1.951   .     S
O1110  C1111   1.279   .     A
O1110  Zn1114  1.951   .     S
C1111  C1115   1.367   .     S
C1112  C1116   1.367   .     S
Zn1113 N1127   2.017   .     S
Zn1114 N1128   2.017   .     S
C1116  C323    1.166   1_556 S
C1117  Cl1129  1.778   .     S
C1117  C1122   1.410   .     A
C1118  Cl1130  1.778   .     S
C1118  C1121   1.410   .     A
C1118  C1164   1.378   .     S
C1119  Cl1131  1.778   .     S
C1119  C1121   1.410   .     A
C1119  C1161   1.378   .     S
C1120  Cl1132  1.778   .     S
C1120  C1122   1.410   .     A
C1123  N1128   1.370   .     A
C1123  N1133   1.428   .     S
C1124  N1127   1.370   .     A
C1124  N1136   1.428   .     S
C1124  C861    1.421   1_565 S
C1125  N1139   1.428   .     S
C1125  N1128   1.370   .     A
C1126  N1127   1.370   .     A
C1126  N1142   1.428   .     S
C1126  C859    1.421   1_565 S
N1133  O1134   1.300   .     A
N1133  O1135   1.299   .     A
N1136  O1138   1.299   .     A
N1136  O1137   1.300   .     A
N1139  O1141   1.300   .     A
N1139  O1140   1.299   .     A
N1142  O1144   1.300   .     A
N1142  O1143   1.299   .     A
O1145  C1149   1.293   .     A
O1145  Zn1157  2.008   .     S
O1146  C1150   1.293   .     A
O1146  Zn1158  2.008   .     S
O1147  Zn1157  2.008   .     S
O1147  C1150   1.293   .     A
O1148  Zn1158  2.008   .     S
O1148  C1149   1.293   .     A
C1149  C1166   1.444   .     S
C1150  C1165   1.444   .     S
O1151  C1155   1.279   .     A
O1151  Zn1157  1.952   .     S
O1152  C1156   1.279   .     A
O1152  Zn1158  1.952   .     S
O1153  C1156   1.279   .     A
O1153  Zn1157  1.951   .     S
O1154  C1155   1.279   .     A
O1154  Zn1158  1.951   .     S
C1155  C1159   1.367   .     S
C1156  C1160   1.367   .     S
Zn1157 N1171   2.017   .     S
Zn1158 N1172   2.017   .     S
C1160  C367    1.166   1_556 S
C1161  Cl1173  1.778   .     S
C1161  C1166   1.410   .     A
C1162  Cl1174  1.778   .     S
C1162  C1165   1.410   .     A
C1162  C1076   1.378   1_655 S
C1163  Cl1175  1.778   .     S
C1163  C1165   1.410   .     A
C1163  C1073   1.378   1_655 S
C1164  Cl1176  1.778   .     S
C1164  C1166   1.410   .     A
C1167  N1172   1.370   .     A
C1167  N1177   1.428   .     S
C1168  N1171   1.370   .     A
C1168  N1180   1.428   .     S
C1168  C905    1.421   1_565 S
C1169  N1183   1.428   .     S
C1169  N1172   1.370   .     A
C1170  N1171   1.370   .     A
C1170  N1186   1.428   .     S
C1170  C903    1.421   1_565 S
N1177  O1178   1.300   .     A
N1177  O1179   1.299   .     A
N1180  O1182   1.299   .     A
N1180  O1181   1.300   .     A
N1183  O1185   1.300   .     A
N1183  O1184   1.299   .     A
N1186  O1188   1.300   .     A
N1186  O1187   1.299   .     A
