data_str_m3_o1_o1_pcu_sym.88
_audit_creation_date              2020-01-03
_audit_creation_method            'Materials Studio'
_symmetry_space_group_name_H-M    'P1'
_symmetry_Int_Tables_number       1
_symmetry_cell_setting            triclinic
loop_
_symmetry_equiv_pos_as_xyz
  x,y,z
_cell_length_a                    30.9021
_cell_length_b                    29.2118
_cell_length_c                    30.2286
_cell_angle_alpha                 89.8264
_cell_angle_beta                  90.7909
_cell_angle_gamma                 89.2469
loop_
_atom_site_label
_atom_site_type_symbol
_atom_site_fract_x
_atom_site_fract_y
_atom_site_fract_z
_atom_site_U_iso_or_equiv
_atom_site_adp_type
_atom_site_occupancy
C1     C     0.05946   0.18995   0.16687   0.00000  Uiso   1.00
C2     C     0.44044   0.30990   0.16638   0.00000  Uiso   1.00
C3     C     0.44045   0.18988   0.16653   0.00000  Uiso   1.00
C4     C     0.05973   0.30995   0.16689   0.00000  Uiso   1.00
C5     C     0.30958   0.44007   0.16683   0.00000  Uiso   1.00
C6     C     0.19059   0.06011   0.16645   0.00000  Uiso   1.00
C7     C     0.18872   0.44183   0.16650   0.00000  Uiso   1.00
C8     C     0.30947   0.06016   0.16676   0.00000  Uiso   1.00
C9     C     0.49219   0.28920   0.02332   0.00000  Uiso   1.00
C10    C     0.01643   0.21364   0.31088   0.00000  Uiso   1.00
C11    C     0.00731   0.21073   0.02383   0.00000  Uiso   1.00
C12    C     0.48293   0.28607   0.31016   0.00000  Uiso   1.00
C13    C     0.24539   0.04016   0.02356   0.00000  Uiso   1.00
C14    C     0.25824   0.46014   0.31008   0.00000  Uiso   1.00
C15    C     0.25471   0.45958   0.02434   0.00000  Uiso   1.00
C16    C     0.24783   0.04035   0.30931   0.00000  Uiso   1.00
C17    C     0.37209   0.16216   0.13710   0.00000  Uiso   1.00
C18    C     0.09865   0.37084   0.20530   0.00000  Uiso   1.00
C19    C     0.11483   0.35239   0.12857   0.00000  Uiso   1.00
C20    C     0.41028   0.11949   0.19551   0.00000  Uiso   1.00
C21    C     0.13142   0.16648   0.18901   0.00000  Uiso   1.00
C22    C     0.41809   0.38898   0.16280   0.00000  Uiso   1.00
C23    C     0.36455   0.32838   0.16819   0.00000  Uiso   1.00
C24    C     0.08575   0.11560   0.14501   0.00000  Uiso   1.00
C25    C     0.14289   0.38789   0.12722   0.00000  Uiso   1.00
C26    C     0.37798   0.08757   0.19558   0.00000  Uiso   1.00
C27    C     0.33948   0.13051   0.13757   0.00000  Uiso   1.00
C28    C     0.12985   0.40385   0.20499   0.00000  Uiso   1.00
C29    C     0.33188   0.36080   0.16831   0.00000  Uiso   1.00
C30    C     0.11860   0.08355   0.14438   0.00000  Uiso   1.00
C31    C     0.16428   0.13445   0.18837   0.00000  Uiso   1.00
C32    C     0.38547   0.42145   0.16384   0.00000  Uiso   1.00
C33    C     0.09190   0.34430   0.16726   0.00000  Uiso   1.00
C34    C     0.40726   0.15665   0.16627   0.00000  Uiso   1.00
C35    C     0.40720   0.34291   0.16563   0.00000  Uiso   1.00
C36    C     0.09257   0.15674   0.16722   0.00000  Uiso   1.00
C37    C     0.34259   0.09337   0.16684   0.00000  Uiso   1.00
C38    C     0.15305   0.41135   0.16614   0.00000  Uiso   1.00
C39    C     0.15749   0.09334   0.16608   0.00000  Uiso   1.00
C40    C     0.34280   0.40696   0.16698   0.00000  Uiso   1.00
N41    N     0.00000   0.25000   0.28573   0.00000  Uiso   1.00
N42    N     0.00000   0.25000   0.04760   0.00000  Uiso   1.00
N43    N     0.25000   0.00000   0.28573   0.00000  Uiso   1.00
N44    N     0.25000   0.00000   0.04760   0.00000  Uiso   1.00
O45    O     0.04581   0.20419   0.20487   0.00000  Uiso   1.00
O46    O     0.45420   0.29581   0.12846   0.00000  Uiso   1.00
O47    O     0.45420   0.29581   0.20487   0.00000  Uiso   1.00
O48    O     0.04581   0.20419   0.12846   0.00000  Uiso   1.00
O49    O     0.45420   0.20419   0.12846   0.00000  Uiso   1.00
O50    O     0.04581   0.29581   0.20487   0.00000  Uiso   1.00
O51    O     0.04581   0.29581   0.12846   0.00000  Uiso   1.00
O52    O     0.45420   0.20419   0.20487   0.00000  Uiso   1.00
O53    O     0.29581   0.45419   0.20487   0.00000  Uiso   1.00
O54    O     0.20420   0.04581   0.12846   0.00000  Uiso   1.00
O55    O     0.20420   0.04581   0.20487   0.00000  Uiso   1.00
O56    O     0.29581   0.45419   0.12846   0.00000  Uiso   1.00
O57    O     0.20420   0.45419   0.12846   0.00000  Uiso   1.00
O58    O     0.29581   0.04581   0.20487   0.00000  Uiso   1.00
O59    O     0.29581   0.04581   0.12846   0.00000  Uiso   1.00
O60    O     0.20420   0.45419   0.20487   0.00000  Uiso   1.00
Zn61   Zn    0.00000   0.25000   0.21771   0.00000  Uiso   1.00
Zn62   Zn    0.00000   0.25000   0.11563   0.00000  Uiso   1.00
Zn63   Zn    0.25000   0.00000   0.21771   0.00000  Uiso   1.00
Zn64   Zn    0.25000   0.00000   0.11563   0.00000  Uiso   1.00
C65    C     0.49421   0.33601   0.04459   0.00000  Uiso   1.00
C66    C     0.03267   0.36284   0.02727   0.00000  Uiso   1.00
H67    H     0.02879   0.37118   0.32503   0.00000  Uiso   1.00
H68    H     0.03602   0.39528   0.04601   0.00000  Uiso   1.00
H69    H     0.06289   0.34237   0.03117   0.00000  Uiso   1.00
H70    H     0.46373   0.35578   0.03930   0.00000  Uiso   1.00
H71    H     0.49871   0.33362   0.08037   0.00000  Uiso   1.00
C72    C     0.05304   0.18337   0.29479   0.00000  Uiso   1.00
C73    C     0.03774   0.13909   0.27326   0.00000  Uiso   1.00
H74    H     0.01054   0.14606   0.25006   0.00000  Uiso   1.00
H75    H     0.06484   0.12304   0.25493   0.00000  Uiso   1.00
H76    H     0.02718   0.11420   0.29850   0.00000  Uiso   1.00
H77    H     0.07477   0.20340   0.27373   0.00000  Uiso   1.00
H78    H     0.07509   0.17387   0.32279   0.00000  Uiso   1.00
C79    C     0.00259   0.16408   0.04499   0.00000  Uiso   1.00
C80    C     0.46062   0.14174   0.02945   0.00000  Uiso   1.00
H81    H     0.45835   0.10701   0.04421   0.00000  Uiso   1.00
H82    H     0.43232   0.16251   0.04025   0.00000  Uiso   1.00
H83    H     0.45927   0.13863   0.32622   0.00000  Uiso   1.00
H84    H     0.03067   0.14134   0.03824   0.00000  Uiso   1.00
H85    H     0.00085   0.16625   0.08090   0.00000  Uiso   1.00
C86    C     0.44392   0.31357   0.29387   0.00000  Uiso   1.00
C87    C     0.45509   0.36008   0.27391   0.00000  Uiso   1.00
H88    H     0.46039   0.38582   0.30018   0.00000  Uiso   1.00
H89    H     0.48436   0.35779   0.25310   0.00000  Uiso   1.00
H90    H     0.42728   0.37276   0.25362   0.00000  Uiso   1.00
H91    H     0.42358   0.29245   0.27183   0.00000  Uiso   1.00
H92    H     0.42143   0.31995   0.32164   0.00000  Uiso   1.00
C93    C     0.23500   0.08465   0.04715   0.00000  Uiso   1.00
C94    C     0.18641   0.09552   0.04489   0.00000  Uiso   1.00
H95    H     0.16737   0.06558   0.05549   0.00000  Uiso   1.00
H96    H     0.17889   0.12491   0.06682   0.00000  Uiso   1.00
H97    H     0.17607   0.10466   0.01067   0.00000  Uiso   1.00
H98    H     0.24654   0.08377   0.08135   0.00000  Uiso   1.00
H99    H     0.25274   0.11415   0.03396   0.00000  Uiso   1.00
C100   C     0.27974   0.41853   0.28868   0.00000  Uiso   1.00
C101   C     0.24877   0.38772   0.26249   0.00000  Uiso   1.00
H102   H     0.25151   0.39260   0.22660   0.00000  Uiso   1.00
H103   H     0.25725   0.35114   0.26847   0.00000  Uiso   1.00
H104   H     0.21464   0.39353   0.27218   0.00000  Uiso   1.00
H105   H     0.30906   0.42846   0.27127   0.00000  Uiso   1.00
H106   H     0.29662   0.39645   0.31317   0.00000  Uiso   1.00
C107   C     0.25897   0.41422   0.04978   0.00000  Uiso   1.00
C108   C     0.23008   0.37526   0.03327   0.00000  Uiso   1.00
H109   H     0.22072   0.35326   0.06153   0.00000  Uiso   1.00
H110   H     0.20032   0.38877   0.01659   0.00000  Uiso   1.00
H111   H     0.24776   0.35181   0.01110   0.00000  Uiso   1.00
H112   H     0.29335   0.40271   0.05165   0.00000  Uiso   1.00
H113   H     0.24939   0.41867   0.08361   0.00000  Uiso   1.00
C114   C     0.25548   0.08552   0.28585   0.00000  Uiso   1.00
C115   C     0.30268   0.10026   0.29121   0.00000  Uiso   1.00
H116   H     0.32488   0.07215   0.28118   0.00000  Uiso   1.00
H117   H     0.30855   0.13063   0.27004   0.00000  Uiso   1.00
H118   H     0.31080   0.10922   0.32589   0.00000  Uiso   1.00
H119   H     0.24854   0.08349   0.25070   0.00000  Uiso   1.00
H120   H     0.23326   0.11305   0.29696   0.00000  Uiso   1.00
F121   F     0.36879   0.19876   0.10934   0.00000  Uiso   1.00
F122   F     0.07537   0.36512   0.24268   0.00000  Uiso   1.00
F123   F     0.11120   0.32540   0.09227   0.00000  Uiso   1.00
F124   F     0.44495   0.11334   0.22289   0.00000  Uiso   1.00
F125   F     0.13763   0.20722   0.20959   0.00000  Uiso   1.00
F126   F     0.46001   0.40204   0.15998   0.00000  Uiso   1.00
F127   F     0.35493   0.28318   0.17026   0.00000  Uiso   1.00
F128   F     0.04715   0.10624   0.12526   0.00000  Uiso   1.00
F129   F     0.15982   0.39900   0.08768   0.00000  Uiso   1.00
F130   F     0.38190   0.05034   0.22247   0.00000  Uiso   1.00
F131   F     0.30452   0.13669   0.11045   0.00000  Uiso   1.00
F132   F     0.13644   0.42891   0.24223   0.00000  Uiso   1.00
F133   F     0.28997   0.34746   0.16892   0.00000  Uiso   1.00
F134   F     0.11236   0.04277   0.12391   0.00000  Uiso   1.00
F135   F     0.20282   0.14376   0.20825   0.00000  Uiso   1.00
F136   F     0.39511   0.46664   0.16167   0.00000  Uiso   1.00
C137   C     0.55946   0.18995   0.16687   0.00000  Uiso   1.00
C138   C     0.94044   0.30990   0.16638   0.00000  Uiso   1.00
C139   C     0.94045   0.18988   0.16653   0.00000  Uiso   1.00
C140   C     0.55973   0.30995   0.16689   0.00000  Uiso   1.00
C141   C     0.80958   0.44007   0.16683   0.00000  Uiso   1.00
C142   C     0.69059   0.06011   0.16645   0.00000  Uiso   1.00
C143   C     0.68872   0.44183   0.16650   0.00000  Uiso   1.00
C144   C     0.80947   0.06016   0.16676   0.00000  Uiso   1.00
C145   C     0.99219   0.28920   0.02332   0.00000  Uiso   1.00
C146   C     0.51643   0.21364   0.31088   0.00000  Uiso   1.00
C147   C     0.50731   0.21073   0.02383   0.00000  Uiso   1.00
C148   C     0.98293   0.28607   0.31016   0.00000  Uiso   1.00
C149   C     0.74539   0.04016   0.02356   0.00000  Uiso   1.00
C150   C     0.75824   0.46014   0.31008   0.00000  Uiso   1.00
C151   C     0.75471   0.45958   0.02434   0.00000  Uiso   1.00
C152   C     0.74783   0.04035   0.30931   0.00000  Uiso   1.00
C153   C     0.87209   0.16216   0.13710   0.00000  Uiso   1.00
C154   C     0.59865   0.37084   0.20530   0.00000  Uiso   1.00
C155   C     0.61483   0.35239   0.12857   0.00000  Uiso   1.00
C156   C     0.91028   0.11949   0.19551   0.00000  Uiso   1.00
C157   C     0.63142   0.16648   0.18901   0.00000  Uiso   1.00
C158   C     0.91809   0.38898   0.16280   0.00000  Uiso   1.00
C159   C     0.86455   0.32838   0.16819   0.00000  Uiso   1.00
C160   C     0.58575   0.11560   0.14501   0.00000  Uiso   1.00
C161   C     0.64289   0.38789   0.12722   0.00000  Uiso   1.00
C162   C     0.87798   0.08757   0.19558   0.00000  Uiso   1.00
C163   C     0.83948   0.13051   0.13757   0.00000  Uiso   1.00
C164   C     0.62985   0.40385   0.20499   0.00000  Uiso   1.00
C165   C     0.83188   0.36080   0.16831   0.00000  Uiso   1.00
C166   C     0.61860   0.08355   0.14438   0.00000  Uiso   1.00
C167   C     0.66428   0.13445   0.18837   0.00000  Uiso   1.00
C168   C     0.88547   0.42145   0.16384   0.00000  Uiso   1.00
C169   C     0.59190   0.34430   0.16726   0.00000  Uiso   1.00
C170   C     0.90726   0.15665   0.16627   0.00000  Uiso   1.00
C171   C     0.90720   0.34291   0.16563   0.00000  Uiso   1.00
C172   C     0.59257   0.15674   0.16722   0.00000  Uiso   1.00
C173   C     0.84259   0.09337   0.16684   0.00000  Uiso   1.00
C174   C     0.65305   0.41135   0.16614   0.00000  Uiso   1.00
C175   C     0.65749   0.09334   0.16608   0.00000  Uiso   1.00
C176   C     0.84280   0.40696   0.16698   0.00000  Uiso   1.00
N177   N     0.50000   0.25000   0.28573   0.00000  Uiso   1.00
N178   N     0.50000   0.25000   0.04760   0.00000  Uiso   1.00
N179   N     0.75000   0.00000   0.28573   0.00000  Uiso   1.00
N180   N     0.75000   0.00000   0.04760   0.00000  Uiso   1.00
O181   O     0.54581   0.20419   0.20487   0.00000  Uiso   1.00
O182   O     0.95420   0.29581   0.12846   0.00000  Uiso   1.00
O183   O     0.95420   0.29581   0.20487   0.00000  Uiso   1.00
O184   O     0.54581   0.20419   0.12846   0.00000  Uiso   1.00
O185   O     0.95420   0.20419   0.12846   0.00000  Uiso   1.00
O186   O     0.54581   0.29581   0.20487   0.00000  Uiso   1.00
O187   O     0.54581   0.29581   0.12846   0.00000  Uiso   1.00
O188   O     0.95420   0.20419   0.20487   0.00000  Uiso   1.00
O189   O     0.79581   0.45419   0.20487   0.00000  Uiso   1.00
O190   O     0.70420   0.04581   0.12846   0.00000  Uiso   1.00
O191   O     0.70420   0.04581   0.20487   0.00000  Uiso   1.00
O192   O     0.79581   0.45419   0.12846   0.00000  Uiso   1.00
O193   O     0.70420   0.45419   0.12846   0.00000  Uiso   1.00
O194   O     0.79581   0.04581   0.20487   0.00000  Uiso   1.00
O195   O     0.79581   0.04581   0.12846   0.00000  Uiso   1.00
O196   O     0.70420   0.45419   0.20487   0.00000  Uiso   1.00
Zn197  Zn    0.50000   0.25000   0.21771   0.00000  Uiso   1.00
Zn198  Zn    0.50000   0.25000   0.11563   0.00000  Uiso   1.00
Zn199  Zn    0.75000   0.00000   0.21771   0.00000  Uiso   1.00
Zn200  Zn    0.75000   0.00000   0.11563   0.00000  Uiso   1.00
C201   C     0.99421   0.33601   0.04459   0.00000  Uiso   1.00
C202   C     0.53267   0.36284   0.02727   0.00000  Uiso   1.00
H203   H     0.52879   0.37118   0.32503   0.00000  Uiso   1.00
H204   H     0.53602   0.39528   0.04601   0.00000  Uiso   1.00
H205   H     0.56289   0.34237   0.03117   0.00000  Uiso   1.00
H206   H     0.96373   0.35578   0.03930   0.00000  Uiso   1.00
H207   H     0.99871   0.33362   0.08037   0.00000  Uiso   1.00
C208   C     0.55304   0.18337   0.29479   0.00000  Uiso   1.00
C209   C     0.53774   0.13909   0.27326   0.00000  Uiso   1.00
H210   H     0.51054   0.14606   0.25006   0.00000  Uiso   1.00
H211   H     0.56484   0.12304   0.25493   0.00000  Uiso   1.00
H212   H     0.52718   0.11420   0.29850   0.00000  Uiso   1.00
H213   H     0.57477   0.20340   0.27373   0.00000  Uiso   1.00
H214   H     0.57509   0.17387   0.32279   0.00000  Uiso   1.00
C215   C     0.50259   0.16408   0.04499   0.00000  Uiso   1.00
C216   C     0.96062   0.14174   0.02945   0.00000  Uiso   1.00
H217   H     0.95835   0.10701   0.04421   0.00000  Uiso   1.00
H218   H     0.93232   0.16251   0.04025   0.00000  Uiso   1.00
H219   H     0.95927   0.13863   0.32622   0.00000  Uiso   1.00
H220   H     0.53067   0.14134   0.03824   0.00000  Uiso   1.00
H221   H     0.50085   0.16625   0.08090   0.00000  Uiso   1.00
C222   C     0.94392   0.31357   0.29387   0.00000  Uiso   1.00
C223   C     0.95509   0.36008   0.27391   0.00000  Uiso   1.00
H224   H     0.96039   0.38582   0.30018   0.00000  Uiso   1.00
H225   H     0.98436   0.35779   0.25310   0.00000  Uiso   1.00
H226   H     0.92728   0.37276   0.25362   0.00000  Uiso   1.00
H227   H     0.92358   0.29245   0.27183   0.00000  Uiso   1.00
H228   H     0.92143   0.31995   0.32164   0.00000  Uiso   1.00
C229   C     0.73500   0.08465   0.04715   0.00000  Uiso   1.00
C230   C     0.68641   0.09552   0.04489   0.00000  Uiso   1.00
H231   H     0.66737   0.06558   0.05549   0.00000  Uiso   1.00
H232   H     0.67889   0.12491   0.06682   0.00000  Uiso   1.00
H233   H     0.67607   0.10466   0.01067   0.00000  Uiso   1.00
H234   H     0.74654   0.08377   0.08135   0.00000  Uiso   1.00
H235   H     0.75274   0.11415   0.03396   0.00000  Uiso   1.00
C236   C     0.77974   0.41853   0.28868   0.00000  Uiso   1.00
C237   C     0.74877   0.38772   0.26249   0.00000  Uiso   1.00
H238   H     0.75151   0.39260   0.22660   0.00000  Uiso   1.00
H239   H     0.75725   0.35114   0.26847   0.00000  Uiso   1.00
H240   H     0.71464   0.39353   0.27218   0.00000  Uiso   1.00
H241   H     0.80906   0.42846   0.27127   0.00000  Uiso   1.00
H242   H     0.79662   0.39645   0.31317   0.00000  Uiso   1.00
C243   C     0.75897   0.41422   0.04978   0.00000  Uiso   1.00
C244   C     0.73008   0.37526   0.03327   0.00000  Uiso   1.00
H245   H     0.72072   0.35326   0.06153   0.00000  Uiso   1.00
H246   H     0.70032   0.38877   0.01659   0.00000  Uiso   1.00
H247   H     0.74776   0.35181   0.01110   0.00000  Uiso   1.00
H248   H     0.79335   0.40271   0.05165   0.00000  Uiso   1.00
H249   H     0.74939   0.41867   0.08361   0.00000  Uiso   1.00
C250   C     0.75548   0.08552   0.28585   0.00000  Uiso   1.00
C251   C     0.80268   0.10026   0.29121   0.00000  Uiso   1.00
H252   H     0.82488   0.07215   0.28118   0.00000  Uiso   1.00
H253   H     0.80855   0.13063   0.27004   0.00000  Uiso   1.00
H254   H     0.81080   0.10922   0.32589   0.00000  Uiso   1.00
H255   H     0.74854   0.08349   0.25070   0.00000  Uiso   1.00
H256   H     0.73326   0.11305   0.29696   0.00000  Uiso   1.00
F257   F     0.86879   0.19876   0.10934   0.00000  Uiso   1.00
F258   F     0.57537   0.36512   0.24268   0.00000  Uiso   1.00
F259   F     0.61120   0.32540   0.09227   0.00000  Uiso   1.00
F260   F     0.94495   0.11334   0.22289   0.00000  Uiso   1.00
F261   F     0.63763   0.20722   0.20959   0.00000  Uiso   1.00
F262   F     0.96001   0.40204   0.15998   0.00000  Uiso   1.00
F263   F     0.85493   0.28318   0.17026   0.00000  Uiso   1.00
F264   F     0.54715   0.10624   0.12526   0.00000  Uiso   1.00
F265   F     0.65982   0.39900   0.08768   0.00000  Uiso   1.00
F266   F     0.88190   0.05034   0.22247   0.00000  Uiso   1.00
F267   F     0.80452   0.13669   0.11045   0.00000  Uiso   1.00
F268   F     0.63644   0.42891   0.24223   0.00000  Uiso   1.00
F269   F     0.78997   0.34746   0.16892   0.00000  Uiso   1.00
F270   F     0.61236   0.04277   0.12391   0.00000  Uiso   1.00
F271   F     0.70282   0.14376   0.20825   0.00000  Uiso   1.00
F272   F     0.89511   0.46664   0.16167   0.00000  Uiso   1.00
C273   C     0.05946   0.68995   0.16687   0.00000  Uiso   1.00
C274   C     0.44044   0.80990   0.16638   0.00000  Uiso   1.00
C275   C     0.44045   0.68988   0.16653   0.00000  Uiso   1.00
C276   C     0.05973   0.80995   0.16689   0.00000  Uiso   1.00
C277   C     0.30958   0.94007   0.16683   0.00000  Uiso   1.00
C278   C     0.19059   0.56011   0.16645   0.00000  Uiso   1.00
C279   C     0.18872   0.94183   0.16650   0.00000  Uiso   1.00
C280   C     0.30947   0.56016   0.16676   0.00000  Uiso   1.00
C281   C     0.49219   0.78920   0.02332   0.00000  Uiso   1.00
C282   C     0.01643   0.71364   0.31088   0.00000  Uiso   1.00
C283   C     0.00731   0.71073   0.02383   0.00000  Uiso   1.00
C284   C     0.48293   0.78607   0.31016   0.00000  Uiso   1.00
C285   C     0.24539   0.54016   0.02356   0.00000  Uiso   1.00
C286   C     0.25824   0.96014   0.31008   0.00000  Uiso   1.00
C287   C     0.25471   0.95958   0.02434   0.00000  Uiso   1.00
C288   C     0.24783   0.54035   0.30931   0.00000  Uiso   1.00
C289   C     0.37209   0.66216   0.13710   0.00000  Uiso   1.00
C290   C     0.09865   0.87084   0.20530   0.00000  Uiso   1.00
C291   C     0.11483   0.85239   0.12857   0.00000  Uiso   1.00
C292   C     0.41028   0.61949   0.19551   0.00000  Uiso   1.00
C293   C     0.13142   0.66648   0.18901   0.00000  Uiso   1.00
C294   C     0.41809   0.88898   0.16280   0.00000  Uiso   1.00
C295   C     0.36455   0.82838   0.16819   0.00000  Uiso   1.00
C296   C     0.08575   0.61560   0.14501   0.00000  Uiso   1.00
C297   C     0.14289   0.88789   0.12722   0.00000  Uiso   1.00
C298   C     0.37798   0.58757   0.19558   0.00000  Uiso   1.00
C299   C     0.33948   0.63051   0.13757   0.00000  Uiso   1.00
C300   C     0.12985   0.90385   0.20499   0.00000  Uiso   1.00
C301   C     0.33188   0.86080   0.16831   0.00000  Uiso   1.00
C302   C     0.11860   0.58355   0.14438   0.00000  Uiso   1.00
C303   C     0.16428   0.63445   0.18837   0.00000  Uiso   1.00
C304   C     0.38547   0.92145   0.16384   0.00000  Uiso   1.00
C305   C     0.09190   0.84430   0.16726   0.00000  Uiso   1.00
C306   C     0.40726   0.65665   0.16627   0.00000  Uiso   1.00
C307   C     0.40720   0.84291   0.16563   0.00000  Uiso   1.00
C308   C     0.09257   0.65674   0.16722   0.00000  Uiso   1.00
C309   C     0.34259   0.59337   0.16684   0.00000  Uiso   1.00
C310   C     0.15305   0.91135   0.16614   0.00000  Uiso   1.00
C311   C     0.15749   0.59334   0.16608   0.00000  Uiso   1.00
C312   C     0.34280   0.90696   0.16698   0.00000  Uiso   1.00
N313   N     0.00000   0.75000   0.28573   0.00000  Uiso   1.00
N314   N     0.00000   0.75000   0.04760   0.00000  Uiso   1.00
N315   N     0.25000   0.50000   0.28573   0.00000  Uiso   1.00
N316   N     0.25000   0.50000   0.04760   0.00000  Uiso   1.00
O317   O     0.04581   0.70419   0.20487   0.00000  Uiso   1.00
O318   O     0.45420   0.79581   0.12846   0.00000  Uiso   1.00
O319   O     0.45420   0.79581   0.20487   0.00000  Uiso   1.00
O320   O     0.04581   0.70419   0.12846   0.00000  Uiso   1.00
O321   O     0.45420   0.70419   0.12846   0.00000  Uiso   1.00
O322   O     0.04581   0.79581   0.20487   0.00000  Uiso   1.00
O323   O     0.04581   0.79581   0.12846   0.00000  Uiso   1.00
O324   O     0.45420   0.70419   0.20487   0.00000  Uiso   1.00
O325   O     0.29581   0.95419   0.20487   0.00000  Uiso   1.00
O326   O     0.20420   0.54581   0.12846   0.00000  Uiso   1.00
O327   O     0.20420   0.54581   0.20487   0.00000  Uiso   1.00
O328   O     0.29581   0.95419   0.12846   0.00000  Uiso   1.00
O329   O     0.20420   0.95419   0.12846   0.00000  Uiso   1.00
O330   O     0.29581   0.54581   0.20487   0.00000  Uiso   1.00
O331   O     0.29581   0.54581   0.12846   0.00000  Uiso   1.00
O332   O     0.20420   0.95419   0.20487   0.00000  Uiso   1.00
Zn333  Zn    0.00000   0.75000   0.21771   0.00000  Uiso   1.00
Zn334  Zn    0.00000   0.75000   0.11563   0.00000  Uiso   1.00
Zn335  Zn    0.25000   0.50000   0.21771   0.00000  Uiso   1.00
Zn336  Zn    0.25000   0.50000   0.11563   0.00000  Uiso   1.00
C337   C     0.49421   0.83601   0.04459   0.00000  Uiso   1.00
C338   C     0.03267   0.86284   0.02727   0.00000  Uiso   1.00
H339   H     0.02879   0.87118   0.32503   0.00000  Uiso   1.00
H340   H     0.03602   0.89528   0.04601   0.00000  Uiso   1.00
H341   H     0.06289   0.84237   0.03117   0.00000  Uiso   1.00
H342   H     0.46373   0.85578   0.03930   0.00000  Uiso   1.00
H343   H     0.49871   0.83362   0.08037   0.00000  Uiso   1.00
C344   C     0.05304   0.68337   0.29479   0.00000  Uiso   1.00
C345   C     0.03774   0.63909   0.27326   0.00000  Uiso   1.00
H346   H     0.01054   0.64606   0.25006   0.00000  Uiso   1.00
H347   H     0.06484   0.62304   0.25493   0.00000  Uiso   1.00
H348   H     0.02718   0.61420   0.29850   0.00000  Uiso   1.00
H349   H     0.07477   0.70340   0.27373   0.00000  Uiso   1.00
H350   H     0.07509   0.67387   0.32279   0.00000  Uiso   1.00
C351   C     0.00259   0.66408   0.04499   0.00000  Uiso   1.00
C352   C     0.46062   0.64174   0.02945   0.00000  Uiso   1.00
H353   H     0.45835   0.60701   0.04421   0.00000  Uiso   1.00
H354   H     0.43232   0.66251   0.04025   0.00000  Uiso   1.00
H355   H     0.45927   0.63863   0.32622   0.00000  Uiso   1.00
H356   H     0.03067   0.64134   0.03824   0.00000  Uiso   1.00
H357   H     0.00085   0.66625   0.08090   0.00000  Uiso   1.00
C358   C     0.44392   0.81357   0.29387   0.00000  Uiso   1.00
C359   C     0.45509   0.86008   0.27391   0.00000  Uiso   1.00
H360   H     0.46039   0.88582   0.30018   0.00000  Uiso   1.00
H361   H     0.48436   0.85779   0.25310   0.00000  Uiso   1.00
H362   H     0.42728   0.87276   0.25362   0.00000  Uiso   1.00
H363   H     0.42358   0.79245   0.27183   0.00000  Uiso   1.00
H364   H     0.42143   0.81995   0.32164   0.00000  Uiso   1.00
C365   C     0.23500   0.58465   0.04715   0.00000  Uiso   1.00
C366   C     0.18641   0.59552   0.04489   0.00000  Uiso   1.00
H367   H     0.16737   0.56558   0.05549   0.00000  Uiso   1.00
H368   H     0.17889   0.62491   0.06682   0.00000  Uiso   1.00
H369   H     0.17607   0.60466   0.01067   0.00000  Uiso   1.00
H370   H     0.24654   0.58377   0.08135   0.00000  Uiso   1.00
H371   H     0.25274   0.61415   0.03396   0.00000  Uiso   1.00
C372   C     0.27974   0.91853   0.28868   0.00000  Uiso   1.00
C373   C     0.24877   0.88772   0.26249   0.00000  Uiso   1.00
H374   H     0.25151   0.89260   0.22660   0.00000  Uiso   1.00
H375   H     0.25725   0.85114   0.26847   0.00000  Uiso   1.00
H376   H     0.21464   0.89353   0.27218   0.00000  Uiso   1.00
H377   H     0.30906   0.92846   0.27127   0.00000  Uiso   1.00
H378   H     0.29662   0.89645   0.31317   0.00000  Uiso   1.00
C379   C     0.25897   0.91422   0.04978   0.00000  Uiso   1.00
C380   C     0.23008   0.87526   0.03327   0.00000  Uiso   1.00
H381   H     0.22072   0.85326   0.06153   0.00000  Uiso   1.00
H382   H     0.20032   0.88877   0.01659   0.00000  Uiso   1.00
H383   H     0.24776   0.85181   0.01110   0.00000  Uiso   1.00
H384   H     0.29335   0.90271   0.05165   0.00000  Uiso   1.00
H385   H     0.24939   0.91867   0.08361   0.00000  Uiso   1.00
C386   C     0.25548   0.58552   0.28585   0.00000  Uiso   1.00
C387   C     0.30268   0.60026   0.29121   0.00000  Uiso   1.00
H388   H     0.32488   0.57215   0.28118   0.00000  Uiso   1.00
H389   H     0.30855   0.63063   0.27004   0.00000  Uiso   1.00
H390   H     0.31080   0.60922   0.32589   0.00000  Uiso   1.00
H391   H     0.24854   0.58349   0.25070   0.00000  Uiso   1.00
H392   H     0.23326   0.61305   0.29696   0.00000  Uiso   1.00
F393   F     0.36879   0.69876   0.10934   0.00000  Uiso   1.00
F394   F     0.07537   0.86512   0.24268   0.00000  Uiso   1.00
F395   F     0.11120   0.82540   0.09227   0.00000  Uiso   1.00
F396   F     0.44495   0.61334   0.22289   0.00000  Uiso   1.00
F397   F     0.13763   0.70722   0.20959   0.00000  Uiso   1.00
F398   F     0.46001   0.90204   0.15998   0.00000  Uiso   1.00
F399   F     0.35493   0.78318   0.17026   0.00000  Uiso   1.00
F400   F     0.04715   0.60624   0.12526   0.00000  Uiso   1.00
F401   F     0.15982   0.89900   0.08768   0.00000  Uiso   1.00
F402   F     0.38190   0.55034   0.22247   0.00000  Uiso   1.00
F403   F     0.30452   0.63669   0.11045   0.00000  Uiso   1.00
F404   F     0.13644   0.92891   0.24223   0.00000  Uiso   1.00
F405   F     0.28997   0.84746   0.16892   0.00000  Uiso   1.00
F406   F     0.11236   0.54277   0.12391   0.00000  Uiso   1.00
F407   F     0.20282   0.64376   0.20825   0.00000  Uiso   1.00
F408   F     0.39511   0.96664   0.16167   0.00000  Uiso   1.00
C409   C     0.55946   0.68995   0.16687   0.00000  Uiso   1.00
C410   C     0.94044   0.80990   0.16638   0.00000  Uiso   1.00
C411   C     0.94045   0.68988   0.16653   0.00000  Uiso   1.00
C412   C     0.55973   0.80995   0.16689   0.00000  Uiso   1.00
C413   C     0.80958   0.94007   0.16683   0.00000  Uiso   1.00
C414   C     0.69059   0.56011   0.16645   0.00000  Uiso   1.00
C415   C     0.68872   0.94183   0.16650   0.00000  Uiso   1.00
C416   C     0.80947   0.56016   0.16676   0.00000  Uiso   1.00
C417   C     0.99219   0.78920   0.02332   0.00000  Uiso   1.00
C418   C     0.51643   0.71364   0.31088   0.00000  Uiso   1.00
C419   C     0.50731   0.71073   0.02383   0.00000  Uiso   1.00
C420   C     0.98293   0.78607   0.31016   0.00000  Uiso   1.00
C421   C     0.74539   0.54016   0.02356   0.00000  Uiso   1.00
C422   C     0.75824   0.96014   0.31008   0.00000  Uiso   1.00
C423   C     0.75471   0.95958   0.02434   0.00000  Uiso   1.00
C424   C     0.74783   0.54035   0.30931   0.00000  Uiso   1.00
C425   C     0.87209   0.66216   0.13710   0.00000  Uiso   1.00
C426   C     0.59865   0.87084   0.20530   0.00000  Uiso   1.00
C427   C     0.61483   0.85239   0.12857   0.00000  Uiso   1.00
C428   C     0.91028   0.61949   0.19551   0.00000  Uiso   1.00
C429   C     0.63142   0.66648   0.18901   0.00000  Uiso   1.00
C430   C     0.91809   0.88898   0.16280   0.00000  Uiso   1.00
C431   C     0.86455   0.82838   0.16819   0.00000  Uiso   1.00
C432   C     0.58575   0.61560   0.14501   0.00000  Uiso   1.00
C433   C     0.64289   0.88789   0.12722   0.00000  Uiso   1.00
C434   C     0.87798   0.58757   0.19558   0.00000  Uiso   1.00
C435   C     0.83948   0.63051   0.13757   0.00000  Uiso   1.00
C436   C     0.62985   0.90385   0.20499   0.00000  Uiso   1.00
C437   C     0.83188   0.86080   0.16831   0.00000  Uiso   1.00
C438   C     0.61860   0.58355   0.14438   0.00000  Uiso   1.00
C439   C     0.66428   0.63445   0.18837   0.00000  Uiso   1.00
C440   C     0.88547   0.92145   0.16384   0.00000  Uiso   1.00
C441   C     0.59190   0.84430   0.16726   0.00000  Uiso   1.00
C442   C     0.90726   0.65665   0.16627   0.00000  Uiso   1.00
C443   C     0.90720   0.84291   0.16563   0.00000  Uiso   1.00
C444   C     0.59257   0.65674   0.16722   0.00000  Uiso   1.00
C445   C     0.84259   0.59337   0.16684   0.00000  Uiso   1.00
C446   C     0.65305   0.91135   0.16614   0.00000  Uiso   1.00
C447   C     0.65749   0.59334   0.16608   0.00000  Uiso   1.00
C448   C     0.84280   0.90696   0.16698   0.00000  Uiso   1.00
N449   N     0.50000   0.75000   0.28573   0.00000  Uiso   1.00
N450   N     0.50000   0.75000   0.04760   0.00000  Uiso   1.00
N451   N     0.75000   0.50000   0.28573   0.00000  Uiso   1.00
N452   N     0.75000   0.50000   0.04760   0.00000  Uiso   1.00
O453   O     0.54581   0.70419   0.20487   0.00000  Uiso   1.00
O454   O     0.95420   0.79581   0.12846   0.00000  Uiso   1.00
O455   O     0.95420   0.79581   0.20487   0.00000  Uiso   1.00
O456   O     0.54581   0.70419   0.12846   0.00000  Uiso   1.00
O457   O     0.95420   0.70419   0.12846   0.00000  Uiso   1.00
O458   O     0.54581   0.79581   0.20487   0.00000  Uiso   1.00
O459   O     0.54581   0.79581   0.12846   0.00000  Uiso   1.00
O460   O     0.95420   0.70419   0.20487   0.00000  Uiso   1.00
O461   O     0.79581   0.95419   0.20487   0.00000  Uiso   1.00
O462   O     0.70420   0.54581   0.12846   0.00000  Uiso   1.00
O463   O     0.70420   0.54581   0.20487   0.00000  Uiso   1.00
O464   O     0.79581   0.95419   0.12846   0.00000  Uiso   1.00
O465   O     0.70420   0.95419   0.12846   0.00000  Uiso   1.00
O466   O     0.79581   0.54581   0.20487   0.00000  Uiso   1.00
O467   O     0.79581   0.54581   0.12846   0.00000  Uiso   1.00
O468   O     0.70420   0.95419   0.20487   0.00000  Uiso   1.00
Zn469  Zn    0.50000   0.75000   0.21771   0.00000  Uiso   1.00
Zn470  Zn    0.50000   0.75000   0.11563   0.00000  Uiso   1.00
Zn471  Zn    0.75000   0.50000   0.21771   0.00000  Uiso   1.00
Zn472  Zn    0.75000   0.50000   0.11563   0.00000  Uiso   1.00
C473   C     0.99421   0.83601   0.04459   0.00000  Uiso   1.00
C474   C     0.53267   0.86284   0.02727   0.00000  Uiso   1.00
H475   H     0.52879   0.87118   0.32503   0.00000  Uiso   1.00
H476   H     0.53602   0.89528   0.04601   0.00000  Uiso   1.00
H477   H     0.56289   0.84237   0.03117   0.00000  Uiso   1.00
H478   H     0.96373   0.85578   0.03930   0.00000  Uiso   1.00
H479   H     0.99871   0.83362   0.08037   0.00000  Uiso   1.00
C480   C     0.55304   0.68337   0.29479   0.00000  Uiso   1.00
C481   C     0.53774   0.63909   0.27326   0.00000  Uiso   1.00
H482   H     0.51054   0.64606   0.25006   0.00000  Uiso   1.00
H483   H     0.56484   0.62304   0.25493   0.00000  Uiso   1.00
H484   H     0.52718   0.61420   0.29850   0.00000  Uiso   1.00
H485   H     0.57477   0.70340   0.27373   0.00000  Uiso   1.00
H486   H     0.57509   0.67387   0.32279   0.00000  Uiso   1.00
C487   C     0.50259   0.66408   0.04499   0.00000  Uiso   1.00
C488   C     0.96062   0.64174   0.02945   0.00000  Uiso   1.00
H489   H     0.95835   0.60701   0.04421   0.00000  Uiso   1.00
H490   H     0.93232   0.66251   0.04025   0.00000  Uiso   1.00
H491   H     0.95927   0.63863   0.32622   0.00000  Uiso   1.00
H492   H     0.53067   0.64134   0.03824   0.00000  Uiso   1.00
H493   H     0.50085   0.66625   0.08090   0.00000  Uiso   1.00
C494   C     0.94392   0.81357   0.29387   0.00000  Uiso   1.00
C495   C     0.95509   0.86008   0.27391   0.00000  Uiso   1.00
H496   H     0.96039   0.88582   0.30018   0.00000  Uiso   1.00
H497   H     0.98436   0.85779   0.25310   0.00000  Uiso   1.00
H498   H     0.92728   0.87276   0.25362   0.00000  Uiso   1.00
H499   H     0.92358   0.79245   0.27183   0.00000  Uiso   1.00
H500   H     0.92143   0.81995   0.32164   0.00000  Uiso   1.00
C501   C     0.73500   0.58465   0.04715   0.00000  Uiso   1.00
C502   C     0.68641   0.59552   0.04489   0.00000  Uiso   1.00
H503   H     0.66737   0.56558   0.05549   0.00000  Uiso   1.00
H504   H     0.67889   0.62491   0.06682   0.00000  Uiso   1.00
H505   H     0.67607   0.60466   0.01067   0.00000  Uiso   1.00
H506   H     0.74654   0.58377   0.08135   0.00000  Uiso   1.00
H507   H     0.75274   0.61415   0.03396   0.00000  Uiso   1.00
C508   C     0.77974   0.91853   0.28868   0.00000  Uiso   1.00
C509   C     0.74877   0.88772   0.26249   0.00000  Uiso   1.00
H510   H     0.75151   0.89260   0.22660   0.00000  Uiso   1.00
H511   H     0.75725   0.85114   0.26847   0.00000  Uiso   1.00
H512   H     0.71464   0.89353   0.27218   0.00000  Uiso   1.00
H513   H     0.80906   0.92846   0.27127   0.00000  Uiso   1.00
H514   H     0.79662   0.89645   0.31317   0.00000  Uiso   1.00
C515   C     0.75897   0.91422   0.04978   0.00000  Uiso   1.00
C516   C     0.73008   0.87526   0.03327   0.00000  Uiso   1.00
H517   H     0.72072   0.85326   0.06153   0.00000  Uiso   1.00
H518   H     0.70032   0.88877   0.01659   0.00000  Uiso   1.00
H519   H     0.74776   0.85181   0.01110   0.00000  Uiso   1.00
H520   H     0.79335   0.90271   0.05165   0.00000  Uiso   1.00
H521   H     0.74939   0.91867   0.08361   0.00000  Uiso   1.00
C522   C     0.75548   0.58552   0.28585   0.00000  Uiso   1.00
C523   C     0.80268   0.60026   0.29121   0.00000  Uiso   1.00
H524   H     0.82488   0.57215   0.28118   0.00000  Uiso   1.00
H525   H     0.80855   0.63063   0.27004   0.00000  Uiso   1.00
H526   H     0.81080   0.60922   0.32589   0.00000  Uiso   1.00
H527   H     0.74854   0.58349   0.25070   0.00000  Uiso   1.00
H528   H     0.73326   0.61305   0.29696   0.00000  Uiso   1.00
F529   F     0.86879   0.69876   0.10934   0.00000  Uiso   1.00
F530   F     0.57537   0.86512   0.24268   0.00000  Uiso   1.00
F531   F     0.61120   0.82540   0.09227   0.00000  Uiso   1.00
F532   F     0.94495   0.61334   0.22289   0.00000  Uiso   1.00
F533   F     0.63763   0.70722   0.20959   0.00000  Uiso   1.00
F534   F     0.96001   0.90204   0.15998   0.00000  Uiso   1.00
F535   F     0.85493   0.78318   0.17026   0.00000  Uiso   1.00
F536   F     0.54715   0.60624   0.12526   0.00000  Uiso   1.00
F537   F     0.65982   0.89900   0.08768   0.00000  Uiso   1.00
F538   F     0.88190   0.55034   0.22247   0.00000  Uiso   1.00
F539   F     0.80452   0.63669   0.11045   0.00000  Uiso   1.00
F540   F     0.63644   0.92891   0.24223   0.00000  Uiso   1.00
F541   F     0.78997   0.84746   0.16892   0.00000  Uiso   1.00
F542   F     0.61236   0.54277   0.12391   0.00000  Uiso   1.00
F543   F     0.70282   0.64376   0.20825   0.00000  Uiso   1.00
F544   F     0.89511   0.96664   0.16167   0.00000  Uiso   1.00
C545   C     0.05946   0.18995   0.50020   0.00000  Uiso   1.00
C546   C     0.44044   0.30990   0.49972   0.00000  Uiso   1.00
C547   C     0.44045   0.18988   0.49987   0.00000  Uiso   1.00
C548   C     0.05973   0.30995   0.50022   0.00000  Uiso   1.00
C549   C     0.30958   0.44007   0.50017   0.00000  Uiso   1.00
C550   C     0.19059   0.06011   0.49979   0.00000  Uiso   1.00
C551   C     0.18872   0.44183   0.49983   0.00000  Uiso   1.00
C552   C     0.30947   0.06016   0.50009   0.00000  Uiso   1.00
C553   C     0.49219   0.28920   0.35665   0.00000  Uiso   1.00
C554   C     0.01643   0.21364   0.64421   0.00000  Uiso   1.00
C555   C     0.00731   0.21073   0.35717   0.00000  Uiso   1.00
C556   C     0.48293   0.28607   0.64349   0.00000  Uiso   1.00
C557   C     0.24539   0.04016   0.35689   0.00000  Uiso   1.00
C558   C     0.25824   0.46014   0.64341   0.00000  Uiso   1.00
C559   C     0.25471   0.45958   0.35768   0.00000  Uiso   1.00
C560   C     0.24783   0.04035   0.64264   0.00000  Uiso   1.00
C561   C     0.37209   0.16216   0.47043   0.00000  Uiso   1.00
C562   C     0.09865   0.37084   0.53863   0.00000  Uiso   1.00
C563   C     0.11483   0.35239   0.46190   0.00000  Uiso   1.00
C564   C     0.41028   0.11949   0.52884   0.00000  Uiso   1.00
C565   C     0.13142   0.16648   0.52234   0.00000  Uiso   1.00
C566   C     0.41809   0.38898   0.49613   0.00000  Uiso   1.00
C567   C     0.36455   0.32838   0.50153   0.00000  Uiso   1.00
C568   C     0.08575   0.11560   0.47834   0.00000  Uiso   1.00
C569   C     0.14289   0.38789   0.46055   0.00000  Uiso   1.00
C570   C     0.37798   0.08757   0.52891   0.00000  Uiso   1.00
C571   C     0.33948   0.13051   0.47090   0.00000  Uiso   1.00
C572   C     0.12985   0.40385   0.53832   0.00000  Uiso   1.00
C573   C     0.33188   0.36080   0.50165   0.00000  Uiso   1.00
C574   C     0.11860   0.08355   0.47772   0.00000  Uiso   1.00
C575   C     0.16428   0.13445   0.52170   0.00000  Uiso   1.00
C576   C     0.38547   0.42145   0.49718   0.00000  Uiso   1.00
C577   C     0.09190   0.34430   0.50059   0.00000  Uiso   1.00
C578   C     0.40726   0.15665   0.49960   0.00000  Uiso   1.00
C579   C     0.40720   0.34291   0.49896   0.00000  Uiso   1.00
C580   C     0.09257   0.15674   0.50055   0.00000  Uiso   1.00
C581   C     0.34259   0.09337   0.50017   0.00000  Uiso   1.00
C582   C     0.15305   0.41135   0.49948   0.00000  Uiso   1.00
C583   C     0.15749   0.09334   0.49941   0.00000  Uiso   1.00
C584   C     0.34280   0.40696   0.50031   0.00000  Uiso   1.00
N585   N     0.00000   0.25000   0.61907   0.00000  Uiso   1.00
N586   N     0.00000   0.25000   0.38093   0.00000  Uiso   1.00
N587   N     0.25000   0.00000   0.61907   0.00000  Uiso   1.00
N588   N     0.25000   0.00000   0.38093   0.00000  Uiso   1.00
O589   O     0.04581   0.20419   0.53821   0.00000  Uiso   1.00
O590   O     0.45420   0.29581   0.46179   0.00000  Uiso   1.00
O591   O     0.45420   0.29581   0.53821   0.00000  Uiso   1.00
O592   O     0.04581   0.20419   0.46179   0.00000  Uiso   1.00
O593   O     0.45420   0.20419   0.46179   0.00000  Uiso   1.00
O594   O     0.04581   0.29581   0.53821   0.00000  Uiso   1.00
O595   O     0.04581   0.29581   0.46179   0.00000  Uiso   1.00
O596   O     0.45420   0.20419   0.53821   0.00000  Uiso   1.00
O597   O     0.29581   0.45419   0.53821   0.00000  Uiso   1.00
O598   O     0.20420   0.04581   0.46179   0.00000  Uiso   1.00
O599   O     0.20420   0.04581   0.53821   0.00000  Uiso   1.00
O600   O     0.29581   0.45419   0.46179   0.00000  Uiso   1.00
O601   O     0.20420   0.45419   0.46179   0.00000  Uiso   1.00
O602   O     0.29581   0.04581   0.53821   0.00000  Uiso   1.00
O603   O     0.29581   0.04581   0.46179   0.00000  Uiso   1.00
O604   O     0.20420   0.45419   0.53821   0.00000  Uiso   1.00
Zn605  Zn    0.00000   0.25000   0.55104   0.00000  Uiso   1.00
Zn606  Zn    0.00000   0.25000   0.44896   0.00000  Uiso   1.00
Zn607  Zn    0.25000   0.00000   0.55104   0.00000  Uiso   1.00
Zn608  Zn    0.25000   0.00000   0.44896   0.00000  Uiso   1.00
C609   C     0.49421   0.33601   0.37792   0.00000  Uiso   1.00
C610   C     0.03267   0.36284   0.36060   0.00000  Uiso   1.00
H611   H     0.02879   0.37118   0.65837   0.00000  Uiso   1.00
H612   H     0.03602   0.39528   0.37934   0.00000  Uiso   1.00
H613   H     0.06289   0.34237   0.36450   0.00000  Uiso   1.00
H614   H     0.46373   0.35578   0.37263   0.00000  Uiso   1.00
H615   H     0.49871   0.33362   0.41371   0.00000  Uiso   1.00
C616   C     0.05304   0.18337   0.62812   0.00000  Uiso   1.00
C617   C     0.03774   0.13909   0.60659   0.00000  Uiso   1.00
H618   H     0.01054   0.14606   0.58339   0.00000  Uiso   1.00
H619   H     0.06484   0.12304   0.58826   0.00000  Uiso   1.00
H620   H     0.02718   0.11420   0.63183   0.00000  Uiso   1.00
H621   H     0.07477   0.20340   0.60706   0.00000  Uiso   1.00
H622   H     0.07509   0.17387   0.65612   0.00000  Uiso   1.00
C623   C     0.00259   0.16408   0.37832   0.00000  Uiso   1.00
C624   C     0.46062   0.14174   0.36278   0.00000  Uiso   1.00
H625   H     0.45835   0.10701   0.37754   0.00000  Uiso   1.00
H626   H     0.43232   0.16251   0.37358   0.00000  Uiso   1.00
H627   H     0.45927   0.13863   0.65956   0.00000  Uiso   1.00
H628   H     0.03067   0.14134   0.37157   0.00000  Uiso   1.00
H629   H     0.00085   0.16625   0.41423   0.00000  Uiso   1.00
C630   C     0.44392   0.31357   0.62720   0.00000  Uiso   1.00
C631   C     0.45509   0.36008   0.60724   0.00000  Uiso   1.00
H632   H     0.46039   0.38582   0.63351   0.00000  Uiso   1.00
H633   H     0.48436   0.35779   0.58643   0.00000  Uiso   1.00
H634   H     0.42728   0.37276   0.58695   0.00000  Uiso   1.00
H635   H     0.42358   0.29245   0.60517   0.00000  Uiso   1.00
H636   H     0.42143   0.31995   0.65497   0.00000  Uiso   1.00
C637   C     0.23500   0.08465   0.38048   0.00000  Uiso   1.00
C638   C     0.18641   0.09552   0.37822   0.00000  Uiso   1.00
H639   H     0.16737   0.06558   0.38882   0.00000  Uiso   1.00
H640   H     0.17889   0.12491   0.40016   0.00000  Uiso   1.00
H641   H     0.17607   0.10466   0.34401   0.00000  Uiso   1.00
H642   H     0.24654   0.08377   0.41469   0.00000  Uiso   1.00
H643   H     0.25274   0.11415   0.36729   0.00000  Uiso   1.00
C644   C     0.27974   0.41853   0.62202   0.00000  Uiso   1.00
C645   C     0.24877   0.38772   0.59583   0.00000  Uiso   1.00
H646   H     0.25151   0.39260   0.55993   0.00000  Uiso   1.00
H647   H     0.25725   0.35114   0.60180   0.00000  Uiso   1.00
H648   H     0.21464   0.39353   0.60551   0.00000  Uiso   1.00
H649   H     0.30906   0.42846   0.60461   0.00000  Uiso   1.00
H650   H     0.29662   0.39645   0.64651   0.00000  Uiso   1.00
C651   C     0.25897   0.41422   0.38311   0.00000  Uiso   1.00
C652   C     0.23008   0.37526   0.36661   0.00000  Uiso   1.00
H653   H     0.22072   0.35326   0.39487   0.00000  Uiso   1.00
H654   H     0.20032   0.38877   0.34992   0.00000  Uiso   1.00
H655   H     0.24776   0.35181   0.34443   0.00000  Uiso   1.00
H656   H     0.29335   0.40271   0.38498   0.00000  Uiso   1.00
H657   H     0.24939   0.41867   0.41694   0.00000  Uiso   1.00
C658   C     0.25548   0.08552   0.61919   0.00000  Uiso   1.00
C659   C     0.30268   0.10026   0.62454   0.00000  Uiso   1.00
H660   H     0.32488   0.07215   0.61451   0.00000  Uiso   1.00
H661   H     0.30855   0.13063   0.60337   0.00000  Uiso   1.00
H662   H     0.31080   0.10922   0.65922   0.00000  Uiso   1.00
H663   H     0.24854   0.08349   0.58403   0.00000  Uiso   1.00
H664   H     0.23326   0.11305   0.63029   0.00000  Uiso   1.00
F665   F     0.36879   0.19876   0.44267   0.00000  Uiso   1.00
F666   F     0.07537   0.36512   0.57601   0.00000  Uiso   1.00
F667   F     0.11120   0.32540   0.42561   0.00000  Uiso   1.00
F668   F     0.44495   0.11334   0.55623   0.00000  Uiso   1.00
F669   F     0.13763   0.20722   0.54292   0.00000  Uiso   1.00
F670   F     0.46001   0.40204   0.49332   0.00000  Uiso   1.00
F671   F     0.35493   0.28318   0.50359   0.00000  Uiso   1.00
F672   F     0.04715   0.10624   0.45860   0.00000  Uiso   1.00
F673   F     0.15982   0.39900   0.42101   0.00000  Uiso   1.00
F674   F     0.38190   0.05034   0.55580   0.00000  Uiso   1.00
F675   F     0.30452   0.13669   0.44378   0.00000  Uiso   1.00
F676   F     0.13644   0.42891   0.57556   0.00000  Uiso   1.00
F677   F     0.28997   0.34746   0.50225   0.00000  Uiso   1.00
F678   F     0.11236   0.04277   0.45724   0.00000  Uiso   1.00
F679   F     0.20282   0.14376   0.54158   0.00000  Uiso   1.00
F680   F     0.39511   0.46664   0.49500   0.00000  Uiso   1.00
C681   C     0.55946   0.18995   0.50020   0.00000  Uiso   1.00
C682   C     0.94044   0.30990   0.49972   0.00000  Uiso   1.00
C683   C     0.94045   0.18988   0.49987   0.00000  Uiso   1.00
C684   C     0.55973   0.30995   0.50022   0.00000  Uiso   1.00
C685   C     0.80958   0.44007   0.50017   0.00000  Uiso   1.00
C686   C     0.69059   0.06011   0.49979   0.00000  Uiso   1.00
C687   C     0.68872   0.44183   0.49983   0.00000  Uiso   1.00
C688   C     0.80947   0.06016   0.50009   0.00000  Uiso   1.00
C689   C     0.99219   0.28920   0.35665   0.00000  Uiso   1.00
C690   C     0.51643   0.21364   0.64421   0.00000  Uiso   1.00
C691   C     0.50731   0.21073   0.35717   0.00000  Uiso   1.00
C692   C     0.98293   0.28607   0.64349   0.00000  Uiso   1.00
C693   C     0.74539   0.04016   0.35689   0.00000  Uiso   1.00
C694   C     0.75824   0.46014   0.64341   0.00000  Uiso   1.00
C695   C     0.75471   0.45958   0.35768   0.00000  Uiso   1.00
C696   C     0.74783   0.04035   0.64264   0.00000  Uiso   1.00
C697   C     0.87209   0.16216   0.47043   0.00000  Uiso   1.00
C698   C     0.59865   0.37084   0.53863   0.00000  Uiso   1.00
C699   C     0.61483   0.35239   0.46190   0.00000  Uiso   1.00
C700   C     0.91028   0.11949   0.52884   0.00000  Uiso   1.00
C701   C     0.63142   0.16648   0.52234   0.00000  Uiso   1.00
C702   C     0.91809   0.38898   0.49613   0.00000  Uiso   1.00
C703   C     0.86455   0.32838   0.50153   0.00000  Uiso   1.00
C704   C     0.58575   0.11560   0.47834   0.00000  Uiso   1.00
C705   C     0.64289   0.38789   0.46055   0.00000  Uiso   1.00
C706   C     0.87798   0.08757   0.52891   0.00000  Uiso   1.00
C707   C     0.83948   0.13051   0.47090   0.00000  Uiso   1.00
C708   C     0.62985   0.40385   0.53832   0.00000  Uiso   1.00
C709   C     0.83188   0.36080   0.50165   0.00000  Uiso   1.00
C710   C     0.61860   0.08355   0.47772   0.00000  Uiso   1.00
C711   C     0.66428   0.13445   0.52170   0.00000  Uiso   1.00
C712   C     0.88547   0.42145   0.49718   0.00000  Uiso   1.00
C713   C     0.59190   0.34430   0.50059   0.00000  Uiso   1.00
C714   C     0.90726   0.15665   0.49960   0.00000  Uiso   1.00
C715   C     0.90720   0.34291   0.49896   0.00000  Uiso   1.00
C716   C     0.59257   0.15674   0.50055   0.00000  Uiso   1.00
C717   C     0.84259   0.09337   0.50017   0.00000  Uiso   1.00
C718   C     0.65305   0.41135   0.49948   0.00000  Uiso   1.00
C719   C     0.65749   0.09334   0.49941   0.00000  Uiso   1.00
C720   C     0.84280   0.40696   0.50031   0.00000  Uiso   1.00
N721   N     0.50000   0.25000   0.61907   0.00000  Uiso   1.00
N722   N     0.50000   0.25000   0.38093   0.00000  Uiso   1.00
N723   N     0.75000   0.00000   0.61907   0.00000  Uiso   1.00
N724   N     0.75000   0.00000   0.38093   0.00000  Uiso   1.00
O725   O     0.54581   0.20419   0.53821   0.00000  Uiso   1.00
O726   O     0.95420   0.29581   0.46179   0.00000  Uiso   1.00
O727   O     0.95420   0.29581   0.53821   0.00000  Uiso   1.00
O728   O     0.54581   0.20419   0.46179   0.00000  Uiso   1.00
O729   O     0.95420   0.20419   0.46179   0.00000  Uiso   1.00
O730   O     0.54581   0.29581   0.53821   0.00000  Uiso   1.00
O731   O     0.54581   0.29581   0.46179   0.00000  Uiso   1.00
O732   O     0.95420   0.20419   0.53821   0.00000  Uiso   1.00
O733   O     0.79581   0.45419   0.53821   0.00000  Uiso   1.00
O734   O     0.70420   0.04581   0.46179   0.00000  Uiso   1.00
O735   O     0.70420   0.04581   0.53821   0.00000  Uiso   1.00
O736   O     0.79581   0.45419   0.46179   0.00000  Uiso   1.00
O737   O     0.70420   0.45419   0.46179   0.00000  Uiso   1.00
O738   O     0.79581   0.04581   0.53821   0.00000  Uiso   1.00
O739   O     0.79581   0.04581   0.46179   0.00000  Uiso   1.00
O740   O     0.70420   0.45419   0.53821   0.00000  Uiso   1.00
Zn741  Zn    0.50000   0.25000   0.55104   0.00000  Uiso   1.00
Zn742  Zn    0.50000   0.25000   0.44896   0.00000  Uiso   1.00
Zn743  Zn    0.75000   0.00000   0.55104   0.00000  Uiso   1.00
Zn744  Zn    0.75000   0.00000   0.44896   0.00000  Uiso   1.00
C745   C     0.99421   0.33601   0.37792   0.00000  Uiso   1.00
C746   C     0.53267   0.36284   0.36060   0.00000  Uiso   1.00
H747   H     0.52879   0.37118   0.65837   0.00000  Uiso   1.00
H748   H     0.53602   0.39528   0.37934   0.00000  Uiso   1.00
H749   H     0.56289   0.34237   0.36450   0.00000  Uiso   1.00
H750   H     0.96373   0.35578   0.37263   0.00000  Uiso   1.00
H751   H     0.99871   0.33362   0.41371   0.00000  Uiso   1.00
C752   C     0.55304   0.18337   0.62812   0.00000  Uiso   1.00
C753   C     0.53774   0.13909   0.60659   0.00000  Uiso   1.00
H754   H     0.51054   0.14606   0.58339   0.00000  Uiso   1.00
H755   H     0.56484   0.12304   0.58826   0.00000  Uiso   1.00
H756   H     0.52718   0.11420   0.63183   0.00000  Uiso   1.00
H757   H     0.57477   0.20340   0.60706   0.00000  Uiso   1.00
H758   H     0.57509   0.17387   0.65612   0.00000  Uiso   1.00
C759   C     0.50259   0.16408   0.37832   0.00000  Uiso   1.00
C760   C     0.96062   0.14174   0.36278   0.00000  Uiso   1.00
H761   H     0.95835   0.10701   0.37754   0.00000  Uiso   1.00
H762   H     0.93232   0.16251   0.37358   0.00000  Uiso   1.00
H763   H     0.95927   0.13863   0.65956   0.00000  Uiso   1.00
H764   H     0.53067   0.14134   0.37157   0.00000  Uiso   1.00
H765   H     0.50085   0.16625   0.41423   0.00000  Uiso   1.00
C766   C     0.94392   0.31357   0.62720   0.00000  Uiso   1.00
C767   C     0.95509   0.36008   0.60724   0.00000  Uiso   1.00
H768   H     0.96039   0.38582   0.63351   0.00000  Uiso   1.00
H769   H     0.98436   0.35779   0.58643   0.00000  Uiso   1.00
H770   H     0.92728   0.37276   0.58695   0.00000  Uiso   1.00
H771   H     0.92358   0.29245   0.60517   0.00000  Uiso   1.00
H772   H     0.92143   0.31995   0.65497   0.00000  Uiso   1.00
C773   C     0.73500   0.08465   0.38048   0.00000  Uiso   1.00
C774   C     0.68641   0.09552   0.37822   0.00000  Uiso   1.00
H775   H     0.66737   0.06558   0.38882   0.00000  Uiso   1.00
H776   H     0.67889   0.12491   0.40016   0.00000  Uiso   1.00
H777   H     0.67607   0.10466   0.34401   0.00000  Uiso   1.00
H778   H     0.74654   0.08377   0.41469   0.00000  Uiso   1.00
H779   H     0.75274   0.11415   0.36729   0.00000  Uiso   1.00
C780   C     0.77974   0.41853   0.62202   0.00000  Uiso   1.00
C781   C     0.74877   0.38772   0.59583   0.00000  Uiso   1.00
H782   H     0.75151   0.39260   0.55993   0.00000  Uiso   1.00
H783   H     0.75725   0.35114   0.60180   0.00000  Uiso   1.00
H784   H     0.71464   0.39353   0.60551   0.00000  Uiso   1.00
H785   H     0.80906   0.42846   0.60461   0.00000  Uiso   1.00
H786   H     0.79662   0.39645   0.64651   0.00000  Uiso   1.00
C787   C     0.75897   0.41422   0.38311   0.00000  Uiso   1.00
C788   C     0.73008   0.37526   0.36661   0.00000  Uiso   1.00
H789   H     0.72072   0.35326   0.39487   0.00000  Uiso   1.00
H790   H     0.70032   0.38877   0.34992   0.00000  Uiso   1.00
H791   H     0.74776   0.35181   0.34443   0.00000  Uiso   1.00
H792   H     0.79335   0.40271   0.38498   0.00000  Uiso   1.00
H793   H     0.74939   0.41867   0.41694   0.00000  Uiso   1.00
C794   C     0.75548   0.08552   0.61919   0.00000  Uiso   1.00
C795   C     0.80268   0.10026   0.62454   0.00000  Uiso   1.00
H796   H     0.82488   0.07215   0.61451   0.00000  Uiso   1.00
H797   H     0.80855   0.13063   0.60337   0.00000  Uiso   1.00
H798   H     0.81080   0.10922   0.65922   0.00000  Uiso   1.00
H799   H     0.74854   0.08349   0.58403   0.00000  Uiso   1.00
H800   H     0.73326   0.11305   0.63029   0.00000  Uiso   1.00
F801   F     0.86879   0.19876   0.44267   0.00000  Uiso   1.00
F802   F     0.57537   0.36512   0.57601   0.00000  Uiso   1.00
F803   F     0.61120   0.32540   0.42561   0.00000  Uiso   1.00
F804   F     0.94495   0.11334   0.55623   0.00000  Uiso   1.00
F805   F     0.63763   0.20722   0.54292   0.00000  Uiso   1.00
F806   F     0.96001   0.40204   0.49332   0.00000  Uiso   1.00
F807   F     0.85493   0.28318   0.50359   0.00000  Uiso   1.00
F808   F     0.54715   0.10624   0.45860   0.00000  Uiso   1.00
F809   F     0.65982   0.39900   0.42101   0.00000  Uiso   1.00
F810   F     0.88190   0.05034   0.55580   0.00000  Uiso   1.00
F811   F     0.80452   0.13669   0.44378   0.00000  Uiso   1.00
F812   F     0.63644   0.42891   0.57556   0.00000  Uiso   1.00
F813   F     0.78997   0.34746   0.50225   0.00000  Uiso   1.00
F814   F     0.61236   0.04277   0.45724   0.00000  Uiso   1.00
F815   F     0.70282   0.14376   0.54158   0.00000  Uiso   1.00
F816   F     0.89511   0.46664   0.49500   0.00000  Uiso   1.00
C817   C     0.05946   0.68995   0.50020   0.00000  Uiso   1.00
C818   C     0.44044   0.80990   0.49972   0.00000  Uiso   1.00
C819   C     0.44045   0.68988   0.49987   0.00000  Uiso   1.00
C820   C     0.05973   0.80995   0.50022   0.00000  Uiso   1.00
C821   C     0.30958   0.94007   0.50017   0.00000  Uiso   1.00
C822   C     0.19059   0.56011   0.49979   0.00000  Uiso   1.00
C823   C     0.18872   0.94183   0.49983   0.00000  Uiso   1.00
C824   C     0.30947   0.56016   0.50009   0.00000  Uiso   1.00
C825   C     0.49219   0.78920   0.35665   0.00000  Uiso   1.00
C826   C     0.01643   0.71364   0.64421   0.00000  Uiso   1.00
C827   C     0.00731   0.71073   0.35717   0.00000  Uiso   1.00
C828   C     0.48293   0.78607   0.64349   0.00000  Uiso   1.00
C829   C     0.24539   0.54016   0.35689   0.00000  Uiso   1.00
C830   C     0.25824   0.96014   0.64341   0.00000  Uiso   1.00
C831   C     0.25471   0.95958   0.35768   0.00000  Uiso   1.00
C832   C     0.24783   0.54035   0.64264   0.00000  Uiso   1.00
C833   C     0.37209   0.66216   0.47043   0.00000  Uiso   1.00
C834   C     0.09865   0.87084   0.53863   0.00000  Uiso   1.00
C835   C     0.11483   0.85239   0.46190   0.00000  Uiso   1.00
C836   C     0.41028   0.61949   0.52884   0.00000  Uiso   1.00
C837   C     0.13142   0.66648   0.52234   0.00000  Uiso   1.00
C838   C     0.41809   0.88898   0.49613   0.00000  Uiso   1.00
C839   C     0.36455   0.82838   0.50153   0.00000  Uiso   1.00
C840   C     0.08575   0.61560   0.47834   0.00000  Uiso   1.00
C841   C     0.14289   0.88789   0.46055   0.00000  Uiso   1.00
C842   C     0.37798   0.58757   0.52891   0.00000  Uiso   1.00
C843   C     0.33948   0.63051   0.47090   0.00000  Uiso   1.00
C844   C     0.12985   0.90385   0.53832   0.00000  Uiso   1.00
C845   C     0.33188   0.86080   0.50165   0.00000  Uiso   1.00
C846   C     0.11860   0.58355   0.47772   0.00000  Uiso   1.00
C847   C     0.16428   0.63445   0.52170   0.00000  Uiso   1.00
C848   C     0.38547   0.92145   0.49718   0.00000  Uiso   1.00
C849   C     0.09190   0.84430   0.50059   0.00000  Uiso   1.00
C850   C     0.40726   0.65665   0.49960   0.00000  Uiso   1.00
C851   C     0.40720   0.84291   0.49896   0.00000  Uiso   1.00
C852   C     0.09257   0.65674   0.50055   0.00000  Uiso   1.00
C853   C     0.34259   0.59337   0.50017   0.00000  Uiso   1.00
C854   C     0.15305   0.91135   0.49948   0.00000  Uiso   1.00
C855   C     0.15749   0.59334   0.49941   0.00000  Uiso   1.00
C856   C     0.34280   0.90696   0.50031   0.00000  Uiso   1.00
N857   N     0.00000   0.75000   0.61907   0.00000  Uiso   1.00
N858   N     0.00000   0.75000   0.38093   0.00000  Uiso   1.00
N859   N     0.25000   0.50000   0.61907   0.00000  Uiso   1.00
N860   N     0.25000   0.50000   0.38093   0.00000  Uiso   1.00
O861   O     0.04581   0.70419   0.53821   0.00000  Uiso   1.00
O862   O     0.45420   0.79581   0.46179   0.00000  Uiso   1.00
O863   O     0.45420   0.79581   0.53821   0.00000  Uiso   1.00
O864   O     0.04581   0.70419   0.46179   0.00000  Uiso   1.00
O865   O     0.45420   0.70419   0.46179   0.00000  Uiso   1.00
O866   O     0.04581   0.79581   0.53821   0.00000  Uiso   1.00
O867   O     0.04581   0.79581   0.46179   0.00000  Uiso   1.00
O868   O     0.45420   0.70419   0.53821   0.00000  Uiso   1.00
O869   O     0.29581   0.95419   0.53821   0.00000  Uiso   1.00
O870   O     0.20420   0.54581   0.46179   0.00000  Uiso   1.00
O871   O     0.20420   0.54581   0.53821   0.00000  Uiso   1.00
O872   O     0.29581   0.95419   0.46179   0.00000  Uiso   1.00
O873   O     0.20420   0.95419   0.46179   0.00000  Uiso   1.00
O874   O     0.29581   0.54581   0.53821   0.00000  Uiso   1.00
O875   O     0.29581   0.54581   0.46179   0.00000  Uiso   1.00
O876   O     0.20420   0.95419   0.53821   0.00000  Uiso   1.00
Zn877  Zn    0.00000   0.75000   0.55104   0.00000  Uiso   1.00
Zn878  Zn    0.00000   0.75000   0.44896   0.00000  Uiso   1.00
Zn879  Zn    0.25000   0.50000   0.55104   0.00000  Uiso   1.00
Zn880  Zn    0.25000   0.50000   0.44896   0.00000  Uiso   1.00
C881   C     0.49421   0.83601   0.37792   0.00000  Uiso   1.00
C882   C     0.03267   0.86284   0.36060   0.00000  Uiso   1.00
H883   H     0.02879   0.87118   0.65837   0.00000  Uiso   1.00
H884   H     0.03602   0.89528   0.37934   0.00000  Uiso   1.00
H885   H     0.06289   0.84237   0.36450   0.00000  Uiso   1.00
H886   H     0.46373   0.85578   0.37263   0.00000  Uiso   1.00
H887   H     0.49871   0.83362   0.41371   0.00000  Uiso   1.00
C888   C     0.05304   0.68337   0.62812   0.00000  Uiso   1.00
C889   C     0.03774   0.63909   0.60659   0.00000  Uiso   1.00
H890   H     0.01054   0.64606   0.58339   0.00000  Uiso   1.00
H891   H     0.06484   0.62304   0.58826   0.00000  Uiso   1.00
H892   H     0.02718   0.61420   0.63183   0.00000  Uiso   1.00
H893   H     0.07477   0.70340   0.60706   0.00000  Uiso   1.00
H894   H     0.07509   0.67387   0.65612   0.00000  Uiso   1.00
C895   C     0.00259   0.66408   0.37832   0.00000  Uiso   1.00
C896   C     0.46062   0.64174   0.36278   0.00000  Uiso   1.00
H897   H     0.45835   0.60701   0.37754   0.00000  Uiso   1.00
H898   H     0.43232   0.66251   0.37358   0.00000  Uiso   1.00
H899   H     0.45927   0.63863   0.65956   0.00000  Uiso   1.00
H900   H     0.03067   0.64134   0.37157   0.00000  Uiso   1.00
H901   H     0.00085   0.66625   0.41423   0.00000  Uiso   1.00
C902   C     0.44392   0.81357   0.62720   0.00000  Uiso   1.00
C903   C     0.45509   0.86008   0.60724   0.00000  Uiso   1.00
H904   H     0.46039   0.88582   0.63351   0.00000  Uiso   1.00
H905   H     0.48436   0.85779   0.58643   0.00000  Uiso   1.00
H906   H     0.42728   0.87276   0.58695   0.00000  Uiso   1.00
H907   H     0.42358   0.79245   0.60517   0.00000  Uiso   1.00
H908   H     0.42143   0.81995   0.65497   0.00000  Uiso   1.00
C909   C     0.23500   0.58465   0.38048   0.00000  Uiso   1.00
C910   C     0.18641   0.59552   0.37822   0.00000  Uiso   1.00
H911   H     0.16737   0.56558   0.38882   0.00000  Uiso   1.00
H912   H     0.17889   0.62491   0.40016   0.00000  Uiso   1.00
H913   H     0.17607   0.60466   0.34401   0.00000  Uiso   1.00
H914   H     0.24654   0.58377   0.41469   0.00000  Uiso   1.00
H915   H     0.25274   0.61415   0.36729   0.00000  Uiso   1.00
C916   C     0.27974   0.91853   0.62202   0.00000  Uiso   1.00
C917   C     0.24877   0.88772   0.59583   0.00000  Uiso   1.00
H918   H     0.25151   0.89260   0.55993   0.00000  Uiso   1.00
H919   H     0.25725   0.85114   0.60180   0.00000  Uiso   1.00
H920   H     0.21464   0.89353   0.60551   0.00000  Uiso   1.00
H921   H     0.30906   0.92846   0.60461   0.00000  Uiso   1.00
H922   H     0.29662   0.89645   0.64651   0.00000  Uiso   1.00
C923   C     0.25897   0.91422   0.38311   0.00000  Uiso   1.00
C924   C     0.23008   0.87526   0.36661   0.00000  Uiso   1.00
H925   H     0.22072   0.85326   0.39487   0.00000  Uiso   1.00
H926   H     0.20032   0.88877   0.34992   0.00000  Uiso   1.00
H927   H     0.24776   0.85181   0.34443   0.00000  Uiso   1.00
H928   H     0.29335   0.90271   0.38498   0.00000  Uiso   1.00
H929   H     0.24939   0.91867   0.41694   0.00000  Uiso   1.00
C930   C     0.25548   0.58552   0.61919   0.00000  Uiso   1.00
C931   C     0.30268   0.60026   0.62454   0.00000  Uiso   1.00
H932   H     0.32488   0.57215   0.61451   0.00000  Uiso   1.00
H933   H     0.30855   0.63063   0.60337   0.00000  Uiso   1.00
H934   H     0.31080   0.60922   0.65922   0.00000  Uiso   1.00
H935   H     0.24854   0.58349   0.58403   0.00000  Uiso   1.00
H936   H     0.23326   0.61305   0.63029   0.00000  Uiso   1.00
F937   F     0.36879   0.69876   0.44267   0.00000  Uiso   1.00
F938   F     0.07537   0.86512   0.57601   0.00000  Uiso   1.00
F939   F     0.11120   0.82540   0.42561   0.00000  Uiso   1.00
F940   F     0.44495   0.61334   0.55623   0.00000  Uiso   1.00
F941   F     0.13763   0.70722   0.54292   0.00000  Uiso   1.00
F942   F     0.46001   0.90204   0.49332   0.00000  Uiso   1.00
F943   F     0.35493   0.78318   0.50359   0.00000  Uiso   1.00
F944   F     0.04715   0.60624   0.45860   0.00000  Uiso   1.00
F945   F     0.15982   0.89900   0.42101   0.00000  Uiso   1.00
F946   F     0.38190   0.55034   0.55580   0.00000  Uiso   1.00
F947   F     0.30452   0.63669   0.44378   0.00000  Uiso   1.00
F948   F     0.13644   0.92891   0.57556   0.00000  Uiso   1.00
F949   F     0.28997   0.84746   0.50225   0.00000  Uiso   1.00
F950   F     0.11236   0.54277   0.45724   0.00000  Uiso   1.00
F951   F     0.20282   0.64376   0.54158   0.00000  Uiso   1.00
F952   F     0.39511   0.96664   0.49500   0.00000  Uiso   1.00
C953   C     0.55946   0.68995   0.50020   0.00000  Uiso   1.00
C954   C     0.94044   0.80990   0.49972   0.00000  Uiso   1.00
C955   C     0.94045   0.68988   0.49987   0.00000  Uiso   1.00
C956   C     0.55973   0.80995   0.50022   0.00000  Uiso   1.00
C957   C     0.80958   0.94007   0.50017   0.00000  Uiso   1.00
C958   C     0.69059   0.56011   0.49979   0.00000  Uiso   1.00
C959   C     0.68872   0.94183   0.49983   0.00000  Uiso   1.00
C960   C     0.80947   0.56016   0.50009   0.00000  Uiso   1.00
C961   C     0.99219   0.78920   0.35665   0.00000  Uiso   1.00
C962   C     0.51643   0.71364   0.64421   0.00000  Uiso   1.00
C963   C     0.50731   0.71073   0.35717   0.00000  Uiso   1.00
C964   C     0.98293   0.78607   0.64349   0.00000  Uiso   1.00
C965   C     0.74539   0.54016   0.35689   0.00000  Uiso   1.00
C966   C     0.75824   0.96014   0.64341   0.00000  Uiso   1.00
C967   C     0.75471   0.95958   0.35768   0.00000  Uiso   1.00
C968   C     0.74783   0.54035   0.64264   0.00000  Uiso   1.00
C969   C     0.87209   0.66216   0.47043   0.00000  Uiso   1.00
C970   C     0.59865   0.87084   0.53863   0.00000  Uiso   1.00
C971   C     0.61483   0.85239   0.46190   0.00000  Uiso   1.00
C972   C     0.91028   0.61949   0.52884   0.00000  Uiso   1.00
C973   C     0.63142   0.66648   0.52234   0.00000  Uiso   1.00
C974   C     0.91809   0.88898   0.49613   0.00000  Uiso   1.00
C975   C     0.86455   0.82838   0.50153   0.00000  Uiso   1.00
C976   C     0.58575   0.61560   0.47834   0.00000  Uiso   1.00
C977   C     0.64289   0.88789   0.46055   0.00000  Uiso   1.00
C978   C     0.87798   0.58757   0.52891   0.00000  Uiso   1.00
C979   C     0.83948   0.63051   0.47090   0.00000  Uiso   1.00
C980   C     0.62985   0.90385   0.53832   0.00000  Uiso   1.00
C981   C     0.83188   0.86080   0.50165   0.00000  Uiso   1.00
C982   C     0.61860   0.58355   0.47772   0.00000  Uiso   1.00
C983   C     0.66428   0.63445   0.52170   0.00000  Uiso   1.00
C984   C     0.88547   0.92145   0.49718   0.00000  Uiso   1.00
C985   C     0.59190   0.84430   0.50059   0.00000  Uiso   1.00
C986   C     0.90726   0.65665   0.49960   0.00000  Uiso   1.00
C987   C     0.90720   0.84291   0.49896   0.00000  Uiso   1.00
C988   C     0.59257   0.65674   0.50055   0.00000  Uiso   1.00
C989   C     0.84259   0.59337   0.50017   0.00000  Uiso   1.00
C990   C     0.65305   0.91135   0.49948   0.00000  Uiso   1.00
C991   C     0.65749   0.59334   0.49941   0.00000  Uiso   1.00
C992   C     0.84280   0.90696   0.50031   0.00000  Uiso   1.00
N993   N     0.50000   0.75000   0.61907   0.00000  Uiso   1.00
N994   N     0.50000   0.75000   0.38093   0.00000  Uiso   1.00
N995   N     0.75000   0.50000   0.61907   0.00000  Uiso   1.00
N996   N     0.75000   0.50000   0.38093   0.00000  Uiso   1.00
O997   O     0.54581   0.70419   0.53821   0.00000  Uiso   1.00
O998   O     0.95420   0.79581   0.46179   0.00000  Uiso   1.00
O999   O     0.95420   0.79581   0.53821   0.00000  Uiso   1.00
O1000  O     0.54581   0.70419   0.46179   0.00000  Uiso   1.00
O1001  O     0.95420   0.70419   0.46179   0.00000  Uiso   1.00
O1002  O     0.54581   0.79581   0.53821   0.00000  Uiso   1.00
O1003  O     0.54581   0.79581   0.46179   0.00000  Uiso   1.00
O1004  O     0.95420   0.70419   0.53821   0.00000  Uiso   1.00
O1005  O     0.79581   0.95419   0.53821   0.00000  Uiso   1.00
O1006  O     0.70420   0.54581   0.46179   0.00000  Uiso   1.00
O1007  O     0.70420   0.54581   0.53821   0.00000  Uiso   1.00
O1008  O     0.79581   0.95419   0.46179   0.00000  Uiso   1.00
O1009  O     0.70420   0.95419   0.46179   0.00000  Uiso   1.00
O1010  O     0.79581   0.54581   0.53821   0.00000  Uiso   1.00
O1011  O     0.79581   0.54581   0.46179   0.00000  Uiso   1.00
O1012  O     0.70420   0.95419   0.53821   0.00000  Uiso   1.00
Zn1013 Zn    0.50000   0.75000   0.55104   0.00000  Uiso   1.00
Zn1014 Zn    0.50000   0.75000   0.44896   0.00000  Uiso   1.00
Zn1015 Zn    0.75000   0.50000   0.55104   0.00000  Uiso   1.00
Zn1016 Zn    0.75000   0.50000   0.44896   0.00000  Uiso   1.00
C1017  C     0.99421   0.83601   0.37792   0.00000  Uiso   1.00
C1018  C     0.53267   0.86284   0.36060   0.00000  Uiso   1.00
H1019  H     0.52879   0.87118   0.65837   0.00000  Uiso   1.00
H1020  H     0.53602   0.89528   0.37934   0.00000  Uiso   1.00
H1021  H     0.56289   0.84237   0.36450   0.00000  Uiso   1.00
H1022  H     0.96373   0.85578   0.37263   0.00000  Uiso   1.00
H1023  H     0.99871   0.83362   0.41371   0.00000  Uiso   1.00
C1024  C     0.55304   0.68337   0.62812   0.00000  Uiso   1.00
C1025  C     0.53774   0.63909   0.60659   0.00000  Uiso   1.00
H1026  H     0.51054   0.64606   0.58339   0.00000  Uiso   1.00
H1027  H     0.56484   0.62304   0.58826   0.00000  Uiso   1.00
H1028  H     0.52718   0.61420   0.63183   0.00000  Uiso   1.00
H1029  H     0.57477   0.70340   0.60706   0.00000  Uiso   1.00
H1030  H     0.57509   0.67387   0.65612   0.00000  Uiso   1.00
C1031  C     0.50259   0.66408   0.37832   0.00000  Uiso   1.00
C1032  C     0.96062   0.64174   0.36278   0.00000  Uiso   1.00
H1033  H     0.95835   0.60701   0.37754   0.00000  Uiso   1.00
H1034  H     0.93232   0.66251   0.37358   0.00000  Uiso   1.00
H1035  H     0.95927   0.63863   0.65956   0.00000  Uiso   1.00
H1036  H     0.53067   0.64134   0.37157   0.00000  Uiso   1.00
H1037  H     0.50085   0.66625   0.41423   0.00000  Uiso   1.00
C1038  C     0.94392   0.81357   0.62720   0.00000  Uiso   1.00
C1039  C     0.95509   0.86008   0.60724   0.00000  Uiso   1.00
H1040  H     0.96039   0.88582   0.63351   0.00000  Uiso   1.00
H1041  H     0.98436   0.85779   0.58643   0.00000  Uiso   1.00
H1042  H     0.92728   0.87276   0.58695   0.00000  Uiso   1.00
H1043  H     0.92358   0.79245   0.60517   0.00000  Uiso   1.00
H1044  H     0.92143   0.81995   0.65497   0.00000  Uiso   1.00
C1045  C     0.73500   0.58465   0.38048   0.00000  Uiso   1.00
C1046  C     0.68641   0.59552   0.37822   0.00000  Uiso   1.00
H1047  H     0.66737   0.56558   0.38882   0.00000  Uiso   1.00
H1048  H     0.67889   0.62491   0.40016   0.00000  Uiso   1.00
H1049  H     0.67607   0.60466   0.34401   0.00000  Uiso   1.00
H1050  H     0.74654   0.58377   0.41469   0.00000  Uiso   1.00
H1051  H     0.75274   0.61415   0.36729   0.00000  Uiso   1.00
C1052  C     0.77974   0.91853   0.62202   0.00000  Uiso   1.00
C1053  C     0.74877   0.88772   0.59583   0.00000  Uiso   1.00
H1054  H     0.75151   0.89260   0.55993   0.00000  Uiso   1.00
H1055  H     0.75725   0.85114   0.60180   0.00000  Uiso   1.00
H1056  H     0.71464   0.89353   0.60551   0.00000  Uiso   1.00
H1057  H     0.80906   0.92846   0.60461   0.00000  Uiso   1.00
H1058  H     0.79662   0.89645   0.64651   0.00000  Uiso   1.00
C1059  C     0.75897   0.91422   0.38311   0.00000  Uiso   1.00
C1060  C     0.73008   0.87526   0.36661   0.00000  Uiso   1.00
H1061  H     0.72072   0.85326   0.39487   0.00000  Uiso   1.00
H1062  H     0.70032   0.88877   0.34992   0.00000  Uiso   1.00
H1063  H     0.74776   0.85181   0.34443   0.00000  Uiso   1.00
H1064  H     0.79335   0.90271   0.38498   0.00000  Uiso   1.00
H1065  H     0.74939   0.91867   0.41694   0.00000  Uiso   1.00
C1066  C     0.75548   0.58552   0.61919   0.00000  Uiso   1.00
C1067  C     0.80268   0.60026   0.62454   0.00000  Uiso   1.00
H1068  H     0.82488   0.57215   0.61451   0.00000  Uiso   1.00
H1069  H     0.80855   0.63063   0.60337   0.00000  Uiso   1.00
H1070  H     0.81080   0.60922   0.65922   0.00000  Uiso   1.00
H1071  H     0.74854   0.58349   0.58403   0.00000  Uiso   1.00
H1072  H     0.73326   0.61305   0.63029   0.00000  Uiso   1.00
F1073  F     0.86879   0.69876   0.44267   0.00000  Uiso   1.00
F1074  F     0.57537   0.86512   0.57601   0.00000  Uiso   1.00
F1075  F     0.61120   0.82540   0.42561   0.00000  Uiso   1.00
F1076  F     0.94495   0.61334   0.55623   0.00000  Uiso   1.00
F1077  F     0.63763   0.70722   0.54292   0.00000  Uiso   1.00
F1078  F     0.96001   0.90204   0.49332   0.00000  Uiso   1.00
F1079  F     0.85493   0.78318   0.50359   0.00000  Uiso   1.00
F1080  F     0.54715   0.60624   0.45860   0.00000  Uiso   1.00
F1081  F     0.65982   0.89900   0.42101   0.00000  Uiso   1.00
F1082  F     0.88190   0.55034   0.55580   0.00000  Uiso   1.00
F1083  F     0.80452   0.63669   0.44378   0.00000  Uiso   1.00
F1084  F     0.63644   0.92891   0.57556   0.00000  Uiso   1.00
F1085  F     0.78997   0.84746   0.50225   0.00000  Uiso   1.00
F1086  F     0.61236   0.54277   0.45724   0.00000  Uiso   1.00
F1087  F     0.70282   0.64376   0.54158   0.00000  Uiso   1.00
F1088  F     0.89511   0.96664   0.49500   0.00000  Uiso   1.00
C1089  C     0.05946   0.18995   0.83354   0.00000  Uiso   1.00
C1090  C     0.44044   0.30990   0.83305   0.00000  Uiso   1.00
C1091  C     0.44045   0.18988   0.83320   0.00000  Uiso   1.00
C1092  C     0.05973   0.30995   0.83356   0.00000  Uiso   1.00
C1093  C     0.30958   0.44007   0.83350   0.00000  Uiso   1.00
C1094  C     0.19059   0.06011   0.83312   0.00000  Uiso   1.00
C1095  C     0.18872   0.44183   0.83317   0.00000  Uiso   1.00
C1096  C     0.30947   0.06016   0.83343   0.00000  Uiso   1.00
C1097  C     0.49219   0.28920   0.68998   0.00000  Uiso   1.00
C1098  C     0.01643   0.21364   0.97755   0.00000  Uiso   1.00
C1099  C     0.00731   0.21073   0.69050   0.00000  Uiso   1.00
C1100  C     0.48293   0.28607   0.97682   0.00000  Uiso   1.00
C1101  C     0.24539   0.04016   0.69022   0.00000  Uiso   1.00
C1102  C     0.25824   0.46014   0.97675   0.00000  Uiso   1.00
C1103  C     0.25471   0.45958   0.69101   0.00000  Uiso   1.00
C1104  C     0.24783   0.04035   0.97598   0.00000  Uiso   1.00
C1105  C     0.37209   0.16216   0.80377   0.00000  Uiso   1.00
C1106  C     0.09865   0.37084   0.87197   0.00000  Uiso   1.00
C1107  C     0.11483   0.35239   0.79524   0.00000  Uiso   1.00
C1108  C     0.41028   0.11949   0.86217   0.00000  Uiso   1.00
C1109  C     0.13142   0.16648   0.85568   0.00000  Uiso   1.00
C1110  C     0.41809   0.38898   0.82947   0.00000  Uiso   1.00
C1111  C     0.36455   0.32838   0.83486   0.00000  Uiso   1.00
C1112  C     0.08575   0.11560   0.81167   0.00000  Uiso   1.00
C1113  C     0.14289   0.38789   0.79388   0.00000  Uiso   1.00
C1114  C     0.37798   0.08757   0.86225   0.00000  Uiso   1.00
C1115  C     0.33948   0.13051   0.80423   0.00000  Uiso   1.00
C1116  C     0.12985   0.40385   0.87165   0.00000  Uiso   1.00
C1117  C     0.33188   0.36080   0.83498   0.00000  Uiso   1.00
C1118  C     0.11860   0.08355   0.81105   0.00000  Uiso   1.00
C1119  C     0.16428   0.13445   0.85504   0.00000  Uiso   1.00
C1120  C     0.38547   0.42145   0.83051   0.00000  Uiso   1.00
C1121  C     0.09190   0.34430   0.83393   0.00000  Uiso   1.00
C1122  C     0.40726   0.15665   0.83294   0.00000  Uiso   1.00
C1123  C     0.40720   0.34291   0.83229   0.00000  Uiso   1.00
C1124  C     0.09257   0.15674   0.83389   0.00000  Uiso   1.00
C1125  C     0.34259   0.09337   0.83351   0.00000  Uiso   1.00
C1126  C     0.15305   0.41135   0.83281   0.00000  Uiso   1.00
C1127  C     0.15749   0.09334   0.83275   0.00000  Uiso   1.00
C1128  C     0.34280   0.40696   0.83364   0.00000  Uiso   1.00
N1129  N     0.00000   0.25000   0.95240   0.00000  Uiso   1.00
N1130  N     0.00000   0.25000   0.71427   0.00000  Uiso   1.00
N1131  N     0.25000   0.00000   0.95240   0.00000  Uiso   1.00
N1132  N     0.25000   0.00000   0.71427   0.00000  Uiso   1.00
O1133  O     0.04581   0.20419   0.87154   0.00000  Uiso   1.00
O1134  O     0.45420   0.29581   0.79513   0.00000  Uiso   1.00
O1135  O     0.45420   0.29581   0.87154   0.00000  Uiso   1.00
O1136  O     0.04581   0.20419   0.79513   0.00000  Uiso   1.00
O1137  O     0.45420   0.20419   0.79513   0.00000  Uiso   1.00
O1138  O     0.04581   0.29581   0.87154   0.00000  Uiso   1.00
O1139  O     0.04581   0.29581   0.79513   0.00000  Uiso   1.00
O1140  O     0.45420   0.20419   0.87154   0.00000  Uiso   1.00
O1141  O     0.29581   0.45419   0.87154   0.00000  Uiso   1.00
O1142  O     0.20420   0.04581   0.79513   0.00000  Uiso   1.00
O1143  O     0.20420   0.04581   0.87154   0.00000  Uiso   1.00
O1144  O     0.29581   0.45419   0.79513   0.00000  Uiso   1.00
O1145  O     0.20420   0.45419   0.79513   0.00000  Uiso   1.00
O1146  O     0.29581   0.04581   0.87154   0.00000  Uiso   1.00
O1147  O     0.29581   0.04581   0.79513   0.00000  Uiso   1.00
O1148  O     0.20420   0.45419   0.87154   0.00000  Uiso   1.00
Zn1149 Zn    0.00000   0.25000   0.88437   0.00000  Uiso   1.00
Zn1150 Zn    0.00000   0.25000   0.78229   0.00000  Uiso   1.00
Zn1151 Zn    0.25000   0.00000   0.88437   0.00000  Uiso   1.00
Zn1152 Zn    0.25000   0.00000   0.78229   0.00000  Uiso   1.00
C1153  C     0.49421   0.33601   0.71125   0.00000  Uiso   1.00
C1154  C     0.03267   0.36284   0.69393   0.00000  Uiso   1.00
H1155  H     0.02879   0.37118   0.99170   0.00000  Uiso   1.00
H1156  H     0.03602   0.39528   0.71267   0.00000  Uiso   1.00
H1157  H     0.06289   0.34237   0.69783   0.00000  Uiso   1.00
H1158  H     0.46373   0.35578   0.70596   0.00000  Uiso   1.00
H1159  H     0.49871   0.33362   0.74704   0.00000  Uiso   1.00
C1160  C     0.05304   0.18337   0.96146   0.00000  Uiso   1.00
C1161  C     0.03774   0.13909   0.93992   0.00000  Uiso   1.00
H1162  H     0.01054   0.14606   0.91672   0.00000  Uiso   1.00
H1163  H     0.06484   0.12304   0.92160   0.00000  Uiso   1.00
H1164  H     0.02718   0.11420   0.96516   0.00000  Uiso   1.00
H1165  H     0.07477   0.20340   0.94039   0.00000  Uiso   1.00
H1166  H     0.07509   0.17387   0.98946   0.00000  Uiso   1.00
C1167  C     0.00259   0.16408   0.71166   0.00000  Uiso   1.00
C1168  C     0.46062   0.14174   0.69612   0.00000  Uiso   1.00
H1169  H     0.45835   0.10701   0.71087   0.00000  Uiso   1.00
H1170  H     0.43232   0.16251   0.70692   0.00000  Uiso   1.00
H1171  H     0.45927   0.13863   0.99289   0.00000  Uiso   1.00
H1172  H     0.03067   0.14134   0.70491   0.00000  Uiso   1.00
H1173  H     0.00085   0.16625   0.74756   0.00000  Uiso   1.00
C1174  C     0.44392   0.31357   0.96054   0.00000  Uiso   1.00
C1175  C     0.45509   0.36008   0.94057   0.00000  Uiso   1.00
H1176  H     0.46039   0.38582   0.96685   0.00000  Uiso   1.00
H1177  H     0.48436   0.35779   0.91976   0.00000  Uiso   1.00
H1178  H     0.42728   0.37276   0.92029   0.00000  Uiso   1.00
H1179  H     0.42358   0.29245   0.93850   0.00000  Uiso   1.00
H1180  H     0.42143   0.31995   0.98831   0.00000  Uiso   1.00
C1181  C     0.23500   0.08465   0.71382   0.00000  Uiso   1.00
C1182  C     0.18641   0.09552   0.71155   0.00000  Uiso   1.00
H1183  H     0.16737   0.06558   0.72216   0.00000  Uiso   1.00
H1184  H     0.17889   0.12491   0.73349   0.00000  Uiso   1.00
H1185  H     0.17607   0.10466   0.67734   0.00000  Uiso   1.00
H1186  H     0.24654   0.08377   0.74802   0.00000  Uiso   1.00
H1187  H     0.25274   0.11415   0.70063   0.00000  Uiso   1.00
C1188  C     0.27974   0.41853   0.95535   0.00000  Uiso   1.00
C1189  C     0.24877   0.38772   0.92916   0.00000  Uiso   1.00
H1190  H     0.25151   0.39260   0.89326   0.00000  Uiso   1.00
H1191  H     0.25725   0.35114   0.93514   0.00000  Uiso   1.00
H1192  H     0.21464   0.39353   0.93885   0.00000  Uiso   1.00
H1193  H     0.30906   0.42846   0.93794   0.00000  Uiso   1.00
H1194  H     0.29662   0.39645   0.97984   0.00000  Uiso   1.00
C1195  C     0.25897   0.41422   0.71644   0.00000  Uiso   1.00
C1196  C     0.23008   0.37526   0.69994   0.00000  Uiso   1.00
H1197  H     0.22072   0.35326   0.72820   0.00000  Uiso   1.00
H1198  H     0.20032   0.38877   0.68326   0.00000  Uiso   1.00
H1199  H     0.24776   0.35181   0.67777   0.00000  Uiso   1.00
H1200  H     0.29335   0.40271   0.71832   0.00000  Uiso   1.00
H1201  H     0.24939   0.41867   0.75028   0.00000  Uiso   1.00
C1202  C     0.25548   0.08552   0.95252   0.00000  Uiso   1.00
C1203  C     0.30268   0.10026   0.95788   0.00000  Uiso   1.00
H1204  H     0.32488   0.07215   0.94785   0.00000  Uiso   1.00
H1205  H     0.30855   0.13063   0.93670   0.00000  Uiso   1.00
H1206  H     0.31080   0.10922   0.99256   0.00000  Uiso   1.00
H1207  H     0.24854   0.08349   0.91737   0.00000  Uiso   1.00
H1208  H     0.23326   0.11305   0.96363   0.00000  Uiso   1.00
F1209  F     0.36879   0.19876   0.77601   0.00000  Uiso   1.00
F1210  F     0.07537   0.36512   0.90935   0.00000  Uiso   1.00
F1211  F     0.11120   0.32540   0.75894   0.00000  Uiso   1.00
F1212  F     0.44495   0.11334   0.88956   0.00000  Uiso   1.00
F1213  F     0.13763   0.20722   0.87626   0.00000  Uiso   1.00
F1214  F     0.46001   0.40204   0.82665   0.00000  Uiso   1.00
F1215  F     0.35493   0.28318   0.83693   0.00000  Uiso   1.00
F1216  F     0.04715   0.10624   0.79193   0.00000  Uiso   1.00
F1217  F     0.15982   0.39900   0.75435   0.00000  Uiso   1.00
F1218  F     0.38190   0.05034   0.88913   0.00000  Uiso   1.00
F1219  F     0.30452   0.13669   0.77711   0.00000  Uiso   1.00
F1220  F     0.13644   0.42891   0.90889   0.00000  Uiso   1.00
F1221  F     0.28997   0.34746   0.83558   0.00000  Uiso   1.00
F1222  F     0.11236   0.04277   0.79057   0.00000  Uiso   1.00
F1223  F     0.20282   0.14376   0.87491   0.00000  Uiso   1.00
F1224  F     0.39511   0.46664   0.82833   0.00000  Uiso   1.00
C1225  C     0.55946   0.18995   0.83354   0.00000  Uiso   1.00
C1226  C     0.94044   0.30990   0.83305   0.00000  Uiso   1.00
C1227  C     0.94045   0.18988   0.83320   0.00000  Uiso   1.00
C1228  C     0.55973   0.30995   0.83356   0.00000  Uiso   1.00
C1229  C     0.80958   0.44007   0.83350   0.00000  Uiso   1.00
C1230  C     0.69059   0.06011   0.83312   0.00000  Uiso   1.00
C1231  C     0.68872   0.44183   0.83317   0.00000  Uiso   1.00
C1232  C     0.80947   0.06016   0.83343   0.00000  Uiso   1.00
C1233  C     0.99219   0.28920   0.68998   0.00000  Uiso   1.00
C1234  C     0.51643   0.21364   0.97755   0.00000  Uiso   1.00
C1235  C     0.50731   0.21073   0.69050   0.00000  Uiso   1.00
C1236  C     0.98293   0.28607   0.97682   0.00000  Uiso   1.00
C1237  C     0.74539   0.04016   0.69022   0.00000  Uiso   1.00
C1238  C     0.75824   0.46014   0.97675   0.00000  Uiso   1.00
C1239  C     0.75471   0.45958   0.69101   0.00000  Uiso   1.00
C1240  C     0.74783   0.04035   0.97598   0.00000  Uiso   1.00
C1241  C     0.87209   0.16216   0.80377   0.00000  Uiso   1.00
C1242  C     0.59865   0.37084   0.87197   0.00000  Uiso   1.00
C1243  C     0.61483   0.35239   0.79524   0.00000  Uiso   1.00
C1244  C     0.91028   0.11949   0.86217   0.00000  Uiso   1.00
C1245  C     0.63142   0.16648   0.85568   0.00000  Uiso   1.00
C1246  C     0.91809   0.38898   0.82947   0.00000  Uiso   1.00
C1247  C     0.86455   0.32838   0.83486   0.00000  Uiso   1.00
C1248  C     0.58575   0.11560   0.81167   0.00000  Uiso   1.00
C1249  C     0.64289   0.38789   0.79388   0.00000  Uiso   1.00
C1250  C     0.87798   0.08757   0.86225   0.00000  Uiso   1.00
C1251  C     0.83948   0.13051   0.80423   0.00000  Uiso   1.00
C1252  C     0.62985   0.40385   0.87165   0.00000  Uiso   1.00
C1253  C     0.83188   0.36080   0.83498   0.00000  Uiso   1.00
C1254  C     0.61860   0.08355   0.81105   0.00000  Uiso   1.00
C1255  C     0.66428   0.13445   0.85504   0.00000  Uiso   1.00
C1256  C     0.88547   0.42145   0.83051   0.00000  Uiso   1.00
C1257  C     0.59190   0.34430   0.83393   0.00000  Uiso   1.00
C1258  C     0.90726   0.15665   0.83294   0.00000  Uiso   1.00
C1259  C     0.90720   0.34291   0.83229   0.00000  Uiso   1.00
C1260  C     0.59257   0.15674   0.83389   0.00000  Uiso   1.00
C1261  C     0.84259   0.09337   0.83351   0.00000  Uiso   1.00
C1262  C     0.65305   0.41135   0.83281   0.00000  Uiso   1.00
C1263  C     0.65749   0.09334   0.83275   0.00000  Uiso   1.00
C1264  C     0.84280   0.40696   0.83364   0.00000  Uiso   1.00
N1265  N     0.50000   0.25000   0.95240   0.00000  Uiso   1.00
N1266  N     0.50000   0.25000   0.71427   0.00000  Uiso   1.00
N1267  N     0.75000   0.00000   0.95240   0.00000  Uiso   1.00
N1268  N     0.75000   0.00000   0.71427   0.00000  Uiso   1.00
O1269  O     0.54581   0.20419   0.87154   0.00000  Uiso   1.00
O1270  O     0.95420   0.29581   0.79513   0.00000  Uiso   1.00
O1271  O     0.95420   0.29581   0.87154   0.00000  Uiso   1.00
O1272  O     0.54581   0.20419   0.79513   0.00000  Uiso   1.00
O1273  O     0.95420   0.20419   0.79513   0.00000  Uiso   1.00
O1274  O     0.54581   0.29581   0.87154   0.00000  Uiso   1.00
O1275  O     0.54581   0.29581   0.79513   0.00000  Uiso   1.00
O1276  O     0.95420   0.20419   0.87154   0.00000  Uiso   1.00
O1277  O     0.79581   0.45419   0.87154   0.00000  Uiso   1.00
O1278  O     0.70420   0.04581   0.79513   0.00000  Uiso   1.00
O1279  O     0.70420   0.04581   0.87154   0.00000  Uiso   1.00
O1280  O     0.79581   0.45419   0.79513   0.00000  Uiso   1.00
O1281  O     0.70420   0.45419   0.79513   0.00000  Uiso   1.00
O1282  O     0.79581   0.04581   0.87154   0.00000  Uiso   1.00
O1283  O     0.79581   0.04581   0.79513   0.00000  Uiso   1.00
O1284  O     0.70420   0.45419   0.87154   0.00000  Uiso   1.00
Zn1285 Zn    0.50000   0.25000   0.88437   0.00000  Uiso   1.00
Zn1286 Zn    0.50000   0.25000   0.78229   0.00000  Uiso   1.00
Zn1287 Zn    0.75000   0.00000   0.88437   0.00000  Uiso   1.00
Zn1288 Zn    0.75000   0.00000   0.78229   0.00000  Uiso   1.00
C1289  C     0.99421   0.33601   0.71125   0.00000  Uiso   1.00
C1290  C     0.53267   0.36284   0.69393   0.00000  Uiso   1.00
H1291  H     0.52879   0.37118   0.99170   0.00000  Uiso   1.00
H1292  H     0.53602   0.39528   0.71267   0.00000  Uiso   1.00
H1293  H     0.56289   0.34237   0.69783   0.00000  Uiso   1.00
H1294  H     0.96373   0.35578   0.70596   0.00000  Uiso   1.00
H1295  H     0.99871   0.33362   0.74704   0.00000  Uiso   1.00
C1296  C     0.55304   0.18337   0.96146   0.00000  Uiso   1.00
C1297  C     0.53774   0.13909   0.93992   0.00000  Uiso   1.00
H1298  H     0.51054   0.14606   0.91672   0.00000  Uiso   1.00
H1299  H     0.56484   0.12304   0.92160   0.00000  Uiso   1.00
H1300  H     0.52718   0.11420   0.96516   0.00000  Uiso   1.00
H1301  H     0.57477   0.20340   0.94039   0.00000  Uiso   1.00
H1302  H     0.57509   0.17387   0.98946   0.00000  Uiso   1.00
C1303  C     0.50259   0.16408   0.71166   0.00000  Uiso   1.00
C1304  C     0.96062   0.14174   0.69612   0.00000  Uiso   1.00
H1305  H     0.95835   0.10701   0.71087   0.00000  Uiso   1.00
H1306  H     0.93232   0.16251   0.70692   0.00000  Uiso   1.00
H1307  H     0.95927   0.13863   0.99289   0.00000  Uiso   1.00
H1308  H     0.53067   0.14134   0.70491   0.00000  Uiso   1.00
H1309  H     0.50085   0.16625   0.74756   0.00000  Uiso   1.00
C1310  C     0.94392   0.31357   0.96054   0.00000  Uiso   1.00
C1311  C     0.95509   0.36008   0.94057   0.00000  Uiso   1.00
H1312  H     0.96039   0.38582   0.96685   0.00000  Uiso   1.00
H1313  H     0.98436   0.35779   0.91976   0.00000  Uiso   1.00
H1314  H     0.92728   0.37276   0.92029   0.00000  Uiso   1.00
H1315  H     0.92358   0.29245   0.93850   0.00000  Uiso   1.00
H1316  H     0.92143   0.31995   0.98831   0.00000  Uiso   1.00
C1317  C     0.73500   0.08465   0.71382   0.00000  Uiso   1.00
C1318  C     0.68641   0.09552   0.71155   0.00000  Uiso   1.00
H1319  H     0.66737   0.06558   0.72216   0.00000  Uiso   1.00
H1320  H     0.67889   0.12491   0.73349   0.00000  Uiso   1.00
H1321  H     0.67607   0.10466   0.67734   0.00000  Uiso   1.00
H1322  H     0.74654   0.08377   0.74802   0.00000  Uiso   1.00
H1323  H     0.75274   0.11415   0.70063   0.00000  Uiso   1.00
C1324  C     0.77974   0.41853   0.95535   0.00000  Uiso   1.00
C1325  C     0.74877   0.38772   0.92916   0.00000  Uiso   1.00
H1326  H     0.75151   0.39260   0.89326   0.00000  Uiso   1.00
H1327  H     0.75725   0.35114   0.93514   0.00000  Uiso   1.00
H1328  H     0.71464   0.39353   0.93885   0.00000  Uiso   1.00
H1329  H     0.80906   0.42846   0.93794   0.00000  Uiso   1.00
H1330  H     0.79662   0.39645   0.97984   0.00000  Uiso   1.00
C1331  C     0.75897   0.41422   0.71644   0.00000  Uiso   1.00
C1332  C     0.73008   0.37526   0.69994   0.00000  Uiso   1.00
H1333  H     0.72072   0.35326   0.72820   0.00000  Uiso   1.00
H1334  H     0.70032   0.38877   0.68326   0.00000  Uiso   1.00
H1335  H     0.74776   0.35181   0.67777   0.00000  Uiso   1.00
H1336  H     0.79335   0.40271   0.71832   0.00000  Uiso   1.00
H1337  H     0.74939   0.41867   0.75028   0.00000  Uiso   1.00
C1338  C     0.75548   0.08552   0.95252   0.00000  Uiso   1.00
C1339  C     0.80268   0.10026   0.95788   0.00000  Uiso   1.00
H1340  H     0.82488   0.07215   0.94785   0.00000  Uiso   1.00
H1341  H     0.80855   0.13063   0.93670   0.00000  Uiso   1.00
H1342  H     0.81080   0.10922   0.99256   0.00000  Uiso   1.00
H1343  H     0.74854   0.08349   0.91737   0.00000  Uiso   1.00
H1344  H     0.73326   0.11305   0.96363   0.00000  Uiso   1.00
F1345  F     0.86879   0.19876   0.77601   0.00000  Uiso   1.00
F1346  F     0.57537   0.36512   0.90935   0.00000  Uiso   1.00
F1347  F     0.61120   0.32540   0.75894   0.00000  Uiso   1.00
F1348  F     0.94495   0.11334   0.88956   0.00000  Uiso   1.00
F1349  F     0.63763   0.20722   0.87626   0.00000  Uiso   1.00
F1350  F     0.96001   0.40204   0.82665   0.00000  Uiso   1.00
F1351  F     0.85493   0.28318   0.83693   0.00000  Uiso   1.00
F1352  F     0.54715   0.10624   0.79193   0.00000  Uiso   1.00
F1353  F     0.65982   0.39900   0.75435   0.00000  Uiso   1.00
F1354  F     0.88190   0.05034   0.88913   0.00000  Uiso   1.00
F1355  F     0.80452   0.13669   0.77711   0.00000  Uiso   1.00
F1356  F     0.63644   0.42891   0.90889   0.00000  Uiso   1.00
F1357  F     0.78997   0.34746   0.83558   0.00000  Uiso   1.00
F1358  F     0.61236   0.04277   0.79057   0.00000  Uiso   1.00
F1359  F     0.70282   0.14376   0.87491   0.00000  Uiso   1.00
F1360  F     0.89511   0.46664   0.82833   0.00000  Uiso   1.00
C1361  C     0.05946   0.68995   0.83354   0.00000  Uiso   1.00
C1362  C     0.44044   0.80990   0.83305   0.00000  Uiso   1.00
C1363  C     0.44045   0.68988   0.83320   0.00000  Uiso   1.00
C1364  C     0.05973   0.80995   0.83356   0.00000  Uiso   1.00
C1365  C     0.30958   0.94007   0.83350   0.00000  Uiso   1.00
C1366  C     0.19059   0.56011   0.83312   0.00000  Uiso   1.00
C1367  C     0.18872   0.94183   0.83317   0.00000  Uiso   1.00
C1368  C     0.30947   0.56016   0.83343   0.00000  Uiso   1.00
C1369  C     0.49219   0.78920   0.68998   0.00000  Uiso   1.00
C1370  C     0.01643   0.71364   0.97755   0.00000  Uiso   1.00
C1371  C     0.00731   0.71073   0.69050   0.00000  Uiso   1.00
C1372  C     0.48293   0.78607   0.97682   0.00000  Uiso   1.00
C1373  C     0.24539   0.54016   0.69022   0.00000  Uiso   1.00
C1374  C     0.25824   0.96014   0.97675   0.00000  Uiso   1.00
C1375  C     0.25471   0.95958   0.69101   0.00000  Uiso   1.00
C1376  C     0.24783   0.54035   0.97598   0.00000  Uiso   1.00
C1377  C     0.37209   0.66216   0.80377   0.00000  Uiso   1.00
C1378  C     0.09865   0.87084   0.87197   0.00000  Uiso   1.00
C1379  C     0.11483   0.85239   0.79524   0.00000  Uiso   1.00
C1380  C     0.41028   0.61949   0.86217   0.00000  Uiso   1.00
C1381  C     0.13142   0.66648   0.85568   0.00000  Uiso   1.00
C1382  C     0.41809   0.88898   0.82947   0.00000  Uiso   1.00
C1383  C     0.36455   0.82838   0.83486   0.00000  Uiso   1.00
C1384  C     0.08575   0.61560   0.81167   0.00000  Uiso   1.00
C1385  C     0.14289   0.88789   0.79388   0.00000  Uiso   1.00
C1386  C     0.37798   0.58757   0.86225   0.00000  Uiso   1.00
C1387  C     0.33948   0.63051   0.80423   0.00000  Uiso   1.00
C1388  C     0.12985   0.90385   0.87165   0.00000  Uiso   1.00
C1389  C     0.33188   0.86080   0.83498   0.00000  Uiso   1.00
C1390  C     0.11860   0.58355   0.81105   0.00000  Uiso   1.00
C1391  C     0.16428   0.63445   0.85504   0.00000  Uiso   1.00
C1392  C     0.38547   0.92145   0.83051   0.00000  Uiso   1.00
C1393  C     0.09190   0.84430   0.83393   0.00000  Uiso   1.00
C1394  C     0.40726   0.65665   0.83294   0.00000  Uiso   1.00
C1395  C     0.40720   0.84291   0.83229   0.00000  Uiso   1.00
C1396  C     0.09257   0.65674   0.83389   0.00000  Uiso   1.00
C1397  C     0.34259   0.59337   0.83351   0.00000  Uiso   1.00
C1398  C     0.15305   0.91135   0.83281   0.00000  Uiso   1.00
C1399  C     0.15749   0.59334   0.83275   0.00000  Uiso   1.00
C1400  C     0.34280   0.90696   0.83364   0.00000  Uiso   1.00
N1401  N     0.00000   0.75000   0.95240   0.00000  Uiso   1.00
N1402  N     0.00000   0.75000   0.71427   0.00000  Uiso   1.00
N1403  N     0.25000   0.50000   0.95240   0.00000  Uiso   1.00
N1404  N     0.25000   0.50000   0.71427   0.00000  Uiso   1.00
O1405  O     0.04581   0.70419   0.87154   0.00000  Uiso   1.00
O1406  O     0.45420   0.79581   0.79513   0.00000  Uiso   1.00
O1407  O     0.45420   0.79581   0.87154   0.00000  Uiso   1.00
O1408  O     0.04581   0.70419   0.79513   0.00000  Uiso   1.00
O1409  O     0.45420   0.70419   0.79513   0.00000  Uiso   1.00
O1410  O     0.04581   0.79581   0.87154   0.00000  Uiso   1.00
O1411  O     0.04581   0.79581   0.79513   0.00000  Uiso   1.00
O1412  O     0.45420   0.70419   0.87154   0.00000  Uiso   1.00
O1413  O     0.29581   0.95419   0.87154   0.00000  Uiso   1.00
O1414  O     0.20420   0.54581   0.79513   0.00000  Uiso   1.00
O1415  O     0.20420   0.54581   0.87154   0.00000  Uiso   1.00
O1416  O     0.29581   0.95419   0.79513   0.00000  Uiso   1.00
O1417  O     0.20420   0.95419   0.79513   0.00000  Uiso   1.00
O1418  O     0.29581   0.54581   0.87154   0.00000  Uiso   1.00
O1419  O     0.29581   0.54581   0.79513   0.00000  Uiso   1.00
O1420  O     0.20420   0.95419   0.87154   0.00000  Uiso   1.00
Zn1421 Zn    0.00000   0.75000   0.88437   0.00000  Uiso   1.00
Zn1422 Zn    0.00000   0.75000   0.78229   0.00000  Uiso   1.00
Zn1423 Zn    0.25000   0.50000   0.88437   0.00000  Uiso   1.00
Zn1424 Zn    0.25000   0.50000   0.78229   0.00000  Uiso   1.00
C1425  C     0.49421   0.83601   0.71125   0.00000  Uiso   1.00
C1426  C     0.03267   0.86284   0.69393   0.00000  Uiso   1.00
H1427  H     0.02879   0.87118   0.99170   0.00000  Uiso   1.00
H1428  H     0.03602   0.89528   0.71267   0.00000  Uiso   1.00
H1429  H     0.06289   0.84237   0.69783   0.00000  Uiso   1.00
H1430  H     0.46373   0.85578   0.70596   0.00000  Uiso   1.00
H1431  H     0.49871   0.83362   0.74704   0.00000  Uiso   1.00
C1432  C     0.05304   0.68337   0.96146   0.00000  Uiso   1.00
C1433  C     0.03774   0.63909   0.93992   0.00000  Uiso   1.00
H1434  H     0.01054   0.64606   0.91672   0.00000  Uiso   1.00
H1435  H     0.06484   0.62304   0.92160   0.00000  Uiso   1.00
H1436  H     0.02718   0.61420   0.96516   0.00000  Uiso   1.00
H1437  H     0.07477   0.70340   0.94039   0.00000  Uiso   1.00
H1438  H     0.07509   0.67387   0.98946   0.00000  Uiso   1.00
C1439  C     0.00259   0.66408   0.71166   0.00000  Uiso   1.00
C1440  C     0.46062   0.64174   0.69612   0.00000  Uiso   1.00
H1441  H     0.45835   0.60701   0.71087   0.00000  Uiso   1.00
H1442  H     0.43232   0.66251   0.70692   0.00000  Uiso   1.00
H1443  H     0.45927   0.63863   0.99289   0.00000  Uiso   1.00
H1444  H     0.03067   0.64134   0.70491   0.00000  Uiso   1.00
H1445  H     0.00085   0.66625   0.74756   0.00000  Uiso   1.00
C1446  C     0.44392   0.81357   0.96054   0.00000  Uiso   1.00
C1447  C     0.45509   0.86008   0.94057   0.00000  Uiso   1.00
H1448  H     0.46039   0.88582   0.96685   0.00000  Uiso   1.00
H1449  H     0.48436   0.85779   0.91976   0.00000  Uiso   1.00
H1450  H     0.42728   0.87276   0.92029   0.00000  Uiso   1.00
H1451  H     0.42358   0.79245   0.93850   0.00000  Uiso   1.00
H1452  H     0.42143   0.81995   0.98831   0.00000  Uiso   1.00
C1453  C     0.23500   0.58465   0.71382   0.00000  Uiso   1.00
C1454  C     0.18641   0.59552   0.71155   0.00000  Uiso   1.00
H1455  H     0.16737   0.56558   0.72216   0.00000  Uiso   1.00
H1456  H     0.17889   0.62491   0.73349   0.00000  Uiso   1.00
H1457  H     0.17607   0.60466   0.67734   0.00000  Uiso   1.00
H1458  H     0.24654   0.58377   0.74802   0.00000  Uiso   1.00
H1459  H     0.25274   0.61415   0.70063   0.00000  Uiso   1.00
C1460  C     0.27974   0.91853   0.95535   0.00000  Uiso   1.00
C1461  C     0.24877   0.88772   0.92916   0.00000  Uiso   1.00
H1462  H     0.25151   0.89260   0.89326   0.00000  Uiso   1.00
H1463  H     0.25725   0.85114   0.93514   0.00000  Uiso   1.00
H1464  H     0.21464   0.89353   0.93885   0.00000  Uiso   1.00
H1465  H     0.30906   0.92846   0.93794   0.00000  Uiso   1.00
H1466  H     0.29662   0.89645   0.97984   0.00000  Uiso   1.00
C1467  C     0.25897   0.91422   0.71644   0.00000  Uiso   1.00
C1468  C     0.23008   0.87526   0.69994   0.00000  Uiso   1.00
H1469  H     0.22072   0.85326   0.72820   0.00000  Uiso   1.00
H1470  H     0.20032   0.88877   0.68326   0.00000  Uiso   1.00
H1471  H     0.24776   0.85181   0.67777   0.00000  Uiso   1.00
H1472  H     0.29335   0.90271   0.71832   0.00000  Uiso   1.00
H1473  H     0.24939   0.91867   0.75028   0.00000  Uiso   1.00
C1474  C     0.25548   0.58552   0.95252   0.00000  Uiso   1.00
C1475  C     0.30268   0.60026   0.95788   0.00000  Uiso   1.00
H1476  H     0.32488   0.57215   0.94785   0.00000  Uiso   1.00
H1477  H     0.30855   0.63063   0.93670   0.00000  Uiso   1.00
H1478  H     0.31080   0.60922   0.99256   0.00000  Uiso   1.00
H1479  H     0.24854   0.58349   0.91737   0.00000  Uiso   1.00
H1480  H     0.23326   0.61305   0.96363   0.00000  Uiso   1.00
F1481  F     0.36879   0.69876   0.77601   0.00000  Uiso   1.00
F1482  F     0.07537   0.86512   0.90935   0.00000  Uiso   1.00
F1483  F     0.11120   0.82540   0.75894   0.00000  Uiso   1.00
F1484  F     0.44495   0.61334   0.88956   0.00000  Uiso   1.00
F1485  F     0.13763   0.70722   0.87626   0.00000  Uiso   1.00
F1486  F     0.46001   0.90204   0.82665   0.00000  Uiso   1.00
F1487  F     0.35493   0.78318   0.83693   0.00000  Uiso   1.00
F1488  F     0.04715   0.60624   0.79193   0.00000  Uiso   1.00
F1489  F     0.15982   0.89900   0.75435   0.00000  Uiso   1.00
F1490  F     0.38190   0.55034   0.88913   0.00000  Uiso   1.00
F1491  F     0.30452   0.63669   0.77711   0.00000  Uiso   1.00
F1492  F     0.13644   0.92891   0.90889   0.00000  Uiso   1.00
F1493  F     0.28997   0.84746   0.83558   0.00000  Uiso   1.00
F1494  F     0.11236   0.54277   0.79057   0.00000  Uiso   1.00
F1495  F     0.20282   0.64376   0.87491   0.00000  Uiso   1.00
F1496  F     0.39511   0.96664   0.82833   0.00000  Uiso   1.00
C1497  C     0.55946   0.68995   0.83354   0.00000  Uiso   1.00
C1498  C     0.94044   0.80990   0.83305   0.00000  Uiso   1.00
C1499  C     0.94045   0.68988   0.83320   0.00000  Uiso   1.00
C1500  C     0.55973   0.80995   0.83356   0.00000  Uiso   1.00
C1501  C     0.80958   0.94007   0.83350   0.00000  Uiso   1.00
C1502  C     0.69059   0.56011   0.83312   0.00000  Uiso   1.00
C1503  C     0.68872   0.94183   0.83317   0.00000  Uiso   1.00
C1504  C     0.80947   0.56016   0.83343   0.00000  Uiso   1.00
C1505  C     0.99219   0.78920   0.68998   0.00000  Uiso   1.00
C1506  C     0.51643   0.71364   0.97755   0.00000  Uiso   1.00
C1507  C     0.50731   0.71073   0.69050   0.00000  Uiso   1.00
C1508  C     0.98293   0.78607   0.97682   0.00000  Uiso   1.00
C1509  C     0.74539   0.54016   0.69022   0.00000  Uiso   1.00
C1510  C     0.75824   0.96014   0.97675   0.00000  Uiso   1.00
C1511  C     0.75471   0.95958   0.69101   0.00000  Uiso   1.00
C1512  C     0.74783   0.54035   0.97598   0.00000  Uiso   1.00
C1513  C     0.87209   0.66216   0.80377   0.00000  Uiso   1.00
C1514  C     0.59865   0.87084   0.87197   0.00000  Uiso   1.00
C1515  C     0.61483   0.85239   0.79524   0.00000  Uiso   1.00
C1516  C     0.91028   0.61949   0.86217   0.00000  Uiso   1.00
C1517  C     0.63142   0.66648   0.85568   0.00000  Uiso   1.00
C1518  C     0.91809   0.88898   0.82947   0.00000  Uiso   1.00
C1519  C     0.86455   0.82838   0.83486   0.00000  Uiso   1.00
C1520  C     0.58575   0.61560   0.81167   0.00000  Uiso   1.00
C1521  C     0.64289   0.88789   0.79388   0.00000  Uiso   1.00
C1522  C     0.87798   0.58757   0.86225   0.00000  Uiso   1.00
C1523  C     0.83948   0.63051   0.80423   0.00000  Uiso   1.00
C1524  C     0.62985   0.90385   0.87165   0.00000  Uiso   1.00
C1525  C     0.83188   0.86080   0.83498   0.00000  Uiso   1.00
C1526  C     0.61860   0.58355   0.81105   0.00000  Uiso   1.00
C1527  C     0.66428   0.63445   0.85504   0.00000  Uiso   1.00
C1528  C     0.88547   0.92145   0.83051   0.00000  Uiso   1.00
C1529  C     0.59190   0.84430   0.83393   0.00000  Uiso   1.00
C1530  C     0.90726   0.65665   0.83294   0.00000  Uiso   1.00
C1531  C     0.90720   0.84291   0.83229   0.00000  Uiso   1.00
C1532  C     0.59257   0.65674   0.83389   0.00000  Uiso   1.00
C1533  C     0.84259   0.59337   0.83351   0.00000  Uiso   1.00
C1534  C     0.65305   0.91135   0.83281   0.00000  Uiso   1.00
C1535  C     0.65749   0.59334   0.83275   0.00000  Uiso   1.00
C1536  C     0.84280   0.90696   0.83364   0.00000  Uiso   1.00
N1537  N     0.50000   0.75000   0.95240   0.00000  Uiso   1.00
N1538  N     0.50000   0.75000   0.71427   0.00000  Uiso   1.00
N1539  N     0.75000   0.50000   0.95240   0.00000  Uiso   1.00
N1540  N     0.75000   0.50000   0.71427   0.00000  Uiso   1.00
O1541  O     0.54581   0.70419   0.87154   0.00000  Uiso   1.00
O1542  O     0.95420   0.79581   0.79513   0.00000  Uiso   1.00
O1543  O     0.95420   0.79581   0.87154   0.00000  Uiso   1.00
O1544  O     0.54581   0.70419   0.79513   0.00000  Uiso   1.00
O1545  O     0.95420   0.70419   0.79513   0.00000  Uiso   1.00
O1546  O     0.54581   0.79581   0.87154   0.00000  Uiso   1.00
O1547  O     0.54581   0.79581   0.79513   0.00000  Uiso   1.00
O1548  O     0.95420   0.70419   0.87154   0.00000  Uiso   1.00
O1549  O     0.79581   0.95419   0.87154   0.00000  Uiso   1.00
O1550  O     0.70420   0.54581   0.79513   0.00000  Uiso   1.00
O1551  O     0.70420   0.54581   0.87154   0.00000  Uiso   1.00
O1552  O     0.79581   0.95419   0.79513   0.00000  Uiso   1.00
O1553  O     0.70420   0.95419   0.79513   0.00000  Uiso   1.00
O1554  O     0.79581   0.54581   0.87154   0.00000  Uiso   1.00
O1555  O     0.79581   0.54581   0.79513   0.00000  Uiso   1.00
O1556  O     0.70420   0.95419   0.87154   0.00000  Uiso   1.00
Zn1557 Zn    0.50000   0.75000   0.88437   0.00000  Uiso   1.00
Zn1558 Zn    0.50000   0.75000   0.78229   0.00000  Uiso   1.00
Zn1559 Zn    0.75000   0.50000   0.88437   0.00000  Uiso   1.00
Zn1560 Zn    0.75000   0.50000   0.78229   0.00000  Uiso   1.00
C1561  C     0.99421   0.83601   0.71125   0.00000  Uiso   1.00
C1562  C     0.53267   0.86284   0.69393   0.00000  Uiso   1.00
H1563  H     0.52879   0.87118   0.99170   0.00000  Uiso   1.00
H1564  H     0.53602   0.89528   0.71267   0.00000  Uiso   1.00
H1565  H     0.56289   0.84237   0.69783   0.00000  Uiso   1.00
H1566  H     0.96373   0.85578   0.70596   0.00000  Uiso   1.00
H1567  H     0.99871   0.83362   0.74704   0.00000  Uiso   1.00
C1568  C     0.55304   0.68337   0.96146   0.00000  Uiso   1.00
C1569  C     0.53774   0.63909   0.93992   0.00000  Uiso   1.00
H1570  H     0.51054   0.64606   0.91672   0.00000  Uiso   1.00
H1571  H     0.56484   0.62304   0.92160   0.00000  Uiso   1.00
H1572  H     0.52718   0.61420   0.96516   0.00000  Uiso   1.00
H1573  H     0.57477   0.70340   0.94039   0.00000  Uiso   1.00
H1574  H     0.57509   0.67387   0.98946   0.00000  Uiso   1.00
C1575  C     0.50259   0.66408   0.71166   0.00000  Uiso   1.00
C1576  C     0.96062   0.64174   0.69612   0.00000  Uiso   1.00
H1577  H     0.95835   0.60701   0.71087   0.00000  Uiso   1.00
H1578  H     0.93232   0.66251   0.70692   0.00000  Uiso   1.00
H1579  H     0.95927   0.63863   0.99289   0.00000  Uiso   1.00
H1580  H     0.53067   0.64134   0.70491   0.00000  Uiso   1.00
H1581  H     0.50085   0.66625   0.74756   0.00000  Uiso   1.00
C1582  C     0.94392   0.81357   0.96054   0.00000  Uiso   1.00
C1583  C     0.95509   0.86008   0.94057   0.00000  Uiso   1.00
H1584  H     0.96039   0.88582   0.96685   0.00000  Uiso   1.00
H1585  H     0.98436   0.85779   0.91976   0.00000  Uiso   1.00
H1586  H     0.92728   0.87276   0.92029   0.00000  Uiso   1.00
H1587  H     0.92358   0.79245   0.93850   0.00000  Uiso   1.00
H1588  H     0.92143   0.81995   0.98831   0.00000  Uiso   1.00
C1589  C     0.73500   0.58465   0.71382   0.00000  Uiso   1.00
C1590  C     0.68641   0.59552   0.71155   0.00000  Uiso   1.00
H1591  H     0.66737   0.56558   0.72216   0.00000  Uiso   1.00
H1592  H     0.67889   0.62491   0.73349   0.00000  Uiso   1.00
H1593  H     0.67607   0.60466   0.67734   0.00000  Uiso   1.00
H1594  H     0.74654   0.58377   0.74802   0.00000  Uiso   1.00
H1595  H     0.75274   0.61415   0.70063   0.00000  Uiso   1.00
C1596  C     0.77974   0.91853   0.95535   0.00000  Uiso   1.00
C1597  C     0.74877   0.88772   0.92916   0.00000  Uiso   1.00
H1598  H     0.75151   0.89260   0.89326   0.00000  Uiso   1.00
H1599  H     0.75725   0.85114   0.93514   0.00000  Uiso   1.00
H1600  H     0.71464   0.89353   0.93885   0.00000  Uiso   1.00
H1601  H     0.80906   0.92846   0.93794   0.00000  Uiso   1.00
H1602  H     0.79662   0.89645   0.97984   0.00000  Uiso   1.00
C1603  C     0.75897   0.91422   0.71644   0.00000  Uiso   1.00
C1604  C     0.73008   0.87526   0.69994   0.00000  Uiso   1.00
H1605  H     0.72072   0.85326   0.72820   0.00000  Uiso   1.00
H1606  H     0.70032   0.88877   0.68326   0.00000  Uiso   1.00
H1607  H     0.74776   0.85181   0.67777   0.00000  Uiso   1.00
H1608  H     0.79335   0.90271   0.71832   0.00000  Uiso   1.00
H1609  H     0.74939   0.91867   0.75028   0.00000  Uiso   1.00
C1610  C     0.75548   0.58552   0.95252   0.00000  Uiso   1.00
C1611  C     0.80268   0.60026   0.95788   0.00000  Uiso   1.00
H1612  H     0.82488   0.57215   0.94785   0.00000  Uiso   1.00
H1613  H     0.80855   0.63063   0.93670   0.00000  Uiso   1.00
H1614  H     0.81080   0.60922   0.99256   0.00000  Uiso   1.00
H1615  H     0.74854   0.58349   0.91737   0.00000  Uiso   1.00
H1616  H     0.73326   0.61305   0.96363   0.00000  Uiso   1.00
F1617  F     0.86879   0.69876   0.77601   0.00000  Uiso   1.00
F1618  F     0.57537   0.86512   0.90935   0.00000  Uiso   1.00
F1619  F     0.61120   0.82540   0.75894   0.00000  Uiso   1.00
F1620  F     0.94495   0.61334   0.88956   0.00000  Uiso   1.00
F1621  F     0.63763   0.70722   0.87626   0.00000  Uiso   1.00
F1622  F     0.96001   0.90204   0.82665   0.00000  Uiso   1.00
F1623  F     0.85493   0.78318   0.83693   0.00000  Uiso   1.00
F1624  F     0.54715   0.60624   0.79193   0.00000  Uiso   1.00
F1625  F     0.65982   0.89900   0.75435   0.00000  Uiso   1.00
F1626  F     0.88190   0.55034   0.88913   0.00000  Uiso   1.00
F1627  F     0.80452   0.63669   0.77711   0.00000  Uiso   1.00
F1628  F     0.63644   0.92891   0.90889   0.00000  Uiso   1.00
F1629  F     0.78997   0.84746   0.83558   0.00000  Uiso   1.00
F1630  F     0.61236   0.54277   0.79057   0.00000  Uiso   1.00
F1631  F     0.70282   0.64376   0.87491   0.00000  Uiso   1.00
F1632  F     0.89511   0.96664   0.82833   0.00000  Uiso   1.00
loop_
_geom_bond_atom_site_label_1
_geom_bond_atom_site_label_2
_geom_bond_distance
_geom_bond_site_symmetry_2
_ccdc_geom_bond_type
C1     O48     1.295   .     A
C1     O45     1.297   .     A
C1     C36     1.401   .     S
C2     C35     1.399   .     S
C2     O46     1.295   .     A
C2     O47     1.297   .     A
C3     O49     1.302   .     A
C3     C34     1.421   .     S
C3     O52     1.301   .     A
C4     O51     1.303   .     A
C4     C33     1.422   .     S
C4     O50     1.300   .     A
C5     O56     1.294   .     A
C5     O53     1.298   .     A
C5     C40     1.401   .     S
C6     O55     1.296   .     A
C6     O54     1.297   .     A
C6     C39     1.401   .     S
C7     O60     1.302   .     A
C7     C38     1.426   .     S
C7     O57     1.303   .     A
C8     O59     1.299   .     A
C8     O58     1.302   .     A
C8     C37     1.420   .     S
C9     C65     1.514   .     S
C9     C1100   1.434   1_554 S
C9     N178    1.375   .     S
C10    N41     1.391   .     A
C10    C72     1.513   .     S
C10    C555    1.434   .     S
C11    N42     1.373   .     A
C11    C79     1.513   .     S
C11    C1098   1.434   1_554 S
C12    C86     1.515   .     S
C12    C553    1.434   .     S
C12    N177    1.391   .     S
C13    C93     1.517   .     S
C13    N44     1.383   .     A
C13    C1104   1.441   1_554 S
C14    C100    1.527   .     S
C14    C559    1.444   .     S
C14    N315    1.394   .     S
C15    C107    1.533   .     S
C15    C1102   1.444   1_554 S
C15    N316    1.383   .     S
C16    N43     1.381   .     A
C16    C114    1.519   .     S
C16    C557    1.441   .     S
C17    C27     1.377   .     A
C17    F121    1.359   .     S
C17    C34     1.397   .     A
C18    C33     1.404   .     A
C18    C28     1.372   .     A
C18    F122    1.359   .     S
C19    F123    1.357   .     S
C19    C33     1.397   .     A
C19    C25     1.361   .     A
C20    C34     1.399   .     A
C20    C26     1.375   .     A
C20    F124    1.355   .     S
C21    C36     1.394   .     A
C21    C31     1.372   .     A
C21    F125    1.359   .     S
C22    C35     1.394   .     A
C22    C32     1.376   .     A
C22    F126    1.359   .     S
C23    C29     1.375   .     A
C23    C35     1.393   .     A
C23    F127    1.359   .     S
C24    C36     1.396   .     A
C24    C30     1.372   .     A
C24    F128    1.358   .     S
C25    F129    1.351   .     S
C25    C38     1.397   .     A
C26    F130    1.359   .     S
C26    C37     1.396   .     A
C27    F131    1.357   .     S
C27    C37     1.399   .     A
C28    F132    1.359   .     S
C28    C38     1.402   .     A
C29    F133    1.358   .     S
C29    C40     1.395   .     A
C30    F134    1.359   .     S
C30    C39     1.394   .     A
C31    C39     1.396   .     A
C31    F135    1.358   .     S
C32    F136    1.359   .     S
C32    C40     1.395   .     A
N41    Zn61    2.056   .     S
N41    C148    1.391   1_455 S
N42    Zn62    2.056   .     S
N42    C145    1.375   1_455 S
N43    Zn63    2.056   .     S
N43    C286    1.394   1_545 S
N44    Zn64    2.056   .     S
N44    C287    1.383   1_545 S
O45    Zn61    1.978   .     S
O46    Zn198   1.978   .     S
O47    Zn197   1.969   .     S
O48    Zn62    1.969   .     S
O49    Zn198   2.002   .     S
O50    Zn61    2.002   .     S
O51    Zn62    1.996   .     S
O52    Zn197   1.996   .     S
O53    Zn335   1.978   .     S
O54    Zn64    1.978   .     S
O55    Zn63    1.969   .     S
O56    Zn336   1.969   .     S
O57    Zn336   2.002   .     S
O58    Zn63    2.002   .     S
O59    Zn64    1.996   .     S
O60    Zn335   1.996   .     S
Zn61   O188    1.996   1_455 S
Zn61   O183    1.969   1_455 S
Zn62   O185    2.002   1_455 S
Zn62   O182    1.978   1_455 S
Zn63   O332    1.996   1_545 S
Zn63   O325    1.978   1_545 S
Zn64   O329    2.002   1_545 S
Zn64   O328    1.969   1_545 S
C65    H71     1.091   .     S
C65    H70     1.108   .     S
C65    C202    1.530   .     S
C66    H68     1.111   .     S
C66    H69     1.107   .     S
C66    C201    1.530   1_455 S
C66    H1155   1.106   1_554 S
H67    C610    1.106   .     S
C72    H78     1.111   .     S
C72    H77     1.104   .     S
C72    C73     1.528   .     S
C73    H74     1.104   .     S
C73    H75     1.110   .     S
C73    H76     1.108   .     S
C79    H84     1.107   .     S
C79    H85     1.089   .     S
C79    C216    1.528   1_455 S
C80    H82     1.111   .     S
C80    H81     1.110   .     S
C80    C215    1.528   .     S
C80    H1171   1.109   1_554 S
H83    C624    1.109   .     S
C86    H91     1.105   .     S
C86    C87     1.531   .     S
C86    H92     1.112   .     S
C87    H88     1.107   .     S
C87    H89     1.110   .     S
C87    H90     1.108   .     S
C93    C94     1.531   .     S
C93    H99     1.104   .     S
C93    H98     1.089   .     S
C94    H96     1.111   .     S
C94    H97     1.109   .     S
C94    H95     1.110   .     S
C100   H105    1.096   .     S
C100   H106    1.102   .     S
C100   C101    1.536   .     S
C101   H103    1.111   .     S
C101   H102    1.099   .     S
C101   H104    1.109   .     S
C107   H112    1.111   .     S
C107   H113    1.076   .     S
C107   C108    1.536   .     S
C108   H109    1.111   .     S
C108   H111    1.105   .     S
C108   H110    1.110   .     S
C114   C115    1.532   .     S
C114   H119    1.083   .     S
C114   H120    1.107   .     S
C115   H116    1.109   .     S
C115   H117    1.111   .     S
C115   H118    1.108   .     S
C137   O184    1.295   .     A
C137   O181    1.297   .     A
C137   C172    1.401   .     S
C138   C171    1.399   .     S
C138   O182    1.295   .     A
C138   O183    1.297   .     A
C139   O185    1.302   .     A
C139   C170    1.421   .     S
C139   O188    1.301   .     A
C140   O187    1.303   .     A
C140   C169    1.422   .     S
C140   O186    1.300   .     A
C141   O192    1.294   .     A
C141   O189    1.298   .     A
C141   C176    1.401   .     S
C142   O191    1.296   .     A
C142   O190    1.297   .     A
C142   C175    1.401   .     S
C143   O196    1.302   .     A
C143   C174    1.426   .     S
C143   O193    1.303   .     A
C144   O195    1.299   .     A
C144   O194    1.302   .     A
C144   C173    1.420   .     S
C145   C201    1.514   .     S
C145   C1236   1.434   1_554 S
C145   N42     1.375   1_655 S
C146   N177    1.391   .     A
C146   C208    1.513   .     S
C146   C691    1.434   .     S
C147   N178    1.373   .     A
C147   C215    1.513   .     S
C147   C1234   1.434   1_554 S
C148   C222    1.515   .     S
C148   C689    1.434   .     S
C148   N41     1.391   1_655 S
C149   C229    1.517   .     S
C149   N180    1.383   .     A
C149   C1240   1.441   1_554 S
C150   C236    1.527   .     S
C150   C695    1.444   .     S
C150   N451    1.394   .     S
C151   C243    1.533   .     S
C151   C1238   1.444   1_554 S
C151   N452    1.383   .     S
C152   N179    1.381   .     A
C152   C250    1.519   .     S
C152   C693    1.441   .     S
C153   C163    1.377   .     A
C153   F257    1.359   .     S
C153   C170    1.397   .     A
C154   C169    1.404   .     A
C154   C164    1.372   .     A
C154   F258    1.359   .     S
C155   F259    1.357   .     S
C155   C169    1.397   .     A
C155   C161    1.361   .     A
C156   C170    1.399   .     A
C156   C162    1.375   .     A
C156   F260    1.355   .     S
C157   C172    1.394   .     A
C157   C167    1.372   .     A
C157   F261    1.359   .     S
C158   C171    1.394   .     A
C158   C168    1.376   .     A
C158   F262    1.359   .     S
C159   C165    1.375   .     A
C159   C171    1.393   .     A
C159   F263    1.359   .     S
C160   C172    1.396   .     A
C160   C166    1.372   .     A
C160   F264    1.358   .     S
C161   F265    1.351   .     S
C161   C174    1.397   .     A
C162   F266    1.359   .     S
C162   C173    1.396   .     A
C163   F267    1.357   .     S
C163   C173    1.399   .     A
C164   F268    1.359   .     S
C164   C174    1.402   .     A
C165   F269    1.358   .     S
C165   C176    1.395   .     A
C166   F270    1.359   .     S
C166   C175    1.394   .     A
C167   C175    1.396   .     A
C167   F271    1.358   .     S
C168   F272    1.359   .     S
C168   C176    1.395   .     A
N177   Zn197   2.056   .     S
N178   Zn198   2.056   .     S
N179   Zn199   2.056   .     S
N179   C422    1.394   1_545 S
N180   Zn200   2.056   .     S
N180   C423    1.383   1_545 S
O181   Zn197   1.978   .     S
O182   Zn62    1.978   1_655 S
O183   Zn61    1.969   1_655 S
O184   Zn198   1.969   .     S
O185   Zn62    2.002   1_655 S
O186   Zn197   2.002   .     S
O187   Zn198   1.996   .     S
O188   Zn61    1.996   1_655 S
O189   Zn471   1.978   .     S
O190   Zn200   1.978   .     S
O191   Zn199   1.969   .     S
O192   Zn472   1.969   .     S
O193   Zn472   2.002   .     S
O194   Zn199   2.002   .     S
O195   Zn200   1.996   .     S
O196   Zn471   1.996   .     S
Zn199  O468    1.996   1_545 S
Zn199  O461    1.978   1_545 S
Zn200  O465    2.002   1_545 S
Zn200  O464    1.969   1_545 S
C201   H207    1.091   .     S
C201   H206    1.108   .     S
C201   C66     1.530   1_655 S
C202   H204    1.111   .     S
C202   H205    1.107   .     S
C202   H1291   1.106   1_554 S
H203   C746    1.106   .     S
C208   H214    1.111   .     S
C208   H213    1.104   .     S
C208   C209    1.528   .     S
C209   H210    1.104   .     S
C209   H211    1.110   .     S
C209   H212    1.108   .     S
C215   H220    1.107   .     S
C215   H221    1.089   .     S
C216   H218    1.111   .     S
C216   H217    1.110   .     S
C216   C79     1.528   1_655 S
C216   H1307   1.109   1_554 S
H219   C760    1.109   .     S
C222   H227    1.105   .     S
C222   C223    1.531   .     S
C222   H228    1.112   .     S
C223   H224    1.107   .     S
C223   H225    1.110   .     S
C223   H226    1.108   .     S
C229   C230    1.531   .     S
C229   H235    1.104   .     S
C229   H234    1.089   .     S
C230   H232    1.111   .     S
C230   H233    1.109   .     S
C230   H231    1.110   .     S
C236   H241    1.096   .     S
C236   H242    1.102   .     S
C236   C237    1.536   .     S
C237   H239    1.111   .     S
C237   H238    1.099   .     S
C237   H240    1.109   .     S
C243   H248    1.111   .     S
C243   H249    1.076   .     S
C243   C244    1.536   .     S
C244   H245    1.111   .     S
C244   H247    1.105   .     S
C244   H246    1.110   .     S
C250   C251    1.532   .     S
C250   H255    1.083   .     S
C250   H256    1.107   .     S
C251   H252    1.109   .     S
C251   H253    1.111   .     S
C251   H254    1.108   .     S
C273   O320    1.295   .     A
C273   O317    1.297   .     A
C273   C308    1.401   .     S
C274   C307    1.399   .     S
C274   O318    1.295   .     A
C274   O319    1.297   .     A
C275   O321    1.302   .     A
C275   C306    1.421   .     S
C275   O324    1.301   .     A
C276   O323    1.303   .     A
C276   C305    1.422   .     S
C276   O322    1.300   .     A
C277   O328    1.294   .     A
C277   O325    1.298   .     A
C277   C312    1.401   .     S
C278   O327    1.296   .     A
C278   O326    1.297   .     A
C278   C311    1.401   .     S
C279   O332    1.302   .     A
C279   C310    1.426   .     S
C279   O329    1.303   .     A
C280   O331    1.299   .     A
C280   O330    1.302   .     A
C280   C309    1.420   .     S
C281   C337    1.514   .     S
C281   C1372   1.434   1_554 S
C281   N450    1.375   .     S
C282   N313    1.391   .     A
C282   C344    1.513   .     S
C282   C827    1.434   .     S
C283   N314    1.373   .     A
C283   C351    1.513   .     S
C283   C1370   1.434   1_554 S
C284   C358    1.515   .     S
C284   C825    1.434   .     S
C284   N449    1.391   .     S
C285   C365    1.517   .     S
C285   N316    1.383   .     A
C285   C1376   1.441   1_554 S
C286   C372    1.527   .     S
C286   C831    1.444   .     S
C286   N43     1.394   1_565 S
C287   C379    1.533   .     S
C287   C1374   1.444   1_554 S
C287   N44     1.383   1_565 S
C288   N315    1.381   .     A
C288   C386    1.519   .     S
C288   C829    1.441   .     S
C289   C299    1.377   .     A
C289   F393    1.359   .     S
C289   C306    1.397   .     A
C290   C305    1.404   .     A
C290   C300    1.372   .     A
C290   F394    1.359   .     S
C291   F395    1.357   .     S
C291   C305    1.397   .     A
C291   C297    1.361   .     A
C292   C306    1.399   .     A
C292   C298    1.375   .     A
C292   F396    1.355   .     S
C293   C308    1.394   .     A
C293   C303    1.372   .     A
C293   F397    1.359   .     S
C294   C307    1.394   .     A
C294   C304    1.376   .     A
C294   F398    1.359   .     S
C295   C301    1.375   .     A
C295   C307    1.393   .     A
C295   F399    1.359   .     S
C296   C308    1.396   .     A
C296   C302    1.372   .     A
C296   F400    1.358   .     S
C297   F401    1.351   .     S
C297   C310    1.397   .     A
C298   F402    1.359   .     S
C298   C309    1.396   .     A
C299   F403    1.357   .     S
C299   C309    1.399   .     A
C300   F404    1.359   .     S
C300   C310    1.402   .     A
C301   F405    1.358   .     S
C301   C312    1.395   .     A
C302   F406    1.359   .     S
C302   C311    1.394   .     A
C303   C311    1.396   .     A
C303   F407    1.358   .     S
C304   F408    1.359   .     S
C304   C312    1.395   .     A
N313   Zn333   2.056   .     S
N313   C420    1.391   1_455 S
N314   Zn334   2.056   .     S
N314   C417    1.375   1_455 S
N315   Zn335   2.056   .     S
N316   Zn336   2.056   .     S
O317   Zn333   1.978   .     S
O318   Zn470   1.978   .     S
O319   Zn469   1.969   .     S
O320   Zn334   1.969   .     S
O321   Zn470   2.002   .     S
O322   Zn333   2.002   .     S
O323   Zn334   1.996   .     S
O324   Zn469   1.996   .     S
O325   Zn63    1.978   1_565 S
O326   Zn336   1.978   .     S
O327   Zn335   1.969   .     S
O328   Zn64    1.969   1_565 S
O329   Zn64    2.002   1_565 S
O330   Zn335   2.002   .     S
O331   Zn336   1.996   .     S
O332   Zn63    1.996   1_565 S
Zn333  O460    1.996   1_455 S
Zn333  O455    1.969   1_455 S
Zn334  O457    2.002   1_455 S
Zn334  O454    1.978   1_455 S
C337   H343    1.091   .     S
C337   H342    1.108   .     S
C337   C474    1.530   .     S
C338   H340    1.111   .     S
C338   H341    1.107   .     S
C338   C473    1.530   1_455 S
C338   H1427   1.106   1_554 S
H339   C882    1.106   .     S
C344   H350    1.111   .     S
C344   H349    1.104   .     S
C344   C345    1.528   .     S
C345   H346    1.104   .     S
C345   H347    1.110   .     S
C345   H348    1.108   .     S
C351   H356    1.107   .     S
C351   H357    1.089   .     S
C351   C488    1.528   1_455 S
C352   H354    1.111   .     S
C352   H353    1.110   .     S
C352   C487    1.528   .     S
C352   H1443   1.109   1_554 S
H355   C896    1.109   .     S
C358   H363    1.105   .     S
C358   C359    1.531   .     S
C358   H364    1.112   .     S
C359   H360    1.107   .     S
C359   H361    1.110   .     S
C359   H362    1.108   .     S
C365   C366    1.531   .     S
C365   H371    1.104   .     S
C365   H370    1.089   .     S
C366   H368    1.111   .     S
C366   H369    1.109   .     S
C366   H367    1.110   .     S
C372   H377    1.096   .     S
C372   H378    1.102   .     S
C372   C373    1.536   .     S
C373   H375    1.111   .     S
C373   H374    1.099   .     S
C373   H376    1.109   .     S
C379   H384    1.111   .     S
C379   H385    1.076   .     S
C379   C380    1.536   .     S
C380   H381    1.111   .     S
C380   H383    1.105   .     S
C380   H382    1.110   .     S
C386   C387    1.532   .     S
C386   H391    1.083   .     S
C386   H392    1.107   .     S
C387   H388    1.109   .     S
C387   H389    1.111   .     S
C387   H390    1.108   .     S
C409   O456    1.295   .     A
C409   O453    1.297   .     A
C409   C444    1.401   .     S
C410   C443    1.399   .     S
C410   O454    1.295   .     A
C410   O455    1.297   .     A
C411   O457    1.302   .     A
C411   C442    1.421   .     S
C411   O460    1.301   .     A
C412   O459    1.303   .     A
C412   C441    1.422   .     S
C412   O458    1.300   .     A
C413   O464    1.294   .     A
C413   O461    1.298   .     A
C413   C448    1.401   .     S
C414   O463    1.296   .     A
C414   O462    1.297   .     A
C414   C447    1.401   .     S
C415   O468    1.302   .     A
C415   C446    1.426   .     S
C415   O465    1.303   .     A
C416   O467    1.299   .     A
C416   O466    1.302   .     A
C416   C445    1.420   .     S
C417   C473    1.514   .     S
C417   C1508   1.434   1_554 S
C417   N314    1.375   1_655 S
C418   N449    1.391   .     A
C418   C480    1.513   .     S
C418   C963    1.434   .     S
C419   N450    1.373   .     A
C419   C487    1.513   .     S
C419   C1506   1.434   1_554 S
C420   C494    1.515   .     S
C420   C961    1.434   .     S
C420   N313    1.391   1_655 S
C421   C501    1.517   .     S
C421   N452    1.383   .     A
C421   C1512   1.441   1_554 S
C422   C508    1.527   .     S
C422   C967    1.444   .     S
C422   N179    1.394   1_565 S
C423   C515    1.533   .     S
C423   C1510   1.444   1_554 S
C423   N180    1.383   1_565 S
C424   N451    1.381   .     A
C424   C522    1.519   .     S
C424   C965    1.441   .     S
C425   C435    1.377   .     A
C425   F529    1.359   .     S
C425   C442    1.397   .     A
C426   C441    1.404   .     A
C426   C436    1.372   .     A
C426   F530    1.359   .     S
C427   F531    1.357   .     S
C427   C441    1.397   .     A
C427   C433    1.361   .     A
C428   C442    1.399   .     A
C428   C434    1.375   .     A
C428   F532    1.355   .     S
C429   C444    1.394   .     A
C429   C439    1.372   .     A
C429   F533    1.359   .     S
C430   C443    1.394   .     A
C430   C440    1.376   .     A
C430   F534    1.359   .     S
C431   C437    1.375   .     A
C431   C443    1.393   .     A
C431   F535    1.359   .     S
C432   C444    1.396   .     A
C432   C438    1.372   .     A
C432   F536    1.358   .     S
C433   F537    1.351   .     S
C433   C446    1.397   .     A
C434   F538    1.359   .     S
C434   C445    1.396   .     A
C435   F539    1.357   .     S
C435   C445    1.399   .     A
C436   F540    1.359   .     S
C436   C446    1.402   .     A
C437   F541    1.358   .     S
C437   C448    1.395   .     A
C438   F542    1.359   .     S
C438   C447    1.394   .     A
C439   C447    1.396   .     A
C439   F543    1.358   .     S
C440   F544    1.359   .     S
C440   C448    1.395   .     A
N449   Zn469   2.056   .     S
N450   Zn470   2.056   .     S
N451   Zn471   2.056   .     S
N452   Zn472   2.056   .     S
O453   Zn469   1.978   .     S
O454   Zn334   1.978   1_655 S
O455   Zn333   1.969   1_655 S
O456   Zn470   1.969   .     S
O457   Zn334   2.002   1_655 S
O458   Zn469   2.002   .     S
O459   Zn470   1.996   .     S
O460   Zn333   1.996   1_655 S
O461   Zn199   1.978   1_565 S
O462   Zn472   1.978   .     S
O463   Zn471   1.969   .     S
O464   Zn200   1.969   1_565 S
O465   Zn200   2.002   1_565 S
O466   Zn471   2.002   .     S
O467   Zn472   1.996   .     S
O468   Zn199   1.996   1_565 S
C473   H479    1.091   .     S
C473   H478    1.108   .     S
C473   C338    1.530   1_655 S
C474   H476    1.111   .     S
C474   H477    1.107   .     S
C474   H1563   1.106   1_554 S
H475   C1018   1.106   .     S
C480   H486    1.111   .     S
C480   H485    1.104   .     S
C480   C481    1.528   .     S
C481   H482    1.104   .     S
C481   H483    1.110   .     S
C481   H484    1.108   .     S
C487   H492    1.107   .     S
C487   H493    1.089   .     S
C488   H490    1.111   .     S
C488   H489    1.110   .     S
C488   C351    1.528   1_655 S
C488   H1579   1.109   1_554 S
H491   C1032   1.109   .     S
C494   H499    1.105   .     S
C494   C495    1.531   .     S
C494   H500    1.112   .     S
C495   H496    1.107   .     S
C495   H497    1.110   .     S
C495   H498    1.108   .     S
C501   C502    1.531   .     S
C501   H507    1.104   .     S
C501   H506    1.089   .     S
C502   H504    1.111   .     S
C502   H505    1.109   .     S
C502   H503    1.110   .     S
C508   H513    1.096   .     S
C508   H514    1.102   .     S
C508   C509    1.536   .     S
C509   H511    1.111   .     S
C509   H510    1.099   .     S
C509   H512    1.109   .     S
C515   H520    1.111   .     S
C515   H521    1.076   .     S
C515   C516    1.536   .     S
C516   H517    1.111   .     S
C516   H519    1.105   .     S
C516   H518    1.110   .     S
C522   C523    1.532   .     S
C522   H527    1.083   .     S
C522   H528    1.107   .     S
C523   H524    1.109   .     S
C523   H525    1.111   .     S
C523   H526    1.108   .     S
C545   O592    1.295   .     A
C545   O589    1.297   .     A
C545   C580    1.401   .     S
C546   C579    1.399   .     S
C546   O590    1.295   .     A
C546   O591    1.297   .     A
C547   O593    1.302   .     A
C547   C578    1.421   .     S
C547   O596    1.301   .     A
C548   O595    1.303   .     A
C548   C577    1.422   .     S
C548   O594    1.300   .     A
C549   O600    1.294   .     A
C549   O597    1.298   .     A
C549   C584    1.401   .     S
C550   O599    1.296   .     A
C550   O598    1.297   .     A
C550   C583    1.401   .     S
C551   O604    1.302   .     A
C551   C582    1.426   .     S
C551   O601    1.303   .     A
C552   O603    1.299   .     A
C552   O602    1.302   .     A
C552   C581    1.420   .     S
C553   C609    1.514   .     S
C553   N722    1.375   .     S
C554   N585    1.391   .     A
C554   C616    1.513   .     S
C554   C1099   1.434   .     S
C555   N586    1.373   .     A
C555   C623    1.513   .     S
C556   C630    1.515   .     S
C556   C1097   1.434   .     S
C556   N721    1.391   .     S
C557   C637    1.517   .     S
C557   N588    1.383   .     A
C558   C644    1.527   .     S
C558   C1103   1.444   .     S
C558   N859    1.394   .     S
C559   C651    1.533   .     S
C559   N860    1.383   .     S
C560   N587    1.381   .     A
C560   C658    1.519   .     S
C560   C1101   1.441   .     S
C561   C571    1.377   .     A
C561   F665    1.359   .     S
C561   C578    1.397   .     A
C562   C577    1.404   .     A
C562   C572    1.372   .     A
C562   F666    1.359   .     S
C563   F667    1.357   .     S
C563   C577    1.397   .     A
C563   C569    1.361   .     A
C564   C578    1.399   .     A
C564   C570    1.375   .     A
C564   F668    1.355   .     S
C565   C580    1.394   .     A
C565   C575    1.372   .     A
C565   F669    1.359   .     S
C566   C579    1.394   .     A
C566   C576    1.376   .     A
C566   F670    1.359   .     S
C567   C573    1.375   .     A
C567   C579    1.393   .     A
C567   F671    1.359   .     S
C568   C580    1.396   .     A
C568   C574    1.372   .     A
C568   F672    1.358   .     S
C569   F673    1.351   .     S
C569   C582    1.397   .     A
C570   F674    1.359   .     S
C570   C581    1.396   .     A
C571   F675    1.357   .     S
C571   C581    1.399   .     A
C572   F676    1.359   .     S
C572   C582    1.402   .     A
C573   F677    1.358   .     S
C573   C584    1.395   .     A
C574   F678    1.359   .     S
C574   C583    1.394   .     A
C575   C583    1.396   .     A
C575   F679    1.358   .     S
C576   F680    1.359   .     S
C576   C584    1.395   .     A
N585   Zn605   2.056   .     S
N585   C692    1.391   1_455 S
N586   Zn606   2.056   .     S
N586   C689    1.375   1_455 S
N587   Zn607   2.056   .     S
N587   C830    1.394   1_545 S
N588   Zn608   2.056   .     S
N588   C831    1.383   1_545 S
O589   Zn605   1.978   .     S
O590   Zn742   1.978   .     S
O591   Zn741   1.969   .     S
O592   Zn606   1.969   .     S
O593   Zn742   2.002   .     S
O594   Zn605   2.002   .     S
O595   Zn606   1.996   .     S
O596   Zn741   1.996   .     S
O597   Zn879   1.978   .     S
O598   Zn608   1.978   .     S
O599   Zn607   1.969   .     S
O600   Zn880   1.969   .     S
O601   Zn880   2.002   .     S
O602   Zn607   2.002   .     S
O603   Zn608   1.996   .     S
O604   Zn879   1.996   .     S
Zn605  O732    1.996   1_455 S
Zn605  O727    1.969   1_455 S
Zn606  O729    2.002   1_455 S
Zn606  O726    1.978   1_455 S
Zn607  O876    1.996   1_545 S
Zn607  O869    1.978   1_545 S
Zn608  O873    2.002   1_545 S
Zn608  O872    1.969   1_545 S
C609   H615    1.091   .     S
C609   H614    1.108   .     S
C609   C746    1.530   .     S
C610   H612    1.111   .     S
C610   H613    1.107   .     S
C610   C745    1.530   1_455 S
H611   C1154   1.106   .     S
C616   H622    1.111   .     S
C616   H621    1.104   .     S
C616   C617    1.528   .     S
C617   H618    1.104   .     S
C617   H619    1.110   .     S
C617   H620    1.108   .     S
C623   H628    1.107   .     S
C623   H629    1.089   .     S
C623   C760    1.528   1_455 S
C624   H626    1.111   .     S
C624   H625    1.110   .     S
C624   C759    1.528   .     S
H627   C1168   1.109   .     S
C630   H635    1.105   .     S
C630   C631    1.531   .     S
C630   H636    1.112   .     S
C631   H632    1.107   .     S
C631   H633    1.110   .     S
C631   H634    1.108   .     S
C637   C638    1.531   .     S
C637   H643    1.104   .     S
C637   H642    1.089   .     S
C638   H640    1.111   .     S
C638   H641    1.109   .     S
C638   H639    1.110   .     S
C644   H649    1.096   .     S
C644   H650    1.102   .     S
C644   C645    1.536   .     S
C645   H647    1.111   .     S
C645   H646    1.099   .     S
C645   H648    1.109   .     S
C651   H656    1.111   .     S
C651   H657    1.076   .     S
C651   C652    1.536   .     S
C652   H653    1.111   .     S
C652   H655    1.105   .     S
C652   H654    1.110   .     S
C658   C659    1.532   .     S
C658   H663    1.083   .     S
C658   H664    1.107   .     S
C659   H660    1.109   .     S
C659   H661    1.111   .     S
C659   H662    1.108   .     S
C681   O728    1.295   .     A
C681   O725    1.297   .     A
C681   C716    1.401   .     S
C682   C715    1.399   .     S
C682   O726    1.295   .     A
C682   O727    1.297   .     A
C683   O729    1.302   .     A
C683   C714    1.421   .     S
C683   O732    1.301   .     A
C684   O731    1.303   .     A
C684   C713    1.422   .     S
C684   O730    1.300   .     A
C685   O736    1.294   .     A
C685   O733    1.298   .     A
C685   C720    1.401   .     S
C686   O735    1.296   .     A
C686   O734    1.297   .     A
C686   C719    1.401   .     S
C687   O740    1.302   .     A
C687   C718    1.426   .     S
C687   O737    1.303   .     A
C688   O739    1.299   .     A
C688   O738    1.302   .     A
C688   C717    1.420   .     S
C689   C745    1.514   .     S
C689   N586    1.375   1_655 S
C690   N721    1.391   .     A
C690   C752    1.513   .     S
C690   C1235   1.434   .     S
C691   N722    1.373   .     A
C691   C759    1.513   .     S
C692   C766    1.515   .     S
C692   C1233   1.434   .     S
C692   N585    1.391   1_655 S
C693   C773    1.517   .     S
C693   N724    1.383   .     A
C694   C780    1.527   .     S
C694   C1239   1.444   .     S
C694   N995    1.394   .     S
C695   C787    1.533   .     S
C695   N996    1.383   .     S
C696   N723    1.381   .     A
C696   C794    1.519   .     S
C696   C1237   1.441   .     S
C697   C707    1.377   .     A
C697   F801    1.359   .     S
C697   C714    1.397   .     A
C698   C713    1.404   .     A
C698   C708    1.372   .     A
C698   F802    1.359   .     S
C699   F803    1.357   .     S
C699   C713    1.397   .     A
C699   C705    1.361   .     A
C700   C714    1.399   .     A
C700   C706    1.375   .     A
C700   F804    1.355   .     S
C701   C716    1.394   .     A
C701   C711    1.372   .     A
C701   F805    1.359   .     S
C702   C715    1.394   .     A
C702   C712    1.376   .     A
C702   F806    1.359   .     S
C703   C709    1.375   .     A
C703   C715    1.393   .     A
C703   F807    1.359   .     S
C704   C716    1.396   .     A
C704   C710    1.372   .     A
C704   F808    1.358   .     S
C705   F809    1.351   .     S
C705   C718    1.397   .     A
C706   F810    1.359   .     S
C706   C717    1.396   .     A
C707   F811    1.357   .     S
C707   C717    1.399   .     A
C708   F812    1.359   .     S
C708   C718    1.402   .     A
C709   F813    1.358   .     S
C709   C720    1.395   .     A
C710   F814    1.359   .     S
C710   C719    1.394   .     A
C711   C719    1.396   .     A
C711   F815    1.358   .     S
C712   F816    1.359   .     S
C712   C720    1.395   .     A
N721   Zn741   2.056   .     S
N722   Zn742   2.056   .     S
N723   Zn743   2.056   .     S
N723   C966    1.394   1_545 S
N724   Zn744   2.056   .     S
N724   C967    1.383   1_545 S
O725   Zn741   1.978   .     S
O726   Zn606   1.978   1_655 S
O727   Zn605   1.969   1_655 S
O728   Zn742   1.969   .     S
O729   Zn606   2.002   1_655 S
O730   Zn741   2.002   .     S
O731   Zn742   1.996   .     S
O732   Zn605   1.996   1_655 S
O733   Zn1015  1.978   .     S
O734   Zn744   1.978   .     S
O735   Zn743   1.969   .     S
O736   Zn1016  1.969   .     S
O737   Zn1016  2.002   .     S
O738   Zn743   2.002   .     S
O739   Zn744   1.996   .     S
O740   Zn1015  1.996   .     S
Zn743  O1012   1.996   1_545 S
Zn743  O1005   1.978   1_545 S
Zn744  O1009   2.002   1_545 S
Zn744  O1008   1.969   1_545 S
C745   H751    1.091   .     S
C745   H750    1.108   .     S
C745   C610    1.530   1_655 S
C746   H748    1.111   .     S
C746   H749    1.107   .     S
H747   C1290   1.106   .     S
C752   H758    1.111   .     S
C752   H757    1.104   .     S
C752   C753    1.528   .     S
C753   H754    1.104   .     S
C753   H755    1.110   .     S
C753   H756    1.108   .     S
C759   H764    1.107   .     S
C759   H765    1.089   .     S
C760   H762    1.111   .     S
C760   H761    1.110   .     S
C760   C623    1.528   1_655 S
H763   C1304   1.109   .     S
C766   H771    1.105   .     S
C766   C767    1.531   .     S
C766   H772    1.112   .     S
C767   H768    1.107   .     S
C767   H769    1.110   .     S
C767   H770    1.108   .     S
C773   C774    1.531   .     S
C773   H779    1.104   .     S
C773   H778    1.089   .     S
C774   H776    1.111   .     S
C774   H777    1.109   .     S
C774   H775    1.110   .     S
C780   H785    1.096   .     S
C780   H786    1.102   .     S
C780   C781    1.536   .     S
C781   H783    1.111   .     S
C781   H782    1.099   .     S
C781   H784    1.109   .     S
C787   H792    1.111   .     S
C787   H793    1.076   .     S
C787   C788    1.536   .     S
C788   H789    1.111   .     S
C788   H791    1.105   .     S
C788   H790    1.110   .     S
C794   C795    1.532   .     S
C794   H799    1.083   .     S
C794   H800    1.107   .     S
C795   H796    1.109   .     S
C795   H797    1.111   .     S
C795   H798    1.108   .     S
C817   O864    1.295   .     A
C817   O861    1.297   .     A
C817   C852    1.401   .     S
C818   C851    1.399   .     S
C818   O862    1.295   .     A
C818   O863    1.297   .     A
C819   O865    1.302   .     A
C819   C850    1.421   .     S
C819   O868    1.301   .     A
C820   O867    1.303   .     A
C820   C849    1.422   .     S
C820   O866    1.300   .     A
C821   O872    1.294   .     A
C821   O869    1.298   .     A
C821   C856    1.401   .     S
C822   O871    1.296   .     A
C822   O870    1.297   .     A
C822   C855    1.401   .     S
C823   O876    1.302   .     A
C823   C854    1.426   .     S
C823   O873    1.303   .     A
C824   O875    1.299   .     A
C824   O874    1.302   .     A
C824   C853    1.420   .     S
C825   C881    1.514   .     S
C825   N994    1.375   .     S
C826   N857    1.391   .     A
C826   C888    1.513   .     S
C826   C1371   1.434   .     S
C827   N858    1.373   .     A
C827   C895    1.513   .     S
C828   C902    1.515   .     S
C828   C1369   1.434   .     S
C828   N993    1.391   .     S
C829   C909    1.517   .     S
C829   N860    1.383   .     A
C830   C916    1.527   .     S
C830   C1375   1.444   .     S
C830   N587    1.394   1_565 S
C831   C923    1.533   .     S
C831   N588    1.383   1_565 S
C832   N859    1.381   .     A
C832   C930    1.519   .     S
C832   C1373   1.441   .     S
C833   C843    1.377   .     A
C833   F937    1.359   .     S
C833   C850    1.397   .     A
C834   C849    1.404   .     A
C834   C844    1.372   .     A
C834   F938    1.359   .     S
C835   F939    1.357   .     S
C835   C849    1.397   .     A
C835   C841    1.361   .     A
C836   C850    1.399   .     A
C836   C842    1.375   .     A
C836   F940    1.355   .     S
C837   C852    1.394   .     A
C837   C847    1.372   .     A
C837   F941    1.359   .     S
C838   C851    1.394   .     A
C838   C848    1.376   .     A
C838   F942    1.359   .     S
C839   C845    1.375   .     A
C839   C851    1.393   .     A
C839   F943    1.359   .     S
C840   C852    1.396   .     A
C840   C846    1.372   .     A
C840   F944    1.358   .     S
C841   F945    1.351   .     S
C841   C854    1.397   .     A
C842   F946    1.359   .     S
C842   C853    1.396   .     A
C843   F947    1.357   .     S
C843   C853    1.399   .     A
C844   F948    1.359   .     S
C844   C854    1.402   .     A
C845   F949    1.358   .     S
C845   C856    1.395   .     A
C846   F950    1.359   .     S
C846   C855    1.394   .     A
C847   C855    1.396   .     A
C847   F951    1.358   .     S
C848   F952    1.359   .     S
C848   C856    1.395   .     A
N857   Zn877   2.056   .     S
N857   C964    1.391   1_455 S
N858   Zn878   2.056   .     S
N858   C961    1.375   1_455 S
N859   Zn879   2.056   .     S
N860   Zn880   2.056   .     S
O861   Zn877   1.978   .     S
O862   Zn1014  1.978   .     S
O863   Zn1013  1.969   .     S
O864   Zn878   1.969   .     S
O865   Zn1014  2.002   .     S
O866   Zn877   2.002   .     S
O867   Zn878   1.996   .     S
O868   Zn1013  1.996   .     S
O869   Zn607   1.978   1_565 S
O870   Zn880   1.978   .     S
O871   Zn879   1.969   .     S
O872   Zn608   1.969   1_565 S
O873   Zn608   2.002   1_565 S
O874   Zn879   2.002   .     S
O875   Zn880   1.996   .     S
O876   Zn607   1.996   1_565 S
Zn877  O1004   1.996   1_455 S
Zn877  O999    1.969   1_455 S
Zn878  O1001   2.002   1_455 S
Zn878  O998    1.978   1_455 S
C881   H887    1.091   .     S
C881   H886    1.108   .     S
C881   C1018   1.530   .     S
C882   H884    1.111   .     S
C882   H885    1.107   .     S
C882   C1017   1.530   1_455 S
H883   C1426   1.106   .     S
C888   H894    1.111   .     S
C888   H893    1.104   .     S
C888   C889    1.528   .     S
C889   H890    1.104   .     S
C889   H891    1.110   .     S
C889   H892    1.108   .     S
C895   H900    1.107   .     S
C895   H901    1.089   .     S
C895   C1032   1.528   1_455 S
C896   H898    1.111   .     S
C896   H897    1.110   .     S
C896   C1031   1.528   .     S
H899   C1440   1.109   .     S
C902   H907    1.105   .     S
C902   C903    1.531   .     S
C902   H908    1.112   .     S
C903   H904    1.107   .     S
C903   H905    1.110   .     S
C903   H906    1.108   .     S
C909   C910    1.531   .     S
C909   H915    1.104   .     S
C909   H914    1.089   .     S
C910   H912    1.111   .     S
C910   H913    1.109   .     S
C910   H911    1.110   .     S
C916   H921    1.096   .     S
C916   H922    1.102   .     S
C916   C917    1.536   .     S
C917   H919    1.111   .     S
C917   H918    1.099   .     S
C917   H920    1.109   .     S
C923   H928    1.111   .     S
C923   H929    1.076   .     S
C923   C924    1.536   .     S
C924   H925    1.111   .     S
C924   H927    1.105   .     S
C924   H926    1.110   .     S
C930   C931    1.532   .     S
C930   H935    1.083   .     S
C930   H936    1.107   .     S
C931   H932    1.109   .     S
C931   H933    1.111   .     S
C931   H934    1.108   .     S
C953   O1000   1.295   .     A
C953   O997    1.297   .     A
C953   C988    1.401   .     S
C954   C987    1.399   .     S
C954   O998    1.295   .     A
C954   O999    1.297   .     A
C955   O1001   1.302   .     A
C955   C986    1.421   .     S
C955   O1004   1.301   .     A
C956   O1003   1.303   .     A
C956   C985    1.422   .     S
C956   O1002   1.300   .     A
C957   O1008   1.294   .     A
C957   O1005   1.298   .     A
C957   C992    1.401   .     S
C958   O1007   1.296   .     A
C958   O1006   1.297   .     A
C958   C991    1.401   .     S
C959   O1012   1.302   .     A
C959   C990    1.426   .     S
C959   O1009   1.303   .     A
C960   O1011   1.299   .     A
C960   O1010   1.302   .     A
C960   C989    1.420   .     S
C961   C1017   1.514   .     S
C961   N858    1.375   1_655 S
C962   N993    1.391   .     A
C962   C1024   1.513   .     S
C962   C1507   1.434   .     S
C963   N994    1.373   .     A
C963   C1031   1.513   .     S
C964   C1038   1.515   .     S
C964   C1505   1.434   .     S
C964   N857    1.391   1_655 S
C965   C1045   1.517   .     S
C965   N996    1.383   .     A
C966   C1052   1.527   .     S
C966   C1511   1.444   .     S
C966   N723    1.394   1_565 S
C967   C1059   1.533   .     S
C967   N724    1.383   1_565 S
C968   N995    1.381   .     A
C968   C1066   1.519   .     S
C968   C1509   1.441   .     S
C969   C979    1.377   .     A
C969   F1073   1.359   .     S
C969   C986    1.397   .     A
C970   C985    1.404   .     A
C970   C980    1.372   .     A
C970   F1074   1.359   .     S
C971   F1075   1.357   .     S
C971   C985    1.397   .     A
C971   C977    1.361   .     A
C972   C986    1.399   .     A
C972   C978    1.375   .     A
C972   F1076   1.355   .     S
C973   C988    1.394   .     A
C973   C983    1.372   .     A
C973   F1077   1.359   .     S
C974   C987    1.394   .     A
C974   C984    1.376   .     A
C974   F1078   1.359   .     S
C975   C981    1.375   .     A
C975   C987    1.393   .     A
C975   F1079   1.359   .     S
C976   C988    1.396   .     A
C976   C982    1.372   .     A
C976   F1080   1.358   .     S
C977   F1081   1.351   .     S
C977   C990    1.397   .     A
C978   F1082   1.359   .     S
C978   C989    1.396   .     A
C979   F1083   1.357   .     S
C979   C989    1.399   .     A
C980   F1084   1.359   .     S
C980   C990    1.402   .     A
C981   F1085   1.358   .     S
C981   C992    1.395   .     A
C982   F1086   1.359   .     S
C982   C991    1.394   .     A
C983   C991    1.396   .     A
C983   F1087   1.358   .     S
C984   F1088   1.359   .     S
C984   C992    1.395   .     A
N993   Zn1013  2.056   .     S
N994   Zn1014  2.056   .     S
N995   Zn1015  2.056   .     S
N996   Zn1016  2.056   .     S
O997   Zn1013  1.978   .     S
O998   Zn878   1.978   1_655 S
O999   Zn877   1.969   1_655 S
O1000  Zn1014  1.969   .     S
O1001  Zn878   2.002   1_655 S
O1002  Zn1013  2.002   .     S
O1003  Zn1014  1.996   .     S
O1004  Zn877   1.996   1_655 S
O1005  Zn743   1.978   1_565 S
O1006  Zn1016  1.978   .     S
O1007  Zn1015  1.969   .     S
O1008  Zn744   1.969   1_565 S
O1009  Zn744   2.002   1_565 S
O1010  Zn1015  2.002   .     S
O1011  Zn1016  1.996   .     S
O1012  Zn743   1.996   1_565 S
C1017  H1023   1.091   .     S
C1017  H1022   1.108   .     S
C1017  C882    1.530   1_655 S
C1018  H1020   1.111   .     S
C1018  H1021   1.107   .     S
H1019  C1562   1.106   .     S
C1024  H1030   1.111   .     S
C1024  H1029   1.104   .     S
C1024  C1025   1.528   .     S
C1025  H1026   1.104   .     S
C1025  H1027   1.110   .     S
C1025  H1028   1.108   .     S
C1031  H1036   1.107   .     S
C1031  H1037   1.089   .     S
C1032  H1034   1.111   .     S
C1032  H1033   1.110   .     S
C1032  C895    1.528   1_655 S
H1035  C1576   1.109   .     S
C1038  H1043   1.105   .     S
C1038  C1039   1.531   .     S
C1038  H1044   1.112   .     S
C1039  H1040   1.107   .     S
C1039  H1041   1.110   .     S
C1039  H1042   1.108   .     S
C1045  C1046   1.531   .     S
C1045  H1051   1.104   .     S
C1045  H1050   1.089   .     S
C1046  H1048   1.111   .     S
C1046  H1049   1.109   .     S
C1046  H1047   1.110   .     S
C1052  H1057   1.096   .     S
C1052  H1058   1.102   .     S
C1052  C1053   1.536   .     S
C1053  H1055   1.111   .     S
C1053  H1054   1.099   .     S
C1053  H1056   1.109   .     S
C1059  H1064   1.111   .     S
C1059  H1065   1.076   .     S
C1059  C1060   1.536   .     S
C1060  H1061   1.111   .     S
C1060  H1063   1.105   .     S
C1060  H1062   1.110   .     S
C1066  C1067   1.532   .     S
C1066  H1071   1.083   .     S
C1066  H1072   1.107   .     S
C1067  H1068   1.109   .     S
C1067  H1069   1.111   .     S
C1067  H1070   1.108   .     S
C1089  O1136   1.295   .     A
C1089  O1133   1.297   .     A
C1089  C1124   1.401   .     S
C1090  C1123   1.399   .     S
C1090  O1134   1.295   .     A
C1090  O1135   1.297   .     A
C1091  O1137   1.302   .     A
C1091  C1122   1.421   .     S
C1091  O1140   1.301   .     A
C1092  O1139   1.303   .     A
C1092  C1121   1.422   .     S
C1092  O1138   1.300   .     A
C1093  O1144   1.294   .     A
C1093  O1141   1.298   .     A
C1093  C1128   1.401   .     S
C1094  O1143   1.296   .     A
C1094  O1142   1.297   .     A
C1094  C1127   1.401   .     S
C1095  O1148   1.302   .     A
C1095  C1126   1.426   .     S
C1095  O1145   1.303   .     A
C1096  O1147   1.299   .     A
C1096  O1146   1.302   .     A
C1096  C1125   1.420   .     S
C1097  C1153   1.514   .     S
C1097  N1266   1.375   .     S
C1098  N1129   1.391   .     A
C1098  C1160   1.513   .     S
C1098  C11     1.434   1_556 S
C1099  N1130   1.373   .     A
C1099  C1167   1.513   .     S
C1100  C1174   1.515   .     S
C1100  C9      1.434   1_556 S
C1100  N1265   1.391   .     S
C1101  C1181   1.517   .     S
C1101  N1132   1.383   .     A
C1102  C1188   1.527   .     S
C1102  C15     1.444   1_556 S
C1102  N1403   1.394   .     S
C1103  C1195   1.533   .     S
C1103  N1404   1.383   .     S
C1104  N1131   1.381   .     A
C1104  C1202   1.519   .     S
C1104  C13     1.441   1_556 S
C1105  C1115   1.377   .     A
C1105  F1209   1.359   .     S
C1105  C1122   1.397   .     A
C1106  C1121   1.404   .     A
C1106  C1116   1.372   .     A
C1106  F1210   1.359   .     S
C1107  F1211   1.357   .     S
C1107  C1121   1.397   .     A
C1107  C1113   1.361   .     A
C1108  C1122   1.399   .     A
C1108  C1114   1.375   .     A
C1108  F1212   1.355   .     S
C1109  C1124   1.394   .     A
C1109  C1119   1.372   .     A
C1109  F1213   1.359   .     S
C1110  C1123   1.394   .     A
C1110  C1120   1.376   .     A
C1110  F1214   1.359   .     S
C1111  C1117   1.375   .     A
C1111  C1123   1.393   .     A
C1111  F1215   1.359   .     S
C1112  C1124   1.396   .     A
C1112  C1118   1.372   .     A
C1112  F1216   1.358   .     S
C1113  F1217   1.351   .     S
C1113  C1126   1.397   .     A
C1114  F1218   1.359   .     S
C1114  C1125   1.396   .     A
C1115  F1219   1.357   .     S
C1115  C1125   1.399   .     A
C1116  F1220   1.359   .     S
C1116  C1126   1.402   .     A
C1117  F1221   1.358   .     S
C1117  C1128   1.395   .     A
C1118  F1222   1.359   .     S
C1118  C1127   1.394   .     A
C1119  C1127   1.396   .     A
C1119  F1223   1.358   .     S
C1120  F1224   1.359   .     S
C1120  C1128   1.395   .     A
N1129  Zn1149  2.056   .     S
N1129  C1236   1.391   1_455 S
N1130  Zn1150  2.056   .     S
N1130  C1233   1.375   1_455 S
N1131  Zn1151  2.056   .     S
N1131  C1374   1.394   1_545 S
N1132  Zn1152  2.056   .     S
N1132  C1375   1.383   1_545 S
O1133  Zn1149  1.978   .     S
O1134  Zn1286  1.978   .     S
O1135  Zn1285  1.969   .     S
O1136  Zn1150  1.969   .     S
O1137  Zn1286  2.002   .     S
O1138  Zn1149  2.002   .     S
O1139  Zn1150  1.996   .     S
O1140  Zn1285  1.996   .     S
O1141  Zn1423  1.978   .     S
O1142  Zn1152  1.978   .     S
O1143  Zn1151  1.969   .     S
O1144  Zn1424  1.969   .     S
O1145  Zn1424  2.002   .     S
O1146  Zn1151  2.002   .     S
O1147  Zn1152  1.996   .     S
O1148  Zn1423  1.996   .     S
Zn1149 O1276   1.996   1_455 S
Zn1149 O1271   1.969   1_455 S
Zn1150 O1273   2.002   1_455 S
Zn1150 O1270   1.978   1_455 S
Zn1151 O1420   1.996   1_545 S
Zn1151 O1413   1.978   1_545 S
Zn1152 O1417   2.002   1_545 S
Zn1152 O1416   1.969   1_545 S
C1153  H1159   1.091   .     S
C1153  H1158   1.108   .     S
C1153  C1290   1.530   .     S
C1154  H1156   1.111   .     S
C1154  H1157   1.107   .     S
C1154  C1289   1.530   1_455 S
H1155  C66     1.106   1_556 S
C1160  H1166   1.111   .     S
C1160  H1165   1.104   .     S
C1160  C1161   1.528   .     S
C1161  H1162   1.104   .     S
C1161  H1163   1.110   .     S
C1161  H1164   1.108   .     S
C1167  H1172   1.107   .     S
C1167  H1173   1.089   .     S
C1167  C1304   1.528   1_455 S
C1168  H1170   1.111   .     S
C1168  H1169   1.110   .     S
C1168  C1303   1.528   .     S
H1171  C80     1.109   1_556 S
C1174  H1179   1.105   .     S
C1174  C1175   1.531   .     S
C1174  H1180   1.112   .     S
C1175  H1176   1.107   .     S
C1175  H1177   1.110   .     S
C1175  H1178   1.108   .     S
C1181  C1182   1.531   .     S
C1181  H1187   1.104   .     S
C1181  H1186   1.089   .     S
C1182  H1184   1.111   .     S
C1182  H1185   1.109   .     S
C1182  H1183   1.110   .     S
C1188  H1193   1.096   .     S
C1188  H1194   1.102   .     S
C1188  C1189   1.536   .     S
C1189  H1191   1.111   .     S
C1189  H1190   1.099   .     S
C1189  H1192   1.109   .     S
C1195  H1200   1.111   .     S
C1195  H1201   1.076   .     S
C1195  C1196   1.536   .     S
C1196  H1197   1.111   .     S
C1196  H1199   1.105   .     S
C1196  H1198   1.110   .     S
C1202  C1203   1.532   .     S
C1202  H1207   1.083   .     S
C1202  H1208   1.107   .     S
C1203  H1204   1.109   .     S
C1203  H1205   1.111   .     S
C1203  H1206   1.108   .     S
C1225  O1272   1.295   .     A
C1225  O1269   1.297   .     A
C1225  C1260   1.401   .     S
C1226  C1259   1.399   .     S
C1226  O1270   1.295   .     A
C1226  O1271   1.297   .     A
C1227  O1273   1.302   .     A
C1227  C1258   1.421   .     S
C1227  O1276   1.301   .     A
C1228  O1275   1.303   .     A
C1228  C1257   1.422   .     S
C1228  O1274   1.300   .     A
C1229  O1280   1.294   .     A
C1229  O1277   1.298   .     A
C1229  C1264   1.401   .     S
C1230  O1279   1.296   .     A
C1230  O1278   1.297   .     A
C1230  C1263   1.401   .     S
C1231  O1284   1.302   .     A
C1231  C1262   1.426   .     S
C1231  O1281   1.303   .     A
C1232  O1283   1.299   .     A
C1232  O1282   1.302   .     A
C1232  C1261   1.420   .     S
C1233  C1289   1.514   .     S
C1233  N1130   1.375   1_655 S
C1234  N1265   1.391   .     A
C1234  C1296   1.513   .     S
C1234  C147    1.434   1_556 S
C1235  N1266   1.373   .     A
C1235  C1303   1.513   .     S
C1236  C1310   1.515   .     S
C1236  C145    1.434   1_556 S
C1236  N1129   1.391   1_655 S
C1237  C1317   1.517   .     S
C1237  N1268   1.383   .     A
C1238  C1324   1.527   .     S
C1238  C151    1.444   1_556 S
C1238  N1539   1.394   .     S
C1239  C1331   1.533   .     S
C1239  N1540   1.383   .     S
C1240  N1267   1.381   .     A
C1240  C1338   1.519   .     S
C1240  C149    1.441   1_556 S
C1241  C1251   1.377   .     A
C1241  F1345   1.359   .     S
C1241  C1258   1.397   .     A
C1242  C1257   1.404   .     A
C1242  C1252   1.372   .     A
C1242  F1346   1.359   .     S
C1243  F1347   1.357   .     S
C1243  C1257   1.397   .     A
C1243  C1249   1.361   .     A
C1244  C1258   1.399   .     A
C1244  C1250   1.375   .     A
C1244  F1348   1.355   .     S
C1245  C1260   1.394   .     A
C1245  C1255   1.372   .     A
C1245  F1349   1.359   .     S
C1246  C1259   1.394   .     A
C1246  C1256   1.376   .     A
C1246  F1350   1.359   .     S
C1247  C1253   1.375   .     A
C1247  C1259   1.393   .     A
C1247  F1351   1.359   .     S
C1248  C1260   1.396   .     A
C1248  C1254   1.372   .     A
C1248  F1352   1.358   .     S
C1249  F1353   1.351   .     S
C1249  C1262   1.397   .     A
C1250  F1354   1.359   .     S
C1250  C1261   1.396   .     A
C1251  F1355   1.357   .     S
C1251  C1261   1.399   .     A
C1252  F1356   1.359   .     S
C1252  C1262   1.402   .     A
C1253  F1357   1.358   .     S
C1253  C1264   1.395   .     A
C1254  F1358   1.359   .     S
C1254  C1263   1.394   .     A
C1255  C1263   1.396   .     A
C1255  F1359   1.358   .     S
C1256  F1360   1.359   .     S
C1256  C1264   1.395   .     A
N1265  Zn1285  2.056   .     S
N1266  Zn1286  2.056   .     S
N1267  Zn1287  2.056   .     S
N1267  C1510   1.394   1_545 S
N1268  Zn1288  2.056   .     S
N1268  C1511   1.383   1_545 S
O1269  Zn1285  1.978   .     S
O1270  Zn1150  1.978   1_655 S
O1271  Zn1149  1.969   1_655 S
O1272  Zn1286  1.969   .     S
O1273  Zn1150  2.002   1_655 S
O1274  Zn1285  2.002   .     S
O1275  Zn1286  1.996   .     S
O1276  Zn1149  1.996   1_655 S
O1277  Zn1559  1.978   .     S
O1278  Zn1288  1.978   .     S
O1279  Zn1287  1.969   .     S
O1280  Zn1560  1.969   .     S
O1281  Zn1560  2.002   .     S
O1282  Zn1287  2.002   .     S
O1283  Zn1288  1.996   .     S
O1284  Zn1559  1.996   .     S
Zn1287 O1556   1.996   1_545 S
Zn1287 O1549   1.978   1_545 S
Zn1288 O1553   2.002   1_545 S
Zn1288 O1552   1.969   1_545 S
C1289  H1295   1.091   .     S
C1289  H1294   1.108   .     S
C1289  C1154   1.530   1_655 S
C1290  H1292   1.111   .     S
C1290  H1293   1.107   .     S
H1291  C202    1.106   1_556 S
C1296  H1302   1.111   .     S
C1296  H1301   1.104   .     S
C1296  C1297   1.528   .     S
C1297  H1298   1.104   .     S
C1297  H1299   1.110   .     S
C1297  H1300   1.108   .     S
C1303  H1308   1.107   .     S
C1303  H1309   1.089   .     S
C1304  H1306   1.111   .     S
C1304  H1305   1.110   .     S
C1304  C1167   1.528   1_655 S
H1307  C216    1.109   1_556 S
C1310  H1315   1.105   .     S
C1310  C1311   1.531   .     S
C1310  H1316   1.112   .     S
C1311  H1312   1.107   .     S
C1311  H1313   1.110   .     S
C1311  H1314   1.108   .     S
C1317  C1318   1.531   .     S
C1317  H1323   1.104   .     S
C1317  H1322   1.089   .     S
C1318  H1320   1.111   .     S
C1318  H1321   1.109   .     S
C1318  H1319   1.110   .     S
C1324  H1329   1.096   .     S
C1324  H1330   1.102   .     S
C1324  C1325   1.536   .     S
C1325  H1327   1.111   .     S
C1325  H1326   1.099   .     S
C1325  H1328   1.109   .     S
C1331  H1336   1.111   .     S
C1331  H1337   1.076   .     S
C1331  C1332   1.536   .     S
C1332  H1333   1.111   .     S
C1332  H1335   1.105   .     S
C1332  H1334   1.110   .     S
C1338  C1339   1.532   .     S
C1338  H1343   1.083   .     S
C1338  H1344   1.107   .     S
C1339  H1340   1.109   .     S
C1339  H1341   1.111   .     S
C1339  H1342   1.108   .     S
C1361  O1408   1.295   .     A
C1361  O1405   1.297   .     A
C1361  C1396   1.401   .     S
C1362  C1395   1.399   .     S
C1362  O1406   1.295   .     A
C1362  O1407   1.297   .     A
C1363  O1409   1.302   .     A
C1363  C1394   1.421   .     S
C1363  O1412   1.301   .     A
C1364  O1411   1.303   .     A
C1364  C1393   1.422   .     S
C1364  O1410   1.300   .     A
C1365  O1416   1.294   .     A
C1365  O1413   1.298   .     A
C1365  C1400   1.401   .     S
C1366  O1415   1.296   .     A
C1366  O1414   1.297   .     A
C1366  C1399   1.401   .     S
C1367  O1420   1.302   .     A
C1367  C1398   1.426   .     S
C1367  O1417   1.303   .     A
C1368  O1419   1.299   .     A
C1368  O1418   1.302   .     A
C1368  C1397   1.420   .     S
C1369  C1425   1.514   .     S
C1369  N1538   1.375   .     S
C1370  N1401   1.391   .     A
C1370  C1432   1.513   .     S
C1370  C283    1.434   1_556 S
C1371  N1402   1.373   .     A
C1371  C1439   1.513   .     S
C1372  C1446   1.515   .     S
C1372  C281    1.434   1_556 S
C1372  N1537   1.391   .     S
C1373  C1453   1.517   .     S
C1373  N1404   1.383   .     A
C1374  C1460   1.527   .     S
C1374  C287    1.444   1_556 S
C1374  N1131   1.394   1_565 S
C1375  C1467   1.533   .     S
C1375  N1132   1.383   1_565 S
C1376  N1403   1.381   .     A
C1376  C1474   1.519   .     S
C1376  C285    1.441   1_556 S
C1377  C1387   1.377   .     A
C1377  F1481   1.359   .     S
C1377  C1394   1.397   .     A
C1378  C1393   1.404   .     A
C1378  C1388   1.372   .     A
C1378  F1482   1.359   .     S
C1379  F1483   1.357   .     S
C1379  C1393   1.397   .     A
C1379  C1385   1.361   .     A
C1380  C1394   1.399   .     A
C1380  C1386   1.375   .     A
C1380  F1484   1.355   .     S
C1381  C1396   1.394   .     A
C1381  C1391   1.372   .     A
C1381  F1485   1.359   .     S
C1382  C1395   1.394   .     A
C1382  C1392   1.376   .     A
C1382  F1486   1.359   .     S
C1383  C1389   1.375   .     A
C1383  C1395   1.393   .     A
C1383  F1487   1.359   .     S
C1384  C1396   1.396   .     A
C1384  C1390   1.372   .     A
C1384  F1488   1.358   .     S
C1385  F1489   1.351   .     S
C1385  C1398   1.397   .     A
C1386  F1490   1.359   .     S
C1386  C1397   1.396   .     A
C1387  F1491   1.357   .     S
C1387  C1397   1.399   .     A
C1388  F1492   1.359   .     S
C1388  C1398   1.402   .     A
C1389  F1493   1.358   .     S
C1389  C1400   1.395   .     A
C1390  F1494   1.359   .     S
C1390  C1399   1.394   .     A
C1391  C1399   1.396   .     A
C1391  F1495   1.358   .     S
C1392  F1496   1.359   .     S
C1392  C1400   1.395   .     A
N1401  Zn1421  2.056   .     S
N1401  C1508   1.391   1_455 S
N1402  Zn1422  2.056   .     S
N1402  C1505   1.375   1_455 S
N1403  Zn1423  2.056   .     S
N1404  Zn1424  2.056   .     S
O1405  Zn1421  1.978   .     S
O1406  Zn1558  1.978   .     S
O1407  Zn1557  1.969   .     S
O1408  Zn1422  1.969   .     S
O1409  Zn1558  2.002   .     S
O1410  Zn1421  2.002   .     S
O1411  Zn1422  1.996   .     S
O1412  Zn1557  1.996   .     S
O1413  Zn1151  1.978   1_565 S
O1414  Zn1424  1.978   .     S
O1415  Zn1423  1.969   .     S
O1416  Zn1152  1.969   1_565 S
O1417  Zn1152  2.002   1_565 S
O1418  Zn1423  2.002   .     S
O1419  Zn1424  1.996   .     S
O1420  Zn1151  1.996   1_565 S
Zn1421 O1548   1.996   1_455 S
Zn1421 O1543   1.969   1_455 S
Zn1422 O1545   2.002   1_455 S
Zn1422 O1542   1.978   1_455 S
C1425  H1431   1.091   .     S
C1425  H1430   1.108   .     S
C1425  C1562   1.530   .     S
C1426  H1428   1.111   .     S
C1426  H1429   1.107   .     S
C1426  C1561   1.530   1_455 S
H1427  C338    1.106   1_556 S
C1432  H1438   1.111   .     S
C1432  H1437   1.104   .     S
C1432  C1433   1.528   .     S
C1433  H1434   1.104   .     S
C1433  H1435   1.110   .     S
C1433  H1436   1.108   .     S
C1439  H1444   1.107   .     S
C1439  H1445   1.089   .     S
C1439  C1576   1.528   1_455 S
C1440  H1442   1.111   .     S
C1440  H1441   1.110   .     S
C1440  C1575   1.528   .     S
H1443  C352    1.109   1_556 S
C1446  H1451   1.105   .     S
C1446  C1447   1.531   .     S
C1446  H1452   1.112   .     S
C1447  H1448   1.107   .     S
C1447  H1449   1.110   .     S
C1447  H1450   1.108   .     S
C1453  C1454   1.531   .     S
C1453  H1459   1.104   .     S
C1453  H1458   1.089   .     S
C1454  H1456   1.111   .     S
C1454  H1457   1.109   .     S
C1454  H1455   1.110   .     S
C1460  H1465   1.096   .     S
C1460  H1466   1.102   .     S
C1460  C1461   1.536   .     S
C1461  H1463   1.111   .     S
C1461  H1462   1.099   .     S
C1461  H1464   1.109   .     S
C1467  H1472   1.111   .     S
C1467  H1473   1.076   .     S
C1467  C1468   1.536   .     S
C1468  H1469   1.111   .     S
C1468  H1471   1.105   .     S
C1468  H1470   1.110   .     S
C1474  C1475   1.532   .     S
C1474  H1479   1.083   .     S
C1474  H1480   1.107   .     S
C1475  H1476   1.109   .     S
C1475  H1477   1.111   .     S
C1475  H1478   1.108   .     S
C1497  O1544   1.295   .     A
C1497  O1541   1.297   .     A
C1497  C1532   1.401   .     S
C1498  C1531   1.399   .     S
C1498  O1542   1.295   .     A
C1498  O1543   1.297   .     A
C1499  O1545   1.302   .     A
C1499  C1530   1.421   .     S
C1499  O1548   1.301   .     A
C1500  O1547   1.303   .     A
C1500  C1529   1.422   .     S
C1500  O1546   1.300   .     A
C1501  O1552   1.294   .     A
C1501  O1549   1.298   .     A
C1501  C1536   1.401   .     S
C1502  O1551   1.296   .     A
C1502  O1550   1.297   .     A
C1502  C1535   1.401   .     S
C1503  O1556   1.302   .     A
C1503  C1534   1.426   .     S
C1503  O1553   1.303   .     A
C1504  O1555   1.299   .     A
C1504  O1554   1.302   .     A
C1504  C1533   1.420   .     S
C1505  C1561   1.514   .     S
C1505  N1402   1.375   1_655 S
C1506  N1537   1.391   .     A
C1506  C1568   1.513   .     S
C1506  C419    1.434   1_556 S
C1507  N1538   1.373   .     A
C1507  C1575   1.513   .     S
C1508  C1582   1.515   .     S
C1508  C417    1.434   1_556 S
C1508  N1401   1.391   1_655 S
C1509  C1589   1.517   .     S
C1509  N1540   1.383   .     A
C1510  C1596   1.527   .     S
C1510  C423    1.444   1_556 S
C1510  N1267   1.394   1_565 S
C1511  C1603   1.533   .     S
C1511  N1268   1.383   1_565 S
C1512  N1539   1.381   .     A
C1512  C1610   1.519   .     S
C1512  C421    1.441   1_556 S
C1513  C1523   1.377   .     A
C1513  F1617   1.359   .     S
C1513  C1530   1.397   .     A
C1514  C1529   1.404   .     A
C1514  C1524   1.372   .     A
C1514  F1618   1.359   .     S
C1515  F1619   1.357   .     S
C1515  C1529   1.397   .     A
C1515  C1521   1.361   .     A
C1516  C1530   1.399   .     A
C1516  C1522   1.375   .     A
C1516  F1620   1.355   .     S
C1517  C1532   1.394   .     A
C1517  C1527   1.372   .     A
C1517  F1621   1.359   .     S
C1518  C1531   1.394   .     A
C1518  C1528   1.376   .     A
C1518  F1622   1.359   .     S
C1519  C1525   1.375   .     A
C1519  C1531   1.393   .     A
C1519  F1623   1.359   .     S
C1520  C1532   1.396   .     A
C1520  C1526   1.372   .     A
C1520  F1624   1.358   .     S
C1521  F1625   1.351   .     S
C1521  C1534   1.397   .     A
C1522  F1626   1.359   .     S
C1522  C1533   1.396   .     A
C1523  F1627   1.357   .     S
C1523  C1533   1.399   .     A
C1524  F1628   1.359   .     S
C1524  C1534   1.402   .     A
C1525  F1629   1.358   .     S
C1525  C1536   1.395   .     A
C1526  F1630   1.359   .     S
C1526  C1535   1.394   .     A
C1527  C1535   1.396   .     A
C1527  F1631   1.358   .     S
C1528  F1632   1.359   .     S
C1528  C1536   1.395   .     A
N1537  Zn1557  2.056   .     S
N1538  Zn1558  2.056   .     S
N1539  Zn1559  2.056   .     S
N1540  Zn1560  2.056   .     S
O1541  Zn1557  1.978   .     S
O1542  Zn1422  1.978   1_655 S
O1543  Zn1421  1.969   1_655 S
O1544  Zn1558  1.969   .     S
O1545  Zn1422  2.002   1_655 S
O1546  Zn1557  2.002   .     S
O1547  Zn1558  1.996   .     S
O1548  Zn1421  1.996   1_655 S
O1549  Zn1287  1.978   1_565 S
O1550  Zn1560  1.978   .     S
O1551  Zn1559  1.969   .     S
O1552  Zn1288  1.969   1_565 S
O1553  Zn1288  2.002   1_565 S
O1554  Zn1559  2.002   .     S
O1555  Zn1560  1.996   .     S
O1556  Zn1287  1.996   1_565 S
C1561  H1567   1.091   .     S
C1561  H1566   1.108   .     S
C1561  C1426   1.530   1_655 S
C1562  H1564   1.111   .     S
C1562  H1565   1.107   .     S
H1563  C474    1.106   1_556 S
C1568  H1574   1.111   .     S
C1568  H1573   1.104   .     S
C1568  C1569   1.528   .     S
C1569  H1570   1.104   .     S
C1569  H1571   1.110   .     S
C1569  H1572   1.108   .     S
C1575  H1580   1.107   .     S
C1575  H1581   1.089   .     S
C1576  H1578   1.111   .     S
C1576  H1577   1.110   .     S
C1576  C1439   1.528   1_655 S
H1579  C488    1.109   1_556 S
C1582  H1587   1.105   .     S
C1582  C1583   1.531   .     S
C1582  H1588   1.112   .     S
C1583  H1584   1.107   .     S
C1583  H1585   1.110   .     S
C1583  H1586   1.108   .     S
C1589  C1590   1.531   .     S
C1589  H1595   1.104   .     S
C1589  H1594   1.089   .     S
C1590  H1592   1.111   .     S
C1590  H1593   1.109   .     S
C1590  H1591   1.110   .     S
C1596  H1601   1.096   .     S
C1596  H1602   1.102   .     S
C1596  C1597   1.536   .     S
C1597  H1599   1.111   .     S
C1597  H1598   1.099   .     S
C1597  H1600   1.109   .     S
C1603  H1608   1.111   .     S
C1603  H1609   1.076   .     S
C1603  C1604   1.536   .     S
C1604  H1605   1.111   .     S
C1604  H1607   1.105   .     S
C1604  H1606   1.110   .     S
C1610  C1611   1.532   .     S
C1610  H1615   1.083   .     S
C1610  H1616   1.107   .     S
C1611  H1612   1.109   .     S
C1611  H1613   1.111   .     S
C1611  H1614   1.108   .     S
