data_str_m3_o2_o10_pcu_sym.196
_audit_creation_date              2020-01-03
_audit_creation_method            'Materials Studio'
_symmetry_space_group_name_H-M    'P1'
_symmetry_Int_Tables_number       1
_symmetry_cell_setting            triclinic
loop_
_symmetry_equiv_pos_as_xyz
  x,y,z
_cell_length_a                    25.8835
_cell_length_b                    29.9024
_cell_length_c                    28.2765
_cell_angle_alpha                 87.1630
_cell_angle_beta                  97.3857
_cell_angle_gamma                 91.8593
loop_
_atom_site_label
_atom_site_type_symbol
_atom_site_fract_x
_atom_site_fract_y
_atom_site_fract_z
_atom_site_U_iso_or_equiv
_atom_site_adp_type
_atom_site_occupancy
C1     C     0.16917   0.16366   0.25179   0.00000  Uiso   1.00
C2     C     0.16451   0.33642   0.24847   0.00000  Uiso   1.00
C3     C     0.17709   0.21061   0.05555   0.00000  Uiso   1.00
C4     C     0.21428   0.24649   0.45314   0.00000  Uiso   1.00
C5     C     0.17717   0.21175   0.10523   0.00000  Uiso   1.00
C6     C     0.21250   0.24556   0.40321   0.00000  Uiso   1.00
C7     C     0.15361   0.28752   0.09846   0.00000  Uiso   1.00
C8     C     0.12165   0.25601   0.39273   0.00000  Uiso   1.00
C9     C     0.15408   0.28833   0.04869   0.00000  Uiso   1.00
C10    C     0.12127   0.25610   0.44240   0.00000  Uiso   1.00
C11    C     0.16691   0.24986   0.02653   0.00000  Uiso   1.00
C12    C     0.16773   0.25073   0.47351   0.00000  Uiso   1.00
C13    C     0.06717   0.24958   0.23807   0.00000  Uiso   1.00
C14    C     0.26616   0.25001   0.26186   0.00000  Uiso   1.00
C15    C     0.01370   0.25710   0.23241   0.00000  Uiso   1.00
C16    C     0.31942   0.24149   0.26694   0.00000  Uiso   1.00
C17    C     0.16084   0.04396   0.29509   0.00000  Uiso   1.00
C18    C     0.17014   0.45677   0.20637   0.00000  Uiso   1.00
C19    C     0.15927   0.08995   0.29528   0.00000  Uiso   1.00
C20    C     0.17459   0.41101   0.20692   0.00000  Uiso   1.00
C21    C     0.17762   0.11572   0.25727   0.00000  Uiso   1.00
C22    C     0.15589   0.38443   0.24408   0.00000  Uiso   1.00
C23    C     0.20978   0.09519   0.22840   0.00000  Uiso   1.00
C24    C     0.12419   0.40429   0.27409   0.00000  Uiso   1.00
C25    C     0.21012   0.04814   0.22892   0.00000  Uiso   1.00
C26    C     0.12241   0.45131   0.27358   0.00000  Uiso   1.00
C27    C     0.17499   0.02343   0.25575   0.00000  Uiso   1.00
C28    C     0.15581   0.47687   0.24581   0.00000  Uiso   1.00
H29    H     0.18440   0.18138   0.12672   0.00000  Uiso   1.00
H30    H     0.24828   0.24194   0.38805   0.00000  Uiso   1.00
N31    N     0.16667   0.24999   0.12624   0.00000  Uiso   1.00
N32    N     0.16667   0.25001   0.37377   0.00000  Uiso   1.00
O33    O     0.16667   0.18453   0.28974   0.00000  Uiso   1.00
O34    O     0.16666   0.31546   0.21026   0.00000  Uiso   1.00
O35    O     0.16667   0.18453   0.21026   0.00000  Uiso   1.00
O36    O     0.16666   0.31547   0.28974   0.00000  Uiso   1.00
O37    O     0.09058   0.25000   0.28045   0.00000  Uiso   1.00
O38    O     0.24275   0.25000   0.21956   0.00000  Uiso   1.00
O39    O     0.09058   0.24999   0.20097   0.00000  Uiso   1.00
O40    O     0.24275   0.25000   0.29904   0.00000  Uiso   1.00
Zn41   Zn    0.16667   0.25000   0.30307   0.00000  Uiso   1.00
Zn42   Zn    0.16667   0.24999   0.19693   0.00000  Uiso   1.00
I43    I     0.32230   0.30302   0.17368   0.00000  Uiso   1.00
I44    I     0.00978   0.19186   0.32209   0.00000  Uiso   1.00
H45    H     0.14955   0.02448   0.32532   0.00000  Uiso   1.00
H46    H     0.18142   0.47665   0.17636   0.00000  Uiso   1.00
I47    I     0.12768   0.11427   0.35485   0.00000  Uiso   1.00
I48    I     0.21569   0.38905   0.15239   0.00000  Uiso   1.00
I49    I     0.26479   0.13468   0.19216   0.00000  Uiso   1.00
I50    I     0.07478   0.36403   0.31594   0.00000  Uiso   1.00
I51    I     0.27522   0.01730   0.20423   0.00000  Uiso   1.00
I52    I     0.05752   0.48064   0.30016   0.00000  Uiso   1.00
I53    I     0.18833   0.14794   0.02674   0.00000  Uiso   1.00
I54    I     0.28852   0.24459   0.49493   0.00000  Uiso   1.00
H55    H     0.14216   0.31689   0.11476   0.00000  Uiso   1.00
H56    H     0.08573   0.26105   0.36943   0.00000  Uiso   1.00
H57    H     0.14436   0.31882   0.02760   0.00000  Uiso   1.00
H58    H     0.08483   0.26024   0.45647   0.00000  Uiso   1.00
C59    C     0.50250   0.16366   0.25179   0.00000  Uiso   1.00
C60    C     0.49784   0.33642   0.24847   0.00000  Uiso   1.00
C61    C     0.51042   0.21061   0.05555   0.00000  Uiso   1.00
C62    C     0.54761   0.24649   0.45314   0.00000  Uiso   1.00
C63    C     0.51050   0.21175   0.10523   0.00000  Uiso   1.00
C64    C     0.54583   0.24556   0.40321   0.00000  Uiso   1.00
C65    C     0.48695   0.28752   0.09846   0.00000  Uiso   1.00
C66    C     0.45498   0.25601   0.39273   0.00000  Uiso   1.00
C67    C     0.48741   0.28833   0.04869   0.00000  Uiso   1.00
C68    C     0.45461   0.25610   0.44240   0.00000  Uiso   1.00
C69    C     0.50024   0.24986   0.02653   0.00000  Uiso   1.00
C70    C     0.50106   0.25073   0.47351   0.00000  Uiso   1.00
C71    C     0.40050   0.24958   0.23807   0.00000  Uiso   1.00
C72    C     0.59949   0.25001   0.26186   0.00000  Uiso   1.00
C73    C     0.34703   0.25710   0.23241   0.00000  Uiso   1.00
C74    C     0.65275   0.24149   0.26694   0.00000  Uiso   1.00
C75    C     0.49417   0.04396   0.29509   0.00000  Uiso   1.00
C76    C     0.50347   0.45677   0.20637   0.00000  Uiso   1.00
C77    C     0.49260   0.08995   0.29528   0.00000  Uiso   1.00
C78    C     0.50793   0.41101   0.20692   0.00000  Uiso   1.00
C79    C     0.51095   0.11572   0.25727   0.00000  Uiso   1.00
C80    C     0.48923   0.38443   0.24408   0.00000  Uiso   1.00
C81    C     0.54311   0.09519   0.22840   0.00000  Uiso   1.00
C82    C     0.45752   0.40429   0.27409   0.00000  Uiso   1.00
C83    C     0.54345   0.04814   0.22892   0.00000  Uiso   1.00
C84    C     0.45574   0.45131   0.27358   0.00000  Uiso   1.00
C85    C     0.50832   0.02343   0.25575   0.00000  Uiso   1.00
C86    C     0.48914   0.47687   0.24581   0.00000  Uiso   1.00
H87    H     0.51774   0.18138   0.12672   0.00000  Uiso   1.00
H88    H     0.58161   0.24194   0.38805   0.00000  Uiso   1.00
N89    N     0.50000   0.24999   0.12624   0.00000  Uiso   1.00
N90    N     0.50000   0.25001   0.37377   0.00000  Uiso   1.00
O91    O     0.50000   0.18453   0.28974   0.00000  Uiso   1.00
O92    O     0.50000   0.31546   0.21026   0.00000  Uiso   1.00
O93    O     0.50000   0.18453   0.21026   0.00000  Uiso   1.00
O94    O     0.50000   0.31547   0.28974   0.00000  Uiso   1.00
O95    O     0.42392   0.25000   0.28045   0.00000  Uiso   1.00
O96    O     0.57608   0.25000   0.21956   0.00000  Uiso   1.00
O97    O     0.42392   0.24999   0.20097   0.00000  Uiso   1.00
O98    O     0.57608   0.25000   0.29904   0.00000  Uiso   1.00
Zn99   Zn    0.50000   0.25000   0.30307   0.00000  Uiso   1.00
Zn100  Zn    0.50000   0.24999   0.19693   0.00000  Uiso   1.00
I101   I     0.65564   0.30302   0.17368   0.00000  Uiso   1.00
I102   I     0.34311   0.19186   0.32209   0.00000  Uiso   1.00
H103   H     0.48288   0.02448   0.32532   0.00000  Uiso   1.00
H104   H     0.51476   0.47665   0.17636   0.00000  Uiso   1.00
I105   I     0.46101   0.11427   0.35485   0.00000  Uiso   1.00
I106   I     0.54902   0.38905   0.15239   0.00000  Uiso   1.00
I107   I     0.59812   0.13468   0.19216   0.00000  Uiso   1.00
I108   I     0.40812   0.36403   0.31594   0.00000  Uiso   1.00
I109   I     0.60856   0.01730   0.20423   0.00000  Uiso   1.00
I110   I     0.39085   0.48064   0.30016   0.00000  Uiso   1.00
I111   I     0.52166   0.14794   0.02674   0.00000  Uiso   1.00
I112   I     0.62186   0.24459   0.49493   0.00000  Uiso   1.00
H113   H     0.47550   0.31689   0.11476   0.00000  Uiso   1.00
H114   H     0.41906   0.26105   0.36943   0.00000  Uiso   1.00
H115   H     0.47770   0.31882   0.02760   0.00000  Uiso   1.00
H116   H     0.41816   0.26024   0.45647   0.00000  Uiso   1.00
C117   C     0.83584   0.16366   0.25179   0.00000  Uiso   1.00
C118   C     0.83118   0.33642   0.24847   0.00000  Uiso   1.00
C119   C     0.84376   0.21061   0.05555   0.00000  Uiso   1.00
C120   C     0.88094   0.24649   0.45314   0.00000  Uiso   1.00
C121   C     0.84384   0.21175   0.10523   0.00000  Uiso   1.00
C122   C     0.87917   0.24556   0.40321   0.00000  Uiso   1.00
C123   C     0.82028   0.28752   0.09846   0.00000  Uiso   1.00
C124   C     0.78832   0.25601   0.39273   0.00000  Uiso   1.00
C125   C     0.82074   0.28833   0.04869   0.00000  Uiso   1.00
C126   C     0.78794   0.25610   0.44240   0.00000  Uiso   1.00
C127   C     0.83357   0.24986   0.02653   0.00000  Uiso   1.00
C128   C     0.83440   0.25073   0.47351   0.00000  Uiso   1.00
C129   C     0.73384   0.24958   0.23807   0.00000  Uiso   1.00
C130   C     0.93282   0.25001   0.26186   0.00000  Uiso   1.00
C131   C     0.68036   0.25710   0.23241   0.00000  Uiso   1.00
C132   C     0.98609   0.24149   0.26694   0.00000  Uiso   1.00
C133   C     0.82751   0.04396   0.29509   0.00000  Uiso   1.00
C134   C     0.83681   0.45677   0.20637   0.00000  Uiso   1.00
C135   C     0.82594   0.08995   0.29528   0.00000  Uiso   1.00
C136   C     0.84126   0.41101   0.20692   0.00000  Uiso   1.00
C137   C     0.84429   0.11572   0.25727   0.00000  Uiso   1.00
C138   C     0.82256   0.38443   0.24408   0.00000  Uiso   1.00
C139   C     0.87644   0.09519   0.22840   0.00000  Uiso   1.00
C140   C     0.79086   0.40429   0.27409   0.00000  Uiso   1.00
C141   C     0.87678   0.04814   0.22892   0.00000  Uiso   1.00
C142   C     0.78908   0.45131   0.27358   0.00000  Uiso   1.00
C143   C     0.84165   0.02343   0.25575   0.00000  Uiso   1.00
C144   C     0.82247   0.47687   0.24581   0.00000  Uiso   1.00
H145   H     0.85107   0.18138   0.12672   0.00000  Uiso   1.00
H146   H     0.91494   0.24194   0.38805   0.00000  Uiso   1.00
N147   N     0.83333   0.24999   0.12624   0.00000  Uiso   1.00
N148   N     0.83333   0.25001   0.37377   0.00000  Uiso   1.00
O149   O     0.83334   0.18453   0.28974   0.00000  Uiso   1.00
O150   O     0.83333   0.31546   0.21026   0.00000  Uiso   1.00
O151   O     0.83334   0.18453   0.21026   0.00000  Uiso   1.00
O152   O     0.83333   0.31547   0.28974   0.00000  Uiso   1.00
O153   O     0.75725   0.25000   0.28045   0.00000  Uiso   1.00
O154   O     0.90942   0.25000   0.21956   0.00000  Uiso   1.00
O155   O     0.75725   0.24999   0.20097   0.00000  Uiso   1.00
O156   O     0.90942   0.25000   0.29904   0.00000  Uiso   1.00
Zn157  Zn    0.83333   0.25000   0.30307   0.00000  Uiso   1.00
Zn158  Zn    0.83333   0.24999   0.19693   0.00000  Uiso   1.00
I159   I     0.98897   0.30302   0.17368   0.00000  Uiso   1.00
I160   I     0.67645   0.19186   0.32209   0.00000  Uiso   1.00
H161   H     0.81622   0.02448   0.32532   0.00000  Uiso   1.00
H162   H     0.84809   0.47665   0.17636   0.00000  Uiso   1.00
I163   I     0.79434   0.11427   0.35485   0.00000  Uiso   1.00
I164   I     0.88236   0.38905   0.15239   0.00000  Uiso   1.00
I165   I     0.93146   0.13468   0.19216   0.00000  Uiso   1.00
I166   I     0.74145   0.36403   0.31594   0.00000  Uiso   1.00
I167   I     0.94189   0.01730   0.20423   0.00000  Uiso   1.00
I168   I     0.72419   0.48064   0.30016   0.00000  Uiso   1.00
I169   I     0.85500   0.14794   0.02674   0.00000  Uiso   1.00
I170   I     0.95519   0.24459   0.49493   0.00000  Uiso   1.00
H171   H     0.80883   0.31689   0.11476   0.00000  Uiso   1.00
H172   H     0.75239   0.26105   0.36943   0.00000  Uiso   1.00
H173   H     0.81103   0.31882   0.02760   0.00000  Uiso   1.00
H174   H     0.75150   0.26024   0.45647   0.00000  Uiso   1.00
C175   C     0.16917   0.66366   0.25179   0.00000  Uiso   1.00
C176   C     0.16451   0.83642   0.24847   0.00000  Uiso   1.00
C177   C     0.17709   0.71061   0.05555   0.00000  Uiso   1.00
C178   C     0.21428   0.74649   0.45314   0.00000  Uiso   1.00
C179   C     0.17717   0.71175   0.10523   0.00000  Uiso   1.00
C180   C     0.21250   0.74556   0.40321   0.00000  Uiso   1.00
C181   C     0.15361   0.78752   0.09846   0.00000  Uiso   1.00
C182   C     0.12165   0.75601   0.39273   0.00000  Uiso   1.00
C183   C     0.15408   0.78833   0.04869   0.00000  Uiso   1.00
C184   C     0.12127   0.75610   0.44240   0.00000  Uiso   1.00
C185   C     0.16691   0.74986   0.02653   0.00000  Uiso   1.00
C186   C     0.16773   0.75073   0.47351   0.00000  Uiso   1.00
C187   C     0.06717   0.74958   0.23807   0.00000  Uiso   1.00
C188   C     0.26616   0.75001   0.26186   0.00000  Uiso   1.00
C189   C     0.01370   0.75710   0.23241   0.00000  Uiso   1.00
C190   C     0.31942   0.74149   0.26694   0.00000  Uiso   1.00
C191   C     0.16084   0.54396   0.29509   0.00000  Uiso   1.00
C192   C     0.17014   0.95677   0.20637   0.00000  Uiso   1.00
C193   C     0.15927   0.58995   0.29528   0.00000  Uiso   1.00
C194   C     0.17459   0.91101   0.20692   0.00000  Uiso   1.00
C195   C     0.17762   0.61572   0.25727   0.00000  Uiso   1.00
C196   C     0.15589   0.88443   0.24408   0.00000  Uiso   1.00
C197   C     0.20978   0.59519   0.22840   0.00000  Uiso   1.00
C198   C     0.12419   0.90429   0.27409   0.00000  Uiso   1.00
C199   C     0.21012   0.54814   0.22892   0.00000  Uiso   1.00
C200   C     0.12241   0.95131   0.27358   0.00000  Uiso   1.00
C201   C     0.17499   0.52343   0.25575   0.00000  Uiso   1.00
C202   C     0.15581   0.97687   0.24581   0.00000  Uiso   1.00
H203   H     0.18440   0.68138   0.12672   0.00000  Uiso   1.00
H204   H     0.24828   0.74194   0.38805   0.00000  Uiso   1.00
N205   N     0.16667   0.74999   0.12624   0.00000  Uiso   1.00
N206   N     0.16667   0.75001   0.37377   0.00000  Uiso   1.00
O207   O     0.16667   0.68453   0.28974   0.00000  Uiso   1.00
O208   O     0.16666   0.81546   0.21026   0.00000  Uiso   1.00
O209   O     0.16667   0.68453   0.21026   0.00000  Uiso   1.00
O210   O     0.16666   0.81547   0.28974   0.00000  Uiso   1.00
O211   O     0.09058   0.75000   0.28045   0.00000  Uiso   1.00
O212   O     0.24275   0.75000   0.21956   0.00000  Uiso   1.00
O213   O     0.09058   0.74999   0.20097   0.00000  Uiso   1.00
O214   O     0.24275   0.75000   0.29904   0.00000  Uiso   1.00
Zn215  Zn    0.16667   0.75000   0.30307   0.00000  Uiso   1.00
Zn216  Zn    0.16667   0.74999   0.19693   0.00000  Uiso   1.00
I217   I     0.32230   0.80302   0.17368   0.00000  Uiso   1.00
I218   I     0.00978   0.69186   0.32209   0.00000  Uiso   1.00
H219   H     0.14955   0.52448   0.32532   0.00000  Uiso   1.00
H220   H     0.18142   0.97665   0.17636   0.00000  Uiso   1.00
I221   I     0.12768   0.61427   0.35485   0.00000  Uiso   1.00
I222   I     0.21569   0.88905   0.15239   0.00000  Uiso   1.00
I223   I     0.26479   0.63468   0.19216   0.00000  Uiso   1.00
I224   I     0.07478   0.86403   0.31594   0.00000  Uiso   1.00
I225   I     0.27522   0.51730   0.20423   0.00000  Uiso   1.00
I226   I     0.05752   0.98064   0.30016   0.00000  Uiso   1.00
I227   I     0.18833   0.64794   0.02674   0.00000  Uiso   1.00
I228   I     0.28852   0.74459   0.49493   0.00000  Uiso   1.00
H229   H     0.14216   0.81689   0.11476   0.00000  Uiso   1.00
H230   H     0.08573   0.76105   0.36943   0.00000  Uiso   1.00
H231   H     0.14436   0.81882   0.02760   0.00000  Uiso   1.00
H232   H     0.08483   0.76024   0.45647   0.00000  Uiso   1.00
C233   C     0.50250   0.66366   0.25179   0.00000  Uiso   1.00
C234   C     0.49784   0.83642   0.24847   0.00000  Uiso   1.00
C235   C     0.51042   0.71061   0.05555   0.00000  Uiso   1.00
C236   C     0.54761   0.74649   0.45314   0.00000  Uiso   1.00
C237   C     0.51050   0.71175   0.10523   0.00000  Uiso   1.00
C238   C     0.54583   0.74556   0.40321   0.00000  Uiso   1.00
C239   C     0.48695   0.78752   0.09846   0.00000  Uiso   1.00
C240   C     0.45498   0.75601   0.39273   0.00000  Uiso   1.00
C241   C     0.48741   0.78833   0.04869   0.00000  Uiso   1.00
C242   C     0.45461   0.75610   0.44240   0.00000  Uiso   1.00
C243   C     0.50024   0.74986   0.02653   0.00000  Uiso   1.00
C244   C     0.50106   0.75073   0.47351   0.00000  Uiso   1.00
C245   C     0.40050   0.74958   0.23807   0.00000  Uiso   1.00
C246   C     0.59949   0.75001   0.26186   0.00000  Uiso   1.00
C247   C     0.34703   0.75710   0.23241   0.00000  Uiso   1.00
C248   C     0.65275   0.74149   0.26694   0.00000  Uiso   1.00
C249   C     0.49417   0.54396   0.29509   0.00000  Uiso   1.00
C250   C     0.50347   0.95677   0.20637   0.00000  Uiso   1.00
C251   C     0.49260   0.58995   0.29528   0.00000  Uiso   1.00
C252   C     0.50793   0.91101   0.20692   0.00000  Uiso   1.00
C253   C     0.51095   0.61572   0.25727   0.00000  Uiso   1.00
C254   C     0.48923   0.88443   0.24408   0.00000  Uiso   1.00
C255   C     0.54311   0.59519   0.22840   0.00000  Uiso   1.00
C256   C     0.45752   0.90429   0.27409   0.00000  Uiso   1.00
C257   C     0.54345   0.54814   0.22892   0.00000  Uiso   1.00
C258   C     0.45574   0.95131   0.27358   0.00000  Uiso   1.00
C259   C     0.50832   0.52343   0.25575   0.00000  Uiso   1.00
C260   C     0.48914   0.97687   0.24581   0.00000  Uiso   1.00
H261   H     0.51774   0.68138   0.12672   0.00000  Uiso   1.00
H262   H     0.58161   0.74194   0.38805   0.00000  Uiso   1.00
N263   N     0.50000   0.74999   0.12624   0.00000  Uiso   1.00
N264   N     0.50000   0.75001   0.37377   0.00000  Uiso   1.00
O265   O     0.50000   0.68453   0.28974   0.00000  Uiso   1.00
O266   O     0.50000   0.81546   0.21026   0.00000  Uiso   1.00
O267   O     0.50000   0.68453   0.21026   0.00000  Uiso   1.00
O268   O     0.50000   0.81547   0.28974   0.00000  Uiso   1.00
O269   O     0.42392   0.75000   0.28045   0.00000  Uiso   1.00
O270   O     0.57608   0.75000   0.21956   0.00000  Uiso   1.00
O271   O     0.42392   0.74999   0.20097   0.00000  Uiso   1.00
O272   O     0.57608   0.75000   0.29904   0.00000  Uiso   1.00
Zn273  Zn    0.50000   0.75000   0.30307   0.00000  Uiso   1.00
Zn274  Zn    0.50000   0.74999   0.19693   0.00000  Uiso   1.00
I275   I     0.65564   0.80302   0.17368   0.00000  Uiso   1.00
I276   I     0.34311   0.69186   0.32209   0.00000  Uiso   1.00
H277   H     0.48288   0.52448   0.32532   0.00000  Uiso   1.00
H278   H     0.51476   0.97665   0.17636   0.00000  Uiso   1.00
I279   I     0.46101   0.61427   0.35485   0.00000  Uiso   1.00
I280   I     0.54902   0.88905   0.15239   0.00000  Uiso   1.00
I281   I     0.59812   0.63468   0.19216   0.00000  Uiso   1.00
I282   I     0.40812   0.86403   0.31594   0.00000  Uiso   1.00
I283   I     0.60856   0.51730   0.20423   0.00000  Uiso   1.00
I284   I     0.39085   0.98064   0.30016   0.00000  Uiso   1.00
I285   I     0.52166   0.64794   0.02674   0.00000  Uiso   1.00
I286   I     0.62186   0.74459   0.49493   0.00000  Uiso   1.00
H287   H     0.47550   0.81689   0.11476   0.00000  Uiso   1.00
H288   H     0.41906   0.76105   0.36943   0.00000  Uiso   1.00
H289   H     0.47770   0.81882   0.02760   0.00000  Uiso   1.00
H290   H     0.41816   0.76024   0.45647   0.00000  Uiso   1.00
C291   C     0.83584   0.66366   0.25179   0.00000  Uiso   1.00
C292   C     0.83118   0.83642   0.24847   0.00000  Uiso   1.00
C293   C     0.84376   0.71061   0.05555   0.00000  Uiso   1.00
C294   C     0.88094   0.74649   0.45314   0.00000  Uiso   1.00
C295   C     0.84384   0.71175   0.10523   0.00000  Uiso   1.00
C296   C     0.87917   0.74556   0.40321   0.00000  Uiso   1.00
C297   C     0.82028   0.78752   0.09846   0.00000  Uiso   1.00
C298   C     0.78832   0.75601   0.39273   0.00000  Uiso   1.00
C299   C     0.82074   0.78833   0.04869   0.00000  Uiso   1.00
C300   C     0.78794   0.75610   0.44240   0.00000  Uiso   1.00
C301   C     0.83357   0.74986   0.02653   0.00000  Uiso   1.00
C302   C     0.83440   0.75073   0.47351   0.00000  Uiso   1.00
C303   C     0.73384   0.74958   0.23807   0.00000  Uiso   1.00
C304   C     0.93282   0.75001   0.26186   0.00000  Uiso   1.00
C305   C     0.68036   0.75710   0.23241   0.00000  Uiso   1.00
C306   C     0.98609   0.74149   0.26694   0.00000  Uiso   1.00
C307   C     0.82751   0.54396   0.29509   0.00000  Uiso   1.00
C308   C     0.83681   0.95677   0.20637   0.00000  Uiso   1.00
C309   C     0.82594   0.58995   0.29528   0.00000  Uiso   1.00
C310   C     0.84126   0.91101   0.20692   0.00000  Uiso   1.00
C311   C     0.84429   0.61572   0.25727   0.00000  Uiso   1.00
C312   C     0.82256   0.88443   0.24408   0.00000  Uiso   1.00
C313   C     0.87644   0.59519   0.22840   0.00000  Uiso   1.00
C314   C     0.79086   0.90429   0.27409   0.00000  Uiso   1.00
C315   C     0.87678   0.54814   0.22892   0.00000  Uiso   1.00
C316   C     0.78908   0.95131   0.27358   0.00000  Uiso   1.00
C317   C     0.84165   0.52343   0.25575   0.00000  Uiso   1.00
C318   C     0.82247   0.97687   0.24581   0.00000  Uiso   1.00
H319   H     0.85107   0.68138   0.12672   0.00000  Uiso   1.00
H320   H     0.91494   0.74194   0.38805   0.00000  Uiso   1.00
N321   N     0.83333   0.74999   0.12624   0.00000  Uiso   1.00
N322   N     0.83333   0.75001   0.37377   0.00000  Uiso   1.00
O323   O     0.83334   0.68453   0.28974   0.00000  Uiso   1.00
O324   O     0.83333   0.81546   0.21026   0.00000  Uiso   1.00
O325   O     0.83334   0.68453   0.21026   0.00000  Uiso   1.00
O326   O     0.83333   0.81547   0.28974   0.00000  Uiso   1.00
O327   O     0.75725   0.75000   0.28045   0.00000  Uiso   1.00
O328   O     0.90942   0.75000   0.21956   0.00000  Uiso   1.00
O329   O     0.75725   0.74999   0.20097   0.00000  Uiso   1.00
O330   O     0.90942   0.75000   0.29904   0.00000  Uiso   1.00
Zn331  Zn    0.83333   0.75000   0.30307   0.00000  Uiso   1.00
Zn332  Zn    0.83333   0.74999   0.19693   0.00000  Uiso   1.00
I333   I     0.98897   0.80302   0.17368   0.00000  Uiso   1.00
I334   I     0.67645   0.69186   0.32209   0.00000  Uiso   1.00
H335   H     0.81622   0.52448   0.32532   0.00000  Uiso   1.00
H336   H     0.84809   0.97665   0.17636   0.00000  Uiso   1.00
I337   I     0.79434   0.61427   0.35485   0.00000  Uiso   1.00
I338   I     0.88236   0.88905   0.15239   0.00000  Uiso   1.00
I339   I     0.93146   0.63468   0.19216   0.00000  Uiso   1.00
I340   I     0.74145   0.86403   0.31594   0.00000  Uiso   1.00
I341   I     0.94189   0.51730   0.20423   0.00000  Uiso   1.00
I342   I     0.72419   0.98064   0.30016   0.00000  Uiso   1.00
I343   I     0.85500   0.64794   0.02674   0.00000  Uiso   1.00
I344   I     0.95519   0.74459   0.49493   0.00000  Uiso   1.00
H345   H     0.80883   0.81689   0.11476   0.00000  Uiso   1.00
H346   H     0.75239   0.76105   0.36943   0.00000  Uiso   1.00
H347   H     0.81103   0.81882   0.02760   0.00000  Uiso   1.00
H348   H     0.75150   0.76024   0.45647   0.00000  Uiso   1.00
C349   C     0.16917   0.16366   0.75179   0.00000  Uiso   1.00
C350   C     0.16451   0.33642   0.74847   0.00000  Uiso   1.00
C351   C     0.17709   0.21061   0.55555   0.00000  Uiso   1.00
C352   C     0.21428   0.24649   0.95314   0.00000  Uiso   1.00
C353   C     0.17717   0.21175   0.60523   0.00000  Uiso   1.00
C354   C     0.21250   0.24556   0.90321   0.00000  Uiso   1.00
C355   C     0.15361   0.28752   0.59846   0.00000  Uiso   1.00
C356   C     0.12165   0.25601   0.89273   0.00000  Uiso   1.00
C357   C     0.15408   0.28833   0.54869   0.00000  Uiso   1.00
C358   C     0.12127   0.25610   0.94240   0.00000  Uiso   1.00
C359   C     0.16691   0.24986   0.52653   0.00000  Uiso   1.00
C360   C     0.16773   0.25073   0.97351   0.00000  Uiso   1.00
C361   C     0.06717   0.24958   0.73807   0.00000  Uiso   1.00
C362   C     0.26616   0.25001   0.76186   0.00000  Uiso   1.00
C363   C     0.01370   0.25710   0.73241   0.00000  Uiso   1.00
C364   C     0.31942   0.24149   0.76694   0.00000  Uiso   1.00
C365   C     0.16084   0.04396   0.79509   0.00000  Uiso   1.00
C366   C     0.17014   0.45677   0.70637   0.00000  Uiso   1.00
C367   C     0.15927   0.08995   0.79528   0.00000  Uiso   1.00
C368   C     0.17459   0.41101   0.70692   0.00000  Uiso   1.00
C369   C     0.17762   0.11572   0.75727   0.00000  Uiso   1.00
C370   C     0.15589   0.38443   0.74408   0.00000  Uiso   1.00
C371   C     0.20978   0.09519   0.72840   0.00000  Uiso   1.00
C372   C     0.12419   0.40429   0.77409   0.00000  Uiso   1.00
C373   C     0.21012   0.04814   0.72892   0.00000  Uiso   1.00
C374   C     0.12241   0.45131   0.77358   0.00000  Uiso   1.00
C375   C     0.17499   0.02343   0.75575   0.00000  Uiso   1.00
C376   C     0.15581   0.47687   0.74581   0.00000  Uiso   1.00
H377   H     0.18440   0.18138   0.62672   0.00000  Uiso   1.00
H378   H     0.24828   0.24194   0.88805   0.00000  Uiso   1.00
N379   N     0.16667   0.24999   0.62624   0.00000  Uiso   1.00
N380   N     0.16667   0.25001   0.87377   0.00000  Uiso   1.00
O381   O     0.16667   0.18453   0.78974   0.00000  Uiso   1.00
O382   O     0.16666   0.31546   0.71026   0.00000  Uiso   1.00
O383   O     0.16667   0.18453   0.71026   0.00000  Uiso   1.00
O384   O     0.16666   0.31547   0.78974   0.00000  Uiso   1.00
O385   O     0.09058   0.25000   0.78045   0.00000  Uiso   1.00
O386   O     0.24275   0.25000   0.71956   0.00000  Uiso   1.00
O387   O     0.09058   0.24999   0.70097   0.00000  Uiso   1.00
O388   O     0.24275   0.25000   0.79904   0.00000  Uiso   1.00
Zn389  Zn    0.16667   0.25000   0.80307   0.00000  Uiso   1.00
Zn390  Zn    0.16667   0.24999   0.69693   0.00000  Uiso   1.00
I391   I     0.32230   0.30302   0.67368   0.00000  Uiso   1.00
I392   I     0.00978   0.19186   0.82209   0.00000  Uiso   1.00
H393   H     0.14955   0.02448   0.82532   0.00000  Uiso   1.00
H394   H     0.18142   0.47665   0.67636   0.00000  Uiso   1.00
I395   I     0.12768   0.11427   0.85485   0.00000  Uiso   1.00
I396   I     0.21569   0.38905   0.65239   0.00000  Uiso   1.00
I397   I     0.26479   0.13468   0.69216   0.00000  Uiso   1.00
I398   I     0.07478   0.36403   0.81594   0.00000  Uiso   1.00
I399   I     0.27522   0.01730   0.70423   0.00000  Uiso   1.00
I400   I     0.05752   0.48064   0.80016   0.00000  Uiso   1.00
I401   I     0.18833   0.14794   0.52674   0.00000  Uiso   1.00
I402   I     0.28852   0.24459   0.99493   0.00000  Uiso   1.00
H403   H     0.14216   0.31689   0.61476   0.00000  Uiso   1.00
H404   H     0.08573   0.26105   0.86943   0.00000  Uiso   1.00
H405   H     0.14436   0.31882   0.52760   0.00000  Uiso   1.00
H406   H     0.08483   0.26024   0.95647   0.00000  Uiso   1.00
C407   C     0.50250   0.16366   0.75179   0.00000  Uiso   1.00
C408   C     0.49784   0.33642   0.74847   0.00000  Uiso   1.00
C409   C     0.51042   0.21061   0.55555   0.00000  Uiso   1.00
C410   C     0.54761   0.24649   0.95314   0.00000  Uiso   1.00
C411   C     0.51050   0.21175   0.60523   0.00000  Uiso   1.00
C412   C     0.54583   0.24556   0.90321   0.00000  Uiso   1.00
C413   C     0.48695   0.28752   0.59846   0.00000  Uiso   1.00
C414   C     0.45498   0.25601   0.89273   0.00000  Uiso   1.00
C415   C     0.48741   0.28833   0.54869   0.00000  Uiso   1.00
C416   C     0.45461   0.25610   0.94240   0.00000  Uiso   1.00
C417   C     0.50024   0.24986   0.52653   0.00000  Uiso   1.00
C418   C     0.50106   0.25073   0.97351   0.00000  Uiso   1.00
C419   C     0.40050   0.24958   0.73807   0.00000  Uiso   1.00
C420   C     0.59949   0.25001   0.76186   0.00000  Uiso   1.00
C421   C     0.34703   0.25710   0.73241   0.00000  Uiso   1.00
C422   C     0.65275   0.24149   0.76694   0.00000  Uiso   1.00
C423   C     0.49417   0.04396   0.79509   0.00000  Uiso   1.00
C424   C     0.50347   0.45677   0.70637   0.00000  Uiso   1.00
C425   C     0.49260   0.08995   0.79528   0.00000  Uiso   1.00
C426   C     0.50793   0.41101   0.70692   0.00000  Uiso   1.00
C427   C     0.51095   0.11572   0.75727   0.00000  Uiso   1.00
C428   C     0.48923   0.38443   0.74408   0.00000  Uiso   1.00
C429   C     0.54311   0.09519   0.72840   0.00000  Uiso   1.00
C430   C     0.45752   0.40429   0.77409   0.00000  Uiso   1.00
C431   C     0.54345   0.04814   0.72892   0.00000  Uiso   1.00
C432   C     0.45574   0.45131   0.77358   0.00000  Uiso   1.00
C433   C     0.50832   0.02343   0.75575   0.00000  Uiso   1.00
C434   C     0.48914   0.47687   0.74581   0.00000  Uiso   1.00
H435   H     0.51774   0.18138   0.62672   0.00000  Uiso   1.00
H436   H     0.58161   0.24194   0.88805   0.00000  Uiso   1.00
N437   N     0.50000   0.24999   0.62624   0.00000  Uiso   1.00
N438   N     0.50000   0.25001   0.87377   0.00000  Uiso   1.00
O439   O     0.50000   0.18453   0.78974   0.00000  Uiso   1.00
O440   O     0.50000   0.31546   0.71026   0.00000  Uiso   1.00
O441   O     0.50000   0.18453   0.71026   0.00000  Uiso   1.00
O442   O     0.50000   0.31547   0.78974   0.00000  Uiso   1.00
O443   O     0.42392   0.25000   0.78045   0.00000  Uiso   1.00
O444   O     0.57608   0.25000   0.71956   0.00000  Uiso   1.00
O445   O     0.42392   0.24999   0.70097   0.00000  Uiso   1.00
O446   O     0.57608   0.25000   0.79904   0.00000  Uiso   1.00
Zn447  Zn    0.50000   0.25000   0.80307   0.00000  Uiso   1.00
Zn448  Zn    0.50000   0.24999   0.69693   0.00000  Uiso   1.00
I449   I     0.65564   0.30302   0.67368   0.00000  Uiso   1.00
I450   I     0.34311   0.19186   0.82209   0.00000  Uiso   1.00
H451   H     0.48288   0.02448   0.82532   0.00000  Uiso   1.00
H452   H     0.51476   0.47665   0.67636   0.00000  Uiso   1.00
I453   I     0.46101   0.11427   0.85485   0.00000  Uiso   1.00
I454   I     0.54902   0.38905   0.65239   0.00000  Uiso   1.00
I455   I     0.59812   0.13468   0.69216   0.00000  Uiso   1.00
I456   I     0.40812   0.36403   0.81594   0.00000  Uiso   1.00
I457   I     0.60856   0.01730   0.70423   0.00000  Uiso   1.00
I458   I     0.39085   0.48064   0.80016   0.00000  Uiso   1.00
I459   I     0.52166   0.14794   0.52674   0.00000  Uiso   1.00
I460   I     0.62186   0.24459   0.99493   0.00000  Uiso   1.00
H461   H     0.47550   0.31689   0.61476   0.00000  Uiso   1.00
H462   H     0.41906   0.26105   0.86943   0.00000  Uiso   1.00
H463   H     0.47770   0.31882   0.52760   0.00000  Uiso   1.00
H464   H     0.41816   0.26024   0.95647   0.00000  Uiso   1.00
C465   C     0.83584   0.16366   0.75179   0.00000  Uiso   1.00
C466   C     0.83118   0.33642   0.74847   0.00000  Uiso   1.00
C467   C     0.84376   0.21061   0.55555   0.00000  Uiso   1.00
C468   C     0.88094   0.24649   0.95314   0.00000  Uiso   1.00
C469   C     0.84384   0.21175   0.60523   0.00000  Uiso   1.00
C470   C     0.87917   0.24556   0.90321   0.00000  Uiso   1.00
C471   C     0.82028   0.28752   0.59846   0.00000  Uiso   1.00
C472   C     0.78832   0.25601   0.89273   0.00000  Uiso   1.00
C473   C     0.82074   0.28833   0.54869   0.00000  Uiso   1.00
C474   C     0.78794   0.25610   0.94240   0.00000  Uiso   1.00
C475   C     0.83357   0.24986   0.52653   0.00000  Uiso   1.00
C476   C     0.83440   0.25073   0.97351   0.00000  Uiso   1.00
C477   C     0.73384   0.24958   0.73807   0.00000  Uiso   1.00
C478   C     0.93282   0.25001   0.76186   0.00000  Uiso   1.00
C479   C     0.68036   0.25710   0.73241   0.00000  Uiso   1.00
C480   C     0.98609   0.24149   0.76694   0.00000  Uiso   1.00
C481   C     0.82751   0.04396   0.79509   0.00000  Uiso   1.00
C482   C     0.83681   0.45677   0.70637   0.00000  Uiso   1.00
C483   C     0.82594   0.08995   0.79528   0.00000  Uiso   1.00
C484   C     0.84126   0.41101   0.70692   0.00000  Uiso   1.00
C485   C     0.84429   0.11572   0.75727   0.00000  Uiso   1.00
C486   C     0.82256   0.38443   0.74408   0.00000  Uiso   1.00
C487   C     0.87644   0.09519   0.72840   0.00000  Uiso   1.00
C488   C     0.79086   0.40429   0.77409   0.00000  Uiso   1.00
C489   C     0.87678   0.04814   0.72892   0.00000  Uiso   1.00
C490   C     0.78908   0.45131   0.77358   0.00000  Uiso   1.00
C491   C     0.84165   0.02343   0.75575   0.00000  Uiso   1.00
C492   C     0.82247   0.47687   0.74581   0.00000  Uiso   1.00
H493   H     0.85107   0.18138   0.62672   0.00000  Uiso   1.00
H494   H     0.91494   0.24194   0.88805   0.00000  Uiso   1.00
N495   N     0.83333   0.24999   0.62624   0.00000  Uiso   1.00
N496   N     0.83333   0.25001   0.87377   0.00000  Uiso   1.00
O497   O     0.83334   0.18453   0.78974   0.00000  Uiso   1.00
O498   O     0.83333   0.31546   0.71026   0.00000  Uiso   1.00
O499   O     0.83334   0.18453   0.71026   0.00000  Uiso   1.00
O500   O     0.83333   0.31547   0.78974   0.00000  Uiso   1.00
O501   O     0.75725   0.25000   0.78045   0.00000  Uiso   1.00
O502   O     0.90942   0.25000   0.71956   0.00000  Uiso   1.00
O503   O     0.75725   0.24999   0.70097   0.00000  Uiso   1.00
O504   O     0.90942   0.25000   0.79904   0.00000  Uiso   1.00
Zn505  Zn    0.83333   0.25000   0.80307   0.00000  Uiso   1.00
Zn506  Zn    0.83333   0.24999   0.69693   0.00000  Uiso   1.00
I507   I     0.98897   0.30302   0.67368   0.00000  Uiso   1.00
I508   I     0.67645   0.19186   0.82209   0.00000  Uiso   1.00
H509   H     0.81622   0.02448   0.82532   0.00000  Uiso   1.00
H510   H     0.84809   0.47665   0.67636   0.00000  Uiso   1.00
I511   I     0.79434   0.11427   0.85485   0.00000  Uiso   1.00
I512   I     0.88236   0.38905   0.65239   0.00000  Uiso   1.00
I513   I     0.93146   0.13468   0.69216   0.00000  Uiso   1.00
I514   I     0.74145   0.36403   0.81594   0.00000  Uiso   1.00
I515   I     0.94189   0.01730   0.70423   0.00000  Uiso   1.00
I516   I     0.72419   0.48064   0.80016   0.00000  Uiso   1.00
I517   I     0.85500   0.14794   0.52674   0.00000  Uiso   1.00
I518   I     0.95519   0.24459   0.99493   0.00000  Uiso   1.00
H519   H     0.80883   0.31689   0.61476   0.00000  Uiso   1.00
H520   H     0.75239   0.26105   0.86943   0.00000  Uiso   1.00
H521   H     0.81103   0.31882   0.52760   0.00000  Uiso   1.00
H522   H     0.75150   0.26024   0.95647   0.00000  Uiso   1.00
C523   C     0.16917   0.66366   0.75179   0.00000  Uiso   1.00
C524   C     0.16451   0.83642   0.74847   0.00000  Uiso   1.00
C525   C     0.17709   0.71061   0.55555   0.00000  Uiso   1.00
C526   C     0.21428   0.74649   0.95314   0.00000  Uiso   1.00
C527   C     0.17717   0.71175   0.60523   0.00000  Uiso   1.00
C528   C     0.21250   0.74556   0.90321   0.00000  Uiso   1.00
C529   C     0.15361   0.78752   0.59846   0.00000  Uiso   1.00
C530   C     0.12165   0.75601   0.89273   0.00000  Uiso   1.00
C531   C     0.15408   0.78833   0.54869   0.00000  Uiso   1.00
C532   C     0.12127   0.75610   0.94240   0.00000  Uiso   1.00
C533   C     0.16691   0.74986   0.52653   0.00000  Uiso   1.00
C534   C     0.16773   0.75073   0.97351   0.00000  Uiso   1.00
C535   C     0.06717   0.74958   0.73807   0.00000  Uiso   1.00
C536   C     0.26616   0.75001   0.76186   0.00000  Uiso   1.00
C537   C     0.01370   0.75710   0.73241   0.00000  Uiso   1.00
C538   C     0.31942   0.74149   0.76694   0.00000  Uiso   1.00
C539   C     0.16084   0.54396   0.79509   0.00000  Uiso   1.00
C540   C     0.17014   0.95677   0.70637   0.00000  Uiso   1.00
C541   C     0.15927   0.58995   0.79528   0.00000  Uiso   1.00
C542   C     0.17459   0.91101   0.70692   0.00000  Uiso   1.00
C543   C     0.17762   0.61572   0.75727   0.00000  Uiso   1.00
C544   C     0.15589   0.88443   0.74408   0.00000  Uiso   1.00
C545   C     0.20978   0.59519   0.72840   0.00000  Uiso   1.00
C546   C     0.12419   0.90429   0.77409   0.00000  Uiso   1.00
C547   C     0.21012   0.54814   0.72892   0.00000  Uiso   1.00
C548   C     0.12241   0.95131   0.77358   0.00000  Uiso   1.00
C549   C     0.17499   0.52343   0.75575   0.00000  Uiso   1.00
C550   C     0.15581   0.97687   0.74581   0.00000  Uiso   1.00
H551   H     0.18440   0.68138   0.62672   0.00000  Uiso   1.00
H552   H     0.24828   0.74194   0.88805   0.00000  Uiso   1.00
N553   N     0.16667   0.74999   0.62624   0.00000  Uiso   1.00
N554   N     0.16667   0.75001   0.87377   0.00000  Uiso   1.00
O555   O     0.16667   0.68453   0.78974   0.00000  Uiso   1.00
O556   O     0.16666   0.81546   0.71026   0.00000  Uiso   1.00
O557   O     0.16667   0.68453   0.71026   0.00000  Uiso   1.00
O558   O     0.16666   0.81547   0.78974   0.00000  Uiso   1.00
O559   O     0.09058   0.75000   0.78045   0.00000  Uiso   1.00
O560   O     0.24275   0.75000   0.71956   0.00000  Uiso   1.00
O561   O     0.09058   0.74999   0.70097   0.00000  Uiso   1.00
O562   O     0.24275   0.75000   0.79904   0.00000  Uiso   1.00
Zn563  Zn    0.16667   0.75000   0.80307   0.00000  Uiso   1.00
Zn564  Zn    0.16667   0.74999   0.69693   0.00000  Uiso   1.00
I565   I     0.32230   0.80302   0.67368   0.00000  Uiso   1.00
I566   I     0.00978   0.69186   0.82209   0.00000  Uiso   1.00
H567   H     0.14955   0.52448   0.82532   0.00000  Uiso   1.00
H568   H     0.18142   0.97665   0.67636   0.00000  Uiso   1.00
I569   I     0.12768   0.61427   0.85485   0.00000  Uiso   1.00
I570   I     0.21569   0.88905   0.65239   0.00000  Uiso   1.00
I571   I     0.26479   0.63468   0.69216   0.00000  Uiso   1.00
I572   I     0.07478   0.86403   0.81594   0.00000  Uiso   1.00
I573   I     0.27522   0.51730   0.70423   0.00000  Uiso   1.00
I574   I     0.05752   0.98064   0.80016   0.00000  Uiso   1.00
I575   I     0.18833   0.64794   0.52674   0.00000  Uiso   1.00
I576   I     0.28852   0.74459   0.99493   0.00000  Uiso   1.00
H577   H     0.14216   0.81689   0.61476   0.00000  Uiso   1.00
H578   H     0.08573   0.76105   0.86943   0.00000  Uiso   1.00
H579   H     0.14436   0.81882   0.52760   0.00000  Uiso   1.00
H580   H     0.08483   0.76024   0.95647   0.00000  Uiso   1.00
C581   C     0.50250   0.66366   0.75179   0.00000  Uiso   1.00
C582   C     0.49784   0.83642   0.74847   0.00000  Uiso   1.00
C583   C     0.51042   0.71061   0.55555   0.00000  Uiso   1.00
C584   C     0.54761   0.74649   0.95314   0.00000  Uiso   1.00
C585   C     0.51050   0.71175   0.60523   0.00000  Uiso   1.00
C586   C     0.54583   0.74556   0.90321   0.00000  Uiso   1.00
C587   C     0.48695   0.78752   0.59846   0.00000  Uiso   1.00
C588   C     0.45498   0.75601   0.89273   0.00000  Uiso   1.00
C589   C     0.48741   0.78833   0.54869   0.00000  Uiso   1.00
C590   C     0.45461   0.75610   0.94240   0.00000  Uiso   1.00
C591   C     0.50024   0.74986   0.52653   0.00000  Uiso   1.00
C592   C     0.50106   0.75073   0.97351   0.00000  Uiso   1.00
C593   C     0.40050   0.74958   0.73807   0.00000  Uiso   1.00
C594   C     0.59949   0.75001   0.76186   0.00000  Uiso   1.00
C595   C     0.34703   0.75710   0.73241   0.00000  Uiso   1.00
C596   C     0.65275   0.74149   0.76694   0.00000  Uiso   1.00
C597   C     0.49417   0.54396   0.79509   0.00000  Uiso   1.00
C598   C     0.50347   0.95677   0.70637   0.00000  Uiso   1.00
C599   C     0.49260   0.58995   0.79528   0.00000  Uiso   1.00
C600   C     0.50793   0.91101   0.70692   0.00000  Uiso   1.00
C601   C     0.51095   0.61572   0.75727   0.00000  Uiso   1.00
C602   C     0.48923   0.88443   0.74408   0.00000  Uiso   1.00
C603   C     0.54311   0.59519   0.72840   0.00000  Uiso   1.00
C604   C     0.45752   0.90429   0.77409   0.00000  Uiso   1.00
C605   C     0.54345   0.54814   0.72892   0.00000  Uiso   1.00
C606   C     0.45574   0.95131   0.77358   0.00000  Uiso   1.00
C607   C     0.50832   0.52343   0.75575   0.00000  Uiso   1.00
C608   C     0.48914   0.97687   0.74581   0.00000  Uiso   1.00
H609   H     0.51774   0.68138   0.62672   0.00000  Uiso   1.00
H610   H     0.58161   0.74194   0.88805   0.00000  Uiso   1.00
N611   N     0.50000   0.74999   0.62624   0.00000  Uiso   1.00
N612   N     0.50000   0.75001   0.87377   0.00000  Uiso   1.00
O613   O     0.50000   0.68453   0.78974   0.00000  Uiso   1.00
O614   O     0.50000   0.81546   0.71026   0.00000  Uiso   1.00
O615   O     0.50000   0.68453   0.71026   0.00000  Uiso   1.00
O616   O     0.50000   0.81547   0.78974   0.00000  Uiso   1.00
O617   O     0.42392   0.75000   0.78045   0.00000  Uiso   1.00
O618   O     0.57608   0.75000   0.71956   0.00000  Uiso   1.00
O619   O     0.42392   0.74999   0.70097   0.00000  Uiso   1.00
O620   O     0.57608   0.75000   0.79904   0.00000  Uiso   1.00
Zn621  Zn    0.50000   0.75000   0.80307   0.00000  Uiso   1.00
Zn622  Zn    0.50000   0.74999   0.69693   0.00000  Uiso   1.00
I623   I     0.65564   0.80302   0.67368   0.00000  Uiso   1.00
I624   I     0.34311   0.69186   0.82209   0.00000  Uiso   1.00
H625   H     0.48288   0.52448   0.82532   0.00000  Uiso   1.00
H626   H     0.51476   0.97665   0.67636   0.00000  Uiso   1.00
I627   I     0.46101   0.61427   0.85485   0.00000  Uiso   1.00
I628   I     0.54902   0.88905   0.65239   0.00000  Uiso   1.00
I629   I     0.59812   0.63468   0.69216   0.00000  Uiso   1.00
I630   I     0.40812   0.86403   0.81594   0.00000  Uiso   1.00
I631   I     0.60856   0.51730   0.70423   0.00000  Uiso   1.00
I632   I     0.39085   0.98064   0.80016   0.00000  Uiso   1.00
I633   I     0.52166   0.64794   0.52674   0.00000  Uiso   1.00
I634   I     0.62186   0.74459   0.99493   0.00000  Uiso   1.00
H635   H     0.47550   0.81689   0.61476   0.00000  Uiso   1.00
H636   H     0.41906   0.76105   0.86943   0.00000  Uiso   1.00
H637   H     0.47770   0.81882   0.52760   0.00000  Uiso   1.00
H638   H     0.41816   0.76024   0.95647   0.00000  Uiso   1.00
C639   C     0.83584   0.66366   0.75179   0.00000  Uiso   1.00
C640   C     0.83118   0.83642   0.74847   0.00000  Uiso   1.00
C641   C     0.84376   0.71061   0.55555   0.00000  Uiso   1.00
C642   C     0.88094   0.74649   0.95314   0.00000  Uiso   1.00
C643   C     0.84384   0.71175   0.60523   0.00000  Uiso   1.00
C644   C     0.87917   0.74556   0.90321   0.00000  Uiso   1.00
C645   C     0.82028   0.78752   0.59846   0.00000  Uiso   1.00
C646   C     0.78832   0.75601   0.89273   0.00000  Uiso   1.00
C647   C     0.82074   0.78833   0.54869   0.00000  Uiso   1.00
C648   C     0.78794   0.75610   0.94240   0.00000  Uiso   1.00
C649   C     0.83357   0.74986   0.52653   0.00000  Uiso   1.00
C650   C     0.83440   0.75073   0.97351   0.00000  Uiso   1.00
C651   C     0.73384   0.74958   0.73807   0.00000  Uiso   1.00
C652   C     0.93282   0.75001   0.76186   0.00000  Uiso   1.00
C653   C     0.68036   0.75710   0.73241   0.00000  Uiso   1.00
C654   C     0.98609   0.74149   0.76694   0.00000  Uiso   1.00
C655   C     0.82751   0.54396   0.79509   0.00000  Uiso   1.00
C656   C     0.83681   0.95677   0.70637   0.00000  Uiso   1.00
C657   C     0.82594   0.58995   0.79528   0.00000  Uiso   1.00
C658   C     0.84126   0.91101   0.70692   0.00000  Uiso   1.00
C659   C     0.84429   0.61572   0.75727   0.00000  Uiso   1.00
C660   C     0.82256   0.88443   0.74408   0.00000  Uiso   1.00
C661   C     0.87644   0.59519   0.72840   0.00000  Uiso   1.00
C662   C     0.79086   0.90429   0.77409   0.00000  Uiso   1.00
C663   C     0.87678   0.54814   0.72892   0.00000  Uiso   1.00
C664   C     0.78908   0.95131   0.77358   0.00000  Uiso   1.00
C665   C     0.84165   0.52343   0.75575   0.00000  Uiso   1.00
C666   C     0.82247   0.97687   0.74581   0.00000  Uiso   1.00
H667   H     0.85107   0.68138   0.62672   0.00000  Uiso   1.00
H668   H     0.91494   0.74194   0.88805   0.00000  Uiso   1.00
N669   N     0.83333   0.74999   0.62624   0.00000  Uiso   1.00
N670   N     0.83333   0.75001   0.87377   0.00000  Uiso   1.00
O671   O     0.83334   0.68453   0.78974   0.00000  Uiso   1.00
O672   O     0.83333   0.81546   0.71026   0.00000  Uiso   1.00
O673   O     0.83334   0.68453   0.71026   0.00000  Uiso   1.00
O674   O     0.83333   0.81547   0.78974   0.00000  Uiso   1.00
O675   O     0.75725   0.75000   0.78045   0.00000  Uiso   1.00
O676   O     0.90942   0.75000   0.71956   0.00000  Uiso   1.00
O677   O     0.75725   0.74999   0.70097   0.00000  Uiso   1.00
O678   O     0.90942   0.75000   0.79904   0.00000  Uiso   1.00
Zn679  Zn    0.83333   0.75000   0.80307   0.00000  Uiso   1.00
Zn680  Zn    0.83333   0.74999   0.69693   0.00000  Uiso   1.00
I681   I     0.98897   0.80302   0.67368   0.00000  Uiso   1.00
I682   I     0.67645   0.69186   0.82209   0.00000  Uiso   1.00
H683   H     0.81622   0.52448   0.82532   0.00000  Uiso   1.00
H684   H     0.84809   0.97665   0.67636   0.00000  Uiso   1.00
I685   I     0.79434   0.61427   0.85485   0.00000  Uiso   1.00
I686   I     0.88236   0.88905   0.65239   0.00000  Uiso   1.00
I687   I     0.93146   0.63468   0.69216   0.00000  Uiso   1.00
I688   I     0.74145   0.86403   0.81594   0.00000  Uiso   1.00
I689   I     0.94189   0.51730   0.70423   0.00000  Uiso   1.00
I690   I     0.72419   0.98064   0.80016   0.00000  Uiso   1.00
I691   I     0.85500   0.64794   0.52674   0.00000  Uiso   1.00
I692   I     0.95519   0.74459   0.99493   0.00000  Uiso   1.00
H693   H     0.80883   0.81689   0.61476   0.00000  Uiso   1.00
H694   H     0.75239   0.76105   0.86943   0.00000  Uiso   1.00
H695   H     0.81103   0.81882   0.52760   0.00000  Uiso   1.00
H696   H     0.75150   0.76024   0.95647   0.00000  Uiso   1.00
loop_
_geom_bond_atom_site_label_1
_geom_bond_atom_site_label_2
_geom_bond_distance
_geom_bond_site_symmetry_2
_ccdc_geom_bond_type
C1     C21     1.455   .     S
C1     O33     1.278   .     A
C1     O35     1.297   .     A
C2     C22     1.457   .     S
C2     O34     1.284   .     A
C2     O36     1.293   .     A
C3     C11     1.410   .     A
C3     I53     2.123   .     S
C3     C5      1.407   .     A
C4     C6      1.408   .     A
C4     C12     1.412   .     A
C4     I54     2.124   .     S
C5     H29     1.075   .     S
C5     N31     1.365   .     A
C6     N32     1.365   .     A
C6     H30     1.080   .     S
C7     H55     1.079   .     S
C7     N31     1.364   .     A
C7     C9      1.408   .     A
C8     H56     1.078   .     S
C8     C10     1.406   .     A
C8     N32     1.364   .     A
C9     C11     1.406   .     A
C9     H57     1.083   .     S
C10    C12     1.404   .     A
C10    H58     1.083   .     S
C11    C360    1.501   1_554 S
C12    C359    1.501   .     S
C13    O37     1.272   .     A
C13    C15     1.397   .     S
C13    O39     1.277   .     A
C14    O38     1.269   .     A
C14    C16     1.398   .     S
C14    O40     1.279   .     A
C15    C132    1.340   1_455 S
C15    I159    2.147   1_455 S
C16    C73     1.340   .     S
C16    I102    2.143   .     S
C17    C27     1.391   .     A
C17    C19     1.377   .     A
C17    H45     1.077   .     S
C18    H46     1.078   .     S
C18    C20     1.376   .     A
C18    C28     1.389   .     A
C19    C21     1.414   .     A
C19    I47     2.133   .     S
C20    I48     2.123   .     S
C20    C22     1.412   .     A
C21    C23     1.412   .     A
C22    C24     1.416   .     A
C23    I49     2.149   .     S
C23    C25     1.407   .     A
C24    I50     2.152   .     S
C24    C26     1.408   .     A
C25    I51     2.155   .     S
C25    C27     1.424   .     A
C26    I52     2.154   .     S
C26    C28     1.421   .     A
C27    C202    1.491   1_545 S
C28    C201    1.491   .     S
N31    Zn42    1.999   .     S
N32    Zn41    1.999   .     S
O33    Zn41    2.012   .     S
O34    Zn42    2.012   .     S
O35    Zn42    1.975   .     S
O36    Zn41    1.975   .     S
O37    Zn41    1.991   .     S
O38    Zn42    1.991   .     S
O39    Zn42    1.987   .     S
O40    Zn41    1.987   .     S
I43    C73     2.147   .     S
I44    C132    2.143   1_455 S
C59    C79     1.455   .     S
C59    O91     1.278   .     A
C59    O93     1.297   .     A
C60    C80     1.457   .     S
C60    O92     1.284   .     A
C60    O94     1.293   .     A
C61    C69     1.410   .     A
C61    I111    2.123   .     S
C61    C63     1.407   .     A
C62    C64     1.408   .     A
C62    C70     1.412   .     A
C62    I112    2.124   .     S
C63    H87     1.075   .     S
C63    N89     1.365   .     A
C64    N90     1.365   .     A
C64    H88     1.080   .     S
C65    H113    1.079   .     S
C65    N89     1.364   .     A
C65    C67     1.408   .     A
C66    H114    1.078   .     S
C66    C68     1.406   .     A
C66    N90     1.364   .     A
C67    C69     1.406   .     A
C67    H115    1.083   .     S
C68    C70     1.404   .     A
C68    H116    1.083   .     S
C69    C418    1.501   1_554 S
C70    C417    1.501   .     S
C71    O95     1.272   .     A
C71    C73     1.397   .     S
C71    O97     1.277   .     A
C72    O96     1.269   .     A
C72    C74     1.398   .     S
C72    O98     1.279   .     A
C74    C131    1.340   .     S
C74    I160    2.143   .     S
C75    C85     1.391   .     A
C75    C77     1.377   .     A
C75    H103    1.077   .     S
C76    H104    1.078   .     S
C76    C78     1.376   .     A
C76    C86     1.389   .     A
C77    C79     1.414   .     A
C77    I105    2.133   .     S
C78    I106    2.123   .     S
C78    C80     1.412   .     A
C79    C81     1.412   .     A
C80    C82     1.416   .     A
C81    I107    2.149   .     S
C81    C83     1.407   .     A
C82    I108    2.152   .     S
C82    C84     1.408   .     A
C83    I109    2.155   .     S
C83    C85     1.424   .     A
C84    I110    2.154   .     S
C84    C86     1.421   .     A
C85    C260    1.491   1_545 S
C86    C259    1.491   .     S
N89    Zn100   1.999   .     S
N90    Zn99    1.999   .     S
O91    Zn99    2.012   .     S
O92    Zn100   2.012   .     S
O93    Zn100   1.975   .     S
O94    Zn99    1.975   .     S
O95    Zn99    1.991   .     S
O96    Zn100   1.991   .     S
O97    Zn100   1.987   .     S
O98    Zn99    1.987   .     S
I101   C131    2.147   .     S
C117   C137    1.455   .     S
C117   O149    1.278   .     A
C117   O151    1.297   .     A
C118   C138    1.457   .     S
C118   O150    1.284   .     A
C118   O152    1.293   .     A
C119   C127    1.410   .     A
C119   I169    2.123   .     S
C119   C121    1.407   .     A
C120   C122    1.408   .     A
C120   C128    1.412   .     A
C120   I170    2.124   .     S
C121   H145    1.075   .     S
C121   N147    1.365   .     A
C122   N148    1.365   .     A
C122   H146    1.080   .     S
C123   H171    1.079   .     S
C123   N147    1.364   .     A
C123   C125    1.408   .     A
C124   H172    1.078   .     S
C124   C126    1.406   .     A
C124   N148    1.364   .     A
C125   C127    1.406   .     A
C125   H173    1.083   .     S
C126   C128    1.404   .     A
C126   H174    1.083   .     S
C127   C476    1.501   1_554 S
C128   C475    1.501   .     S
C129   O153    1.272   .     A
C129   C131    1.397   .     S
C129   O155    1.277   .     A
C130   O154    1.269   .     A
C130   C132    1.398   .     S
C130   O156    1.279   .     A
C132   C15     1.340   1_655 S
C132   I44     2.143   1_655 S
C133   C143    1.391   .     A
C133   C135    1.377   .     A
C133   H161    1.077   .     S
C134   H162    1.078   .     S
C134   C136    1.376   .     A
C134   C144    1.389   .     A
C135   C137    1.414   .     A
C135   I163    2.133   .     S
C136   I164    2.123   .     S
C136   C138    1.412   .     A
C137   C139    1.412   .     A
C138   C140    1.416   .     A
C139   I165    2.149   .     S
C139   C141    1.407   .     A
C140   I166    2.152   .     S
C140   C142    1.408   .     A
C141   I167    2.155   .     S
C141   C143    1.424   .     A
C142   I168    2.154   .     S
C142   C144    1.421   .     A
C143   C318    1.491   1_545 S
C144   C317    1.491   .     S
N147   Zn158   1.999   .     S
N148   Zn157   1.999   .     S
O149   Zn157   2.012   .     S
O150   Zn158   2.012   .     S
O151   Zn158   1.975   .     S
O152   Zn157   1.975   .     S
O153   Zn157   1.991   .     S
O154   Zn158   1.991   .     S
O155   Zn158   1.987   .     S
O156   Zn157   1.987   .     S
I159   C15     2.147   1_655 S
C175   C195    1.455   .     S
C175   O207    1.278   .     A
C175   O209    1.297   .     A
C176   C196    1.457   .     S
C176   O208    1.284   .     A
C176   O210    1.293   .     A
C177   C185    1.410   .     A
C177   I227    2.123   .     S
C177   C179    1.407   .     A
C178   C180    1.408   .     A
C178   C186    1.412   .     A
C178   I228    2.124   .     S
C179   H203    1.075   .     S
C179   N205    1.365   .     A
C180   N206    1.365   .     A
C180   H204    1.080   .     S
C181   H229    1.079   .     S
C181   N205    1.364   .     A
C181   C183    1.408   .     A
C182   H230    1.078   .     S
C182   C184    1.406   .     A
C182   N206    1.364   .     A
C183   C185    1.406   .     A
C183   H231    1.083   .     S
C184   C186    1.404   .     A
C184   H232    1.083   .     S
C185   C534    1.501   1_554 S
C186   C533    1.501   .     S
C187   O211    1.272   .     A
C187   C189    1.397   .     S
C187   O213    1.277   .     A
C188   O212    1.269   .     A
C188   C190    1.398   .     S
C188   O214    1.279   .     A
C189   C306    1.340   1_455 S
C189   I333    2.147   1_455 S
C190   C247    1.340   .     S
C190   I276    2.143   .     S
C191   C201    1.391   .     A
C191   C193    1.377   .     A
C191   H219    1.077   .     S
C192   H220    1.078   .     S
C192   C194    1.376   .     A
C192   C202    1.389   .     A
C193   C195    1.414   .     A
C193   I221    2.133   .     S
C194   I222    2.123   .     S
C194   C196    1.412   .     A
C195   C197    1.412   .     A
C196   C198    1.416   .     A
C197   I223    2.149   .     S
C197   C199    1.407   .     A
C198   I224    2.152   .     S
C198   C200    1.408   .     A
C199   I225    2.155   .     S
C199   C201    1.424   .     A
C200   I226    2.154   .     S
C200   C202    1.421   .     A
C202   C27     1.491   1_565 S
N205   Zn216   1.999   .     S
N206   Zn215   1.999   .     S
O207   Zn215   2.012   .     S
O208   Zn216   2.012   .     S
O209   Zn216   1.975   .     S
O210   Zn215   1.975   .     S
O211   Zn215   1.991   .     S
O212   Zn216   1.991   .     S
O213   Zn216   1.987   .     S
O214   Zn215   1.987   .     S
I217   C247    2.147   .     S
I218   C306    2.143   1_455 S
C233   C253    1.455   .     S
C233   O265    1.278   .     A
C233   O267    1.297   .     A
C234   C254    1.457   .     S
C234   O266    1.284   .     A
C234   O268    1.293   .     A
C235   C243    1.410   .     A
C235   I285    2.123   .     S
C235   C237    1.407   .     A
C236   C238    1.408   .     A
C236   C244    1.412   .     A
C236   I286    2.124   .     S
C237   H261    1.075   .     S
C237   N263    1.365   .     A
C238   N264    1.365   .     A
C238   H262    1.080   .     S
C239   H287    1.079   .     S
C239   N263    1.364   .     A
C239   C241    1.408   .     A
C240   H288    1.078   .     S
C240   C242    1.406   .     A
C240   N264    1.364   .     A
C241   C243    1.406   .     A
C241   H289    1.083   .     S
C242   C244    1.404   .     A
C242   H290    1.083   .     S
C243   C592    1.501   1_554 S
C244   C591    1.501   .     S
C245   O269    1.272   .     A
C245   C247    1.397   .     S
C245   O271    1.277   .     A
C246   O270    1.269   .     A
C246   C248    1.398   .     S
C246   O272    1.279   .     A
C248   C305    1.340   .     S
C248   I334    2.143   .     S
C249   C259    1.391   .     A
C249   C251    1.377   .     A
C249   H277    1.077   .     S
C250   H278    1.078   .     S
C250   C252    1.376   .     A
C250   C260    1.389   .     A
C251   C253    1.414   .     A
C251   I279    2.133   .     S
C252   I280    2.123   .     S
C252   C254    1.412   .     A
C253   C255    1.412   .     A
C254   C256    1.416   .     A
C255   I281    2.149   .     S
C255   C257    1.407   .     A
C256   I282    2.152   .     S
C256   C258    1.408   .     A
C257   I283    2.155   .     S
C257   C259    1.424   .     A
C258   I284    2.154   .     S
C258   C260    1.421   .     A
C260   C85     1.491   1_565 S
N263   Zn274   1.999   .     S
N264   Zn273   1.999   .     S
O265   Zn273   2.012   .     S
O266   Zn274   2.012   .     S
O267   Zn274   1.975   .     S
O268   Zn273   1.975   .     S
O269   Zn273   1.991   .     S
O270   Zn274   1.991   .     S
O271   Zn274   1.987   .     S
O272   Zn273   1.987   .     S
I275   C305    2.147   .     S
C291   C311    1.455   .     S
C291   O323    1.278   .     A
C291   O325    1.297   .     A
C292   C312    1.457   .     S
C292   O324    1.284   .     A
C292   O326    1.293   .     A
C293   C301    1.410   .     A
C293   I343    2.123   .     S
C293   C295    1.407   .     A
C294   C296    1.408   .     A
C294   C302    1.412   .     A
C294   I344    2.124   .     S
C295   H319    1.075   .     S
C295   N321    1.365   .     A
C296   N322    1.365   .     A
C296   H320    1.080   .     S
C297   H345    1.079   .     S
C297   N321    1.364   .     A
C297   C299    1.408   .     A
C298   H346    1.078   .     S
C298   C300    1.406   .     A
C298   N322    1.364   .     A
C299   C301    1.406   .     A
C299   H347    1.083   .     S
C300   C302    1.404   .     A
C300   H348    1.083   .     S
C301   C650    1.501   1_554 S
C302   C649    1.501   .     S
C303   O327    1.272   .     A
C303   C305    1.397   .     S
C303   O329    1.277   .     A
C304   O328    1.269   .     A
C304   C306    1.398   .     S
C304   O330    1.279   .     A
C306   C189    1.340   1_655 S
C306   I218    2.143   1_655 S
C307   C317    1.391   .     A
C307   C309    1.377   .     A
C307   H335    1.077   .     S
C308   H336    1.078   .     S
C308   C310    1.376   .     A
C308   C318    1.389   .     A
C309   C311    1.414   .     A
C309   I337    2.133   .     S
C310   I338    2.123   .     S
C310   C312    1.412   .     A
C311   C313    1.412   .     A
C312   C314    1.416   .     A
C313   I339    2.149   .     S
C313   C315    1.407   .     A
C314   I340    2.152   .     S
C314   C316    1.408   .     A
C315   I341    2.155   .     S
C315   C317    1.424   .     A
C316   I342    2.154   .     S
C316   C318    1.421   .     A
C318   C143    1.491   1_565 S
N321   Zn332   1.999   .     S
N322   Zn331   1.999   .     S
O323   Zn331   2.012   .     S
O324   Zn332   2.012   .     S
O325   Zn332   1.975   .     S
O326   Zn331   1.975   .     S
O327   Zn331   1.991   .     S
O328   Zn332   1.991   .     S
O329   Zn332   1.987   .     S
O330   Zn331   1.987   .     S
I333   C189    2.147   1_655 S
C349   C369    1.455   .     S
C349   O381    1.278   .     A
C349   O383    1.297   .     A
C350   C370    1.457   .     S
C350   O382    1.284   .     A
C350   O384    1.293   .     A
C351   C359    1.410   .     A
C351   I401    2.123   .     S
C351   C353    1.407   .     A
C352   C354    1.408   .     A
C352   C360    1.412   .     A
C352   I402    2.124   .     S
C353   H377    1.075   .     S
C353   N379    1.365   .     A
C354   N380    1.365   .     A
C354   H378    1.080   .     S
C355   H403    1.079   .     S
C355   N379    1.364   .     A
C355   C357    1.408   .     A
C356   H404    1.078   .     S
C356   C358    1.406   .     A
C356   N380    1.364   .     A
C357   C359    1.406   .     A
C357   H405    1.083   .     S
C358   C360    1.404   .     A
C358   H406    1.083   .     S
C360   C11     1.501   1_556 S
C361   O385    1.272   .     A
C361   C363    1.397   .     S
C361   O387    1.277   .     A
C362   O386    1.269   .     A
C362   C364    1.398   .     S
C362   O388    1.279   .     A
C363   C480    1.340   1_455 S
C363   I507    2.147   1_455 S
C364   C421    1.340   .     S
C364   I450    2.143   .     S
C365   C375    1.391   .     A
C365   C367    1.377   .     A
C365   H393    1.077   .     S
C366   H394    1.078   .     S
C366   C368    1.376   .     A
C366   C376    1.389   .     A
C367   C369    1.414   .     A
C367   I395    2.133   .     S
C368   I396    2.123   .     S
C368   C370    1.412   .     A
C369   C371    1.412   .     A
C370   C372    1.416   .     A
C371   I397    2.149   .     S
C371   C373    1.407   .     A
C372   I398    2.152   .     S
C372   C374    1.408   .     A
C373   I399    2.155   .     S
C373   C375    1.424   .     A
C374   I400    2.154   .     S
C374   C376    1.421   .     A
C375   C550    1.491   1_545 S
C376   C549    1.491   .     S
N379   Zn390   1.999   .     S
N380   Zn389   1.999   .     S
O381   Zn389   2.012   .     S
O382   Zn390   2.012   .     S
O383   Zn390   1.975   .     S
O384   Zn389   1.975   .     S
O385   Zn389   1.991   .     S
O386   Zn390   1.991   .     S
O387   Zn390   1.987   .     S
O388   Zn389   1.987   .     S
I391   C421    2.147   .     S
I392   C480    2.143   1_455 S
C407   C427    1.455   .     S
C407   O439    1.278   .     A
C407   O441    1.297   .     A
C408   C428    1.457   .     S
C408   O440    1.284   .     A
C408   O442    1.293   .     A
C409   C417    1.410   .     A
C409   I459    2.123   .     S
C409   C411    1.407   .     A
C410   C412    1.408   .     A
C410   C418    1.412   .     A
C410   I460    2.124   .     S
C411   H435    1.075   .     S
C411   N437    1.365   .     A
C412   N438    1.365   .     A
C412   H436    1.080   .     S
C413   H461    1.079   .     S
C413   N437    1.364   .     A
C413   C415    1.408   .     A
C414   H462    1.078   .     S
C414   C416    1.406   .     A
C414   N438    1.364   .     A
C415   C417    1.406   .     A
C415   H463    1.083   .     S
C416   C418    1.404   .     A
C416   H464    1.083   .     S
C418   C69     1.501   1_556 S
C419   O443    1.272   .     A
C419   C421    1.397   .     S
C419   O445    1.277   .     A
C420   O444    1.269   .     A
C420   C422    1.398   .     S
C420   O446    1.279   .     A
C422   C479    1.340   .     S
C422   I508    2.143   .     S
C423   C433    1.391   .     A
C423   C425    1.377   .     A
C423   H451    1.077   .     S
C424   H452    1.078   .     S
C424   C426    1.376   .     A
C424   C434    1.389   .     A
C425   C427    1.414   .     A
C425   I453    2.133   .     S
C426   I454    2.123   .     S
C426   C428    1.412   .     A
C427   C429    1.412   .     A
C428   C430    1.416   .     A
C429   I455    2.149   .     S
C429   C431    1.407   .     A
C430   I456    2.152   .     S
C430   C432    1.408   .     A
C431   I457    2.155   .     S
C431   C433    1.424   .     A
C432   I458    2.154   .     S
C432   C434    1.421   .     A
C433   C608    1.491   1_545 S
C434   C607    1.491   .     S
N437   Zn448   1.999   .     S
N438   Zn447   1.999   .     S
O439   Zn447   2.012   .     S
O440   Zn448   2.012   .     S
O441   Zn448   1.975   .     S
O442   Zn447   1.975   .     S
O443   Zn447   1.991   .     S
O444   Zn448   1.991   .     S
O445   Zn448   1.987   .     S
O446   Zn447   1.987   .     S
I449   C479    2.147   .     S
C465   C485    1.455   .     S
C465   O497    1.278   .     A
C465   O499    1.297   .     A
C466   C486    1.457   .     S
C466   O498    1.284   .     A
C466   O500    1.293   .     A
C467   C475    1.410   .     A
C467   I517    2.123   .     S
C467   C469    1.407   .     A
C468   C470    1.408   .     A
C468   C476    1.412   .     A
C468   I518    2.124   .     S
C469   H493    1.075   .     S
C469   N495    1.365   .     A
C470   N496    1.365   .     A
C470   H494    1.080   .     S
C471   H519    1.079   .     S
C471   N495    1.364   .     A
C471   C473    1.408   .     A
C472   H520    1.078   .     S
C472   C474    1.406   .     A
C472   N496    1.364   .     A
C473   C475    1.406   .     A
C473   H521    1.083   .     S
C474   C476    1.404   .     A
C474   H522    1.083   .     S
C476   C127    1.501   1_556 S
C477   O501    1.272   .     A
C477   C479    1.397   .     S
C477   O503    1.277   .     A
C478   O502    1.269   .     A
C478   C480    1.398   .     S
C478   O504    1.279   .     A
C480   C363    1.340   1_655 S
C480   I392    2.143   1_655 S
C481   C491    1.391   .     A
C481   C483    1.377   .     A
C481   H509    1.077   .     S
C482   H510    1.078   .     S
C482   C484    1.376   .     A
C482   C492    1.389   .     A
C483   C485    1.414   .     A
C483   I511    2.133   .     S
C484   I512    2.123   .     S
C484   C486    1.412   .     A
C485   C487    1.412   .     A
C486   C488    1.416   .     A
C487   I513    2.149   .     S
C487   C489    1.407   .     A
C488   I514    2.152   .     S
C488   C490    1.408   .     A
C489   I515    2.155   .     S
C489   C491    1.424   .     A
C490   I516    2.154   .     S
C490   C492    1.421   .     A
C491   C666    1.491   1_545 S
C492   C665    1.491   .     S
N495   Zn506   1.999   .     S
N496   Zn505   1.999   .     S
O497   Zn505   2.012   .     S
O498   Zn506   2.012   .     S
O499   Zn506   1.975   .     S
O500   Zn505   1.975   .     S
O501   Zn505   1.991   .     S
O502   Zn506   1.991   .     S
O503   Zn506   1.987   .     S
O504   Zn505   1.987   .     S
I507   C363    2.147   1_655 S
C523   C543    1.455   .     S
C523   O555    1.278   .     A
C523   O557    1.297   .     A
C524   C544    1.457   .     S
C524   O556    1.284   .     A
C524   O558    1.293   .     A
C525   C533    1.410   .     A
C525   I575    2.123   .     S
C525   C527    1.407   .     A
C526   C528    1.408   .     A
C526   C534    1.412   .     A
C526   I576    2.124   .     S
C527   H551    1.075   .     S
C527   N553    1.365   .     A
C528   N554    1.365   .     A
C528   H552    1.080   .     S
C529   H577    1.079   .     S
C529   N553    1.364   .     A
C529   C531    1.408   .     A
C530   H578    1.078   .     S
C530   C532    1.406   .     A
C530   N554    1.364   .     A
C531   C533    1.406   .     A
C531   H579    1.083   .     S
C532   C534    1.404   .     A
C532   H580    1.083   .     S
C534   C185    1.501   1_556 S
C535   O559    1.272   .     A
C535   C537    1.397   .     S
C535   O561    1.277   .     A
C536   O560    1.269   .     A
C536   C538    1.398   .     S
C536   O562    1.279   .     A
C537   C654    1.340   1_455 S
C537   I681    2.147   1_455 S
C538   C595    1.340   .     S
C538   I624    2.143   .     S
C539   C549    1.391   .     A
C539   C541    1.377   .     A
C539   H567    1.077   .     S
C540   H568    1.078   .     S
C540   C542    1.376   .     A
C540   C550    1.389   .     A
C541   C543    1.414   .     A
C541   I569    2.133   .     S
C542   I570    2.123   .     S
C542   C544    1.412   .     A
C543   C545    1.412   .     A
C544   C546    1.416   .     A
C545   I571    2.149   .     S
C545   C547    1.407   .     A
C546   I572    2.152   .     S
C546   C548    1.408   .     A
C547   I573    2.155   .     S
C547   C549    1.424   .     A
C548   I574    2.154   .     S
C548   C550    1.421   .     A
C550   C375    1.491   1_565 S
N553   Zn564   1.999   .     S
N554   Zn563   1.999   .     S
O555   Zn563   2.012   .     S
O556   Zn564   2.012   .     S
O557   Zn564   1.975   .     S
O558   Zn563   1.975   .     S
O559   Zn563   1.991   .     S
O560   Zn564   1.991   .     S
O561   Zn564   1.987   .     S
O562   Zn563   1.987   .     S
I565   C595    2.147   .     S
I566   C654    2.143   1_455 S
C581   C601    1.455   .     S
C581   O613    1.278   .     A
C581   O615    1.297   .     A
C582   C602    1.457   .     S
C582   O614    1.284   .     A
C582   O616    1.293   .     A
C583   C591    1.410   .     A
C583   I633    2.123   .     S
C583   C585    1.407   .     A
C584   C586    1.408   .     A
C584   C592    1.412   .     A
C584   I634    2.124   .     S
C585   H609    1.075   .     S
C585   N611    1.365   .     A
C586   N612    1.365   .     A
C586   H610    1.080   .     S
C587   H635    1.079   .     S
C587   N611    1.364   .     A
C587   C589    1.408   .     A
C588   H636    1.078   .     S
C588   C590    1.406   .     A
C588   N612    1.364   .     A
C589   C591    1.406   .     A
C589   H637    1.083   .     S
C590   C592    1.404   .     A
C590   H638    1.083   .     S
C592   C243    1.501   1_556 S
C593   O617    1.272   .     A
C593   C595    1.397   .     S
C593   O619    1.277   .     A
C594   O618    1.269   .     A
C594   C596    1.398   .     S
C594   O620    1.279   .     A
C596   C653    1.340   .     S
C596   I682    2.143   .     S
C597   C607    1.391   .     A
C597   C599    1.377   .     A
C597   H625    1.077   .     S
C598   H626    1.078   .     S
C598   C600    1.376   .     A
C598   C608    1.389   .     A
C599   C601    1.414   .     A
C599   I627    2.133   .     S
C600   I628    2.123   .     S
C600   C602    1.412   .     A
C601   C603    1.412   .     A
C602   C604    1.416   .     A
C603   I629    2.149   .     S
C603   C605    1.407   .     A
C604   I630    2.152   .     S
C604   C606    1.408   .     A
C605   I631    2.155   .     S
C605   C607    1.424   .     A
C606   I632    2.154   .     S
C606   C608    1.421   .     A
C608   C433    1.491   1_565 S
N611   Zn622   1.999   .     S
N612   Zn621   1.999   .     S
O613   Zn621   2.012   .     S
O614   Zn622   2.012   .     S
O615   Zn622   1.975   .     S
O616   Zn621   1.975   .     S
O617   Zn621   1.991   .     S
O618   Zn622   1.991   .     S
O619   Zn622   1.987   .     S
O620   Zn621   1.987   .     S
I623   C653    2.147   .     S
C639   C659    1.455   .     S
C639   O671    1.278   .     A
C639   O673    1.297   .     A
C640   C660    1.457   .     S
C640   O672    1.284   .     A
C640   O674    1.293   .     A
C641   C649    1.410   .     A
C641   I691    2.123   .     S
C641   C643    1.407   .     A
C642   C644    1.408   .     A
C642   C650    1.412   .     A
C642   I692    2.124   .     S
C643   H667    1.075   .     S
C643   N669    1.365   .     A
C644   N670    1.365   .     A
C644   H668    1.080   .     S
C645   H693    1.079   .     S
C645   N669    1.364   .     A
C645   C647    1.408   .     A
C646   H694    1.078   .     S
C646   C648    1.406   .     A
C646   N670    1.364   .     A
C647   C649    1.406   .     A
C647   H695    1.083   .     S
C648   C650    1.404   .     A
C648   H696    1.083   .     S
C650   C301    1.501   1_556 S
C651   O675    1.272   .     A
C651   C653    1.397   .     S
C651   O677    1.277   .     A
C652   O676    1.269   .     A
C652   C654    1.398   .     S
C652   O678    1.279   .     A
C654   C537    1.340   1_655 S
C654   I566    2.143   1_655 S
C655   C665    1.391   .     A
C655   C657    1.377   .     A
C655   H683    1.077   .     S
C656   H684    1.078   .     S
C656   C658    1.376   .     A
C656   C666    1.389   .     A
C657   C659    1.414   .     A
C657   I685    2.133   .     S
C658   I686    2.123   .     S
C658   C660    1.412   .     A
C659   C661    1.412   .     A
C660   C662    1.416   .     A
C661   I687    2.149   .     S
C661   C663    1.407   .     A
C662   I688    2.152   .     S
C662   C664    1.408   .     A
C663   I689    2.155   .     S
C663   C665    1.424   .     A
C664   I690    2.154   .     S
C664   C666    1.421   .     A
C666   C491    1.491   1_565 S
N669   Zn680   1.999   .     S
N670   Zn679   1.999   .     S
O671   Zn679   2.012   .     S
O672   Zn680   2.012   .     S
O673   Zn680   1.975   .     S
O674   Zn679   1.975   .     S
O675   Zn679   1.991   .     S
O676   Zn680   1.991   .     S
O677   Zn680   1.987   .     S
O678   Zn679   1.987   .     S
I681   C537    2.147   1_655 S
