data_str_m2_o1_o1_pcu_sym.67
_audit_creation_date              2020-01-03
_audit_creation_method            'Materials Studio'
_symmetry_space_group_name_H-M    'P1'
_symmetry_Int_Tables_number       1
_symmetry_cell_setting            triclinic
loop_
_symmetry_equiv_pos_as_xyz
  x,y,z
_cell_length_a                    31.6753
_cell_length_b                    29.7029
_cell_length_c                    28.9341
_cell_angle_alpha                 90.0003
_cell_angle_beta                  89.9999
_cell_angle_gamma                 90.0000
loop_
_atom_site_label
_atom_site_type_symbol
_atom_site_fract_x
_atom_site_fract_y
_atom_site_fract_z
_atom_site_U_iso_or_equiv
_atom_site_adp_type
_atom_site_occupancy
O1     O     0.04509   0.20491   0.20625   0.00000  Uiso   1.00
O2     O     0.45492   0.29509   0.12709   0.00000  Uiso   1.00
O3     O     0.45492   0.29509   0.20625   0.00000  Uiso   1.00
O4     O     0.04509   0.20491   0.12709   0.00000  Uiso   1.00
O5     O     0.45492   0.20491   0.12709   0.00000  Uiso   1.00
O6     O     0.04509   0.29509   0.20625   0.00000  Uiso   1.00
O7     O     0.04509   0.29509   0.12709   0.00000  Uiso   1.00
O8     O     0.45492   0.20491   0.20625   0.00000  Uiso   1.00
O9     O     0.29509   0.45491   0.20625   0.00000  Uiso   1.00
O10    O     0.20492   0.04509   0.12709   0.00000  Uiso   1.00
O11    O     0.20492   0.04509   0.20625   0.00000  Uiso   1.00
O12    O     0.29509   0.45491   0.12709   0.00000  Uiso   1.00
O13    O     0.20492   0.45491   0.12709   0.00000  Uiso   1.00
O14    O     0.29509   0.04509   0.20625   0.00000  Uiso   1.00
O15    O     0.29509   0.04509   0.12709   0.00000  Uiso   1.00
O16    O     0.20492   0.45491   0.20625   0.00000  Uiso   1.00
C17    C     0.06194   0.19353   0.16639   0.00000  Uiso   1.00
C18    C     0.43806   0.30647   0.16639   0.00000  Uiso   1.00
C19    C     0.43806   0.19353   0.16694   0.00000  Uiso   1.00
C20    C     0.06194   0.30647   0.16694   0.00000  Uiso   1.00
C21    C     0.31194   0.44353   0.16694   0.00000  Uiso   1.00
C22    C     0.18806   0.05647   0.16694   0.00000  Uiso   1.00
C23    C     0.18806   0.44353   0.16639   0.00000  Uiso   1.00
C24    C     0.31194   0.05647   0.16639   0.00000  Uiso   1.00
N25    N     0.00000   0.25000   0.28402   0.00000  Uiso   1.00
N26    N     0.00000   0.25000   0.04931   0.00000  Uiso   1.00
N27    N     0.25000   0.00000   0.28402   0.00000  Uiso   1.00
N28    N     0.25000   0.00000   0.04931   0.00000  Uiso   1.00
Cu29   Cu    0.00000   0.25000   0.21355   0.00000  Uiso   1.00
Cu30   Cu    0.00000   0.25000   0.11978   0.00000  Uiso   1.00
Cu31   Cu    0.25000   0.00000   0.21355   0.00000  Uiso   1.00
Cu32   Cu    0.25000   0.00000   0.11978   0.00000  Uiso   1.00
C33    C     0.49741   0.21045   0.02446   0.00000  Uiso   1.00
C34    C     0.49741   0.28955   0.30887   0.00000  Uiso   1.00
C35    C     0.00259   0.28955   0.02446   0.00000  Uiso   1.00
C36    C     0.00259   0.21045   0.30887   0.00000  Uiso   1.00
C37    C     0.25259   0.46045   0.02446   0.00000  Uiso   1.00
C38    C     0.25259   0.03955   0.30887   0.00000  Uiso   1.00
C39    C     0.24741   0.03955   0.02446   0.00000  Uiso   1.00
C40    C     0.24741   0.46045   0.30887   0.00000  Uiso   1.00
C41    C     0.38234   0.14993   0.12640   0.00000  Uiso   1.00
C42    C     0.10946   0.36002   0.20914   0.00000  Uiso   1.00
C43    C     0.11766   0.35007   0.12640   0.00000  Uiso   1.00
C44    C     0.39054   0.13999   0.20914   0.00000  Uiso   1.00
C45    C     0.11766   0.14993   0.20693   0.00000  Uiso   1.00
C46    C     0.39054   0.36001   0.12420   0.00000  Uiso   1.00
C47    C     0.38234   0.35007   0.20693   0.00000  Uiso   1.00
C48    C     0.10945   0.13998   0.12420   0.00000  Uiso   1.00
C49    C     0.14055   0.38998   0.12420   0.00000  Uiso   1.00
C50    C     0.36766   0.10007   0.20693   0.00000  Uiso   1.00
C51    C     0.35946   0.11001   0.12420   0.00000  Uiso   1.00
C52    C     0.13234   0.39993   0.20693   0.00000  Uiso   1.00
C53    C     0.35946   0.38999   0.20914   0.00000  Uiso   1.00
C54    C     0.13234   0.10007   0.12640   0.00000  Uiso   1.00
C55    C     0.14055   0.11002   0.20914   0.00000  Uiso   1.00
C56    C     0.36766   0.39993   0.12640   0.00000  Uiso   1.00
C57    C     0.09815   0.33755   0.16793   0.00000  Uiso   1.00
C58    C     0.40185   0.16245   0.16793   0.00000  Uiso   1.00
C59    C     0.40185   0.33755   0.16540   0.00000  Uiso   1.00
C60    C     0.09815   0.16245   0.16540   0.00000  Uiso   1.00
C61    C     0.34815   0.08755   0.16540   0.00000  Uiso   1.00
C62    C     0.15185   0.41245   0.16540   0.00000  Uiso   1.00
C63    C     0.15185   0.08755   0.16793   0.00000  Uiso   1.00
C64    C     0.34815   0.41245   0.16793   0.00000  Uiso   1.00
N65    N     0.48597   0.16864   0.04626   0.00000  Uiso   1.00
O66    O     0.01170   0.14846   0.07427   0.00000  Uiso   1.00
O67    O     0.45531   0.14505   0.02880   0.00000  Uiso   1.00
N68    N     0.48598   0.33136   0.28707   0.00000  Uiso   1.00
O69    O     0.45531   0.35495   0.30453   0.00000  Uiso   1.00
O70    O     0.01171   0.35154   0.25907   0.00000  Uiso   1.00
N71    N     0.01402   0.33136   0.04626   0.00000  Uiso   1.00
O72    O     0.04469   0.35495   0.02881   0.00000  Uiso   1.00
O73    O     0.48829   0.35154   0.07427   0.00000  Uiso   1.00
N74    N     0.01403   0.16864   0.28707   0.00000  Uiso   1.00
O75    O     0.48830   0.14846   0.25906   0.00000  Uiso   1.00
O76    O     0.04469   0.14505   0.30453   0.00000  Uiso   1.00
N77    N     0.26403   0.41864   0.04626   0.00000  Uiso   1.00
O78    O     0.29469   0.39505   0.02880   0.00000  Uiso   1.00
O79    O     0.23830   0.39846   0.07427   0.00000  Uiso   1.00
N80    N     0.26403   0.08136   0.28707   0.00000  Uiso   1.00
O81    O     0.23830   0.10154   0.25906   0.00000  Uiso   1.00
O82    O     0.29469   0.10495   0.30453   0.00000  Uiso   1.00
N83    N     0.23597   0.08136   0.04626   0.00000  Uiso   1.00
O84    O     0.26170   0.10154   0.07427   0.00000  Uiso   1.00
O85    O     0.20531   0.10495   0.02880   0.00000  Uiso   1.00
N86    N     0.23598   0.41864   0.28707   0.00000  Uiso   1.00
O87    O     0.20531   0.39505   0.30453   0.00000  Uiso   1.00
O88    O     0.26171   0.39846   0.25907   0.00000  Uiso   1.00
I89    I     0.37369   0.19777   0.07216   0.00000  Uiso   1.00
I90    I     0.10832   0.32763   0.27485   0.00000  Uiso   1.00
I91    I     0.12631   0.30223   0.07217   0.00000  Uiso   1.00
I92    I     0.39168   0.17237   0.27485   0.00000  Uiso   1.00
I93    I     0.12631   0.19777   0.26117   0.00000  Uiso   1.00
I94    I     0.39168   0.32763   0.05849   0.00000  Uiso   1.00
I95    I     0.37369   0.30223   0.26117   0.00000  Uiso   1.00
I96    I     0.10832   0.17237   0.05849   0.00000  Uiso   1.00
I97    I     0.14168   0.42237   0.05849   0.00000  Uiso   1.00
I98    I     0.37631   0.05223   0.26117   0.00000  Uiso   1.00
I99    I     0.35832   0.07763   0.05849   0.00000  Uiso   1.00
I100   I     0.12369   0.44777   0.26117   0.00000  Uiso   1.00
I101   I     0.35832   0.42237   0.27485   0.00000  Uiso   1.00
I102   I     0.12369   0.05223   0.07216   0.00000  Uiso   1.00
I103   I     0.14168   0.07763   0.27485   0.00000  Uiso   1.00
I104   I     0.37631   0.44777   0.07216   0.00000  Uiso   1.00
O105   O     0.54509   0.20491   0.20625   0.00000  Uiso   1.00
O106   O     0.95492   0.29509   0.12709   0.00000  Uiso   1.00
O107   O     0.95492   0.29509   0.20625   0.00000  Uiso   1.00
O108   O     0.54509   0.20491   0.12709   0.00000  Uiso   1.00
O109   O     0.95492   0.20491   0.12709   0.00000  Uiso   1.00
O110   O     0.54509   0.29509   0.20625   0.00000  Uiso   1.00
O111   O     0.54509   0.29509   0.12709   0.00000  Uiso   1.00
O112   O     0.95492   0.20491   0.20625   0.00000  Uiso   1.00
O113   O     0.79509   0.45491   0.20625   0.00000  Uiso   1.00
O114   O     0.70492   0.04509   0.12709   0.00000  Uiso   1.00
O115   O     0.70492   0.04509   0.20625   0.00000  Uiso   1.00
O116   O     0.79509   0.45491   0.12709   0.00000  Uiso   1.00
O117   O     0.70492   0.45491   0.12709   0.00000  Uiso   1.00
O118   O     0.79509   0.04509   0.20625   0.00000  Uiso   1.00
O119   O     0.79509   0.04509   0.12709   0.00000  Uiso   1.00
O120   O     0.70492   0.45491   0.20625   0.00000  Uiso   1.00
C121   C     0.56194   0.19353   0.16639   0.00000  Uiso   1.00
C122   C     0.93806   0.30647   0.16639   0.00000  Uiso   1.00
C123   C     0.93806   0.19353   0.16694   0.00000  Uiso   1.00
C124   C     0.56194   0.30647   0.16694   0.00000  Uiso   1.00
C125   C     0.81194   0.44353   0.16694   0.00000  Uiso   1.00
C126   C     0.68806   0.05647   0.16694   0.00000  Uiso   1.00
C127   C     0.68806   0.44353   0.16639   0.00000  Uiso   1.00
C128   C     0.81194   0.05647   0.16639   0.00000  Uiso   1.00
N129   N     0.50000   0.25000   0.28402   0.00000  Uiso   1.00
N130   N     0.50000   0.25000   0.04931   0.00000  Uiso   1.00
N131   N     0.75000   0.00000   0.28402   0.00000  Uiso   1.00
N132   N     0.75000   0.00000   0.04931   0.00000  Uiso   1.00
Cu133  Cu    0.50000   0.25000   0.21355   0.00000  Uiso   1.00
Cu134  Cu    0.50000   0.25000   0.11978   0.00000  Uiso   1.00
Cu135  Cu    0.75000   0.00000   0.21355   0.00000  Uiso   1.00
Cu136  Cu    0.75000   0.00000   0.11978   0.00000  Uiso   1.00
C137   C     0.99741   0.21045   0.02446   0.00000  Uiso   1.00
C138   C     0.99741   0.28955   0.30887   0.00000  Uiso   1.00
C139   C     0.50259   0.28955   0.02446   0.00000  Uiso   1.00
C140   C     0.50259   0.21045   0.30887   0.00000  Uiso   1.00
C141   C     0.75259   0.46045   0.02446   0.00000  Uiso   1.00
C142   C     0.75259   0.03955   0.30887   0.00000  Uiso   1.00
C143   C     0.74741   0.03955   0.02446   0.00000  Uiso   1.00
C144   C     0.74741   0.46045   0.30887   0.00000  Uiso   1.00
C145   C     0.88234   0.14993   0.12640   0.00000  Uiso   1.00
C146   C     0.60946   0.36002   0.20914   0.00000  Uiso   1.00
C147   C     0.61766   0.35007   0.12640   0.00000  Uiso   1.00
C148   C     0.89054   0.13999   0.20914   0.00000  Uiso   1.00
C149   C     0.61766   0.14993   0.20693   0.00000  Uiso   1.00
C150   C     0.89054   0.36001   0.12420   0.00000  Uiso   1.00
C151   C     0.88234   0.35007   0.20693   0.00000  Uiso   1.00
C152   C     0.60945   0.13998   0.12420   0.00000  Uiso   1.00
C153   C     0.64055   0.38998   0.12420   0.00000  Uiso   1.00
C154   C     0.86766   0.10007   0.20693   0.00000  Uiso   1.00
C155   C     0.85946   0.11001   0.12420   0.00000  Uiso   1.00
C156   C     0.63234   0.39993   0.20693   0.00000  Uiso   1.00
C157   C     0.85946   0.38999   0.20914   0.00000  Uiso   1.00
C158   C     0.63234   0.10007   0.12640   0.00000  Uiso   1.00
C159   C     0.64055   0.11002   0.20914   0.00000  Uiso   1.00
C160   C     0.86766   0.39993   0.12640   0.00000  Uiso   1.00
C161   C     0.59815   0.33755   0.16793   0.00000  Uiso   1.00
C162   C     0.90185   0.16245   0.16793   0.00000  Uiso   1.00
C163   C     0.90185   0.33755   0.16540   0.00000  Uiso   1.00
C164   C     0.59815   0.16245   0.16540   0.00000  Uiso   1.00
C165   C     0.84815   0.08755   0.16540   0.00000  Uiso   1.00
C166   C     0.65185   0.41245   0.16540   0.00000  Uiso   1.00
C167   C     0.65185   0.08755   0.16793   0.00000  Uiso   1.00
C168   C     0.84815   0.41245   0.16793   0.00000  Uiso   1.00
N169   N     0.98597   0.16864   0.04626   0.00000  Uiso   1.00
O170   O     0.51170   0.14846   0.07427   0.00000  Uiso   1.00
O171   O     0.95531   0.14505   0.02880   0.00000  Uiso   1.00
N172   N     0.98598   0.33136   0.28707   0.00000  Uiso   1.00
O173   O     0.95531   0.35495   0.30453   0.00000  Uiso   1.00
O174   O     0.51171   0.35154   0.25907   0.00000  Uiso   1.00
N175   N     0.51402   0.33136   0.04626   0.00000  Uiso   1.00
O176   O     0.54469   0.35495   0.02881   0.00000  Uiso   1.00
O177   O     0.98829   0.35154   0.07427   0.00000  Uiso   1.00
N178   N     0.51403   0.16864   0.28707   0.00000  Uiso   1.00
O179   O     0.98830   0.14846   0.25906   0.00000  Uiso   1.00
O180   O     0.54469   0.14505   0.30453   0.00000  Uiso   1.00
N181   N     0.76403   0.41864   0.04626   0.00000  Uiso   1.00
O182   O     0.79469   0.39505   0.02880   0.00000  Uiso   1.00
O183   O     0.73830   0.39846   0.07427   0.00000  Uiso   1.00
N184   N     0.76403   0.08136   0.28707   0.00000  Uiso   1.00
O185   O     0.73830   0.10154   0.25906   0.00000  Uiso   1.00
O186   O     0.79469   0.10495   0.30453   0.00000  Uiso   1.00
N187   N     0.73597   0.08136   0.04626   0.00000  Uiso   1.00
O188   O     0.76170   0.10154   0.07427   0.00000  Uiso   1.00
O189   O     0.70531   0.10495   0.02880   0.00000  Uiso   1.00
N190   N     0.73598   0.41864   0.28707   0.00000  Uiso   1.00
O191   O     0.70531   0.39505   0.30453   0.00000  Uiso   1.00
O192   O     0.76171   0.39846   0.25907   0.00000  Uiso   1.00
I193   I     0.87369   0.19777   0.07216   0.00000  Uiso   1.00
I194   I     0.60832   0.32763   0.27485   0.00000  Uiso   1.00
I195   I     0.62631   0.30223   0.07217   0.00000  Uiso   1.00
I196   I     0.89168   0.17237   0.27485   0.00000  Uiso   1.00
I197   I     0.62631   0.19777   0.26117   0.00000  Uiso   1.00
I198   I     0.89168   0.32763   0.05849   0.00000  Uiso   1.00
I199   I     0.87369   0.30223   0.26117   0.00000  Uiso   1.00
I200   I     0.60832   0.17237   0.05849   0.00000  Uiso   1.00
I201   I     0.64168   0.42237   0.05849   0.00000  Uiso   1.00
I202   I     0.87631   0.05223   0.26117   0.00000  Uiso   1.00
I203   I     0.85832   0.07763   0.05849   0.00000  Uiso   1.00
I204   I     0.62369   0.44777   0.26117   0.00000  Uiso   1.00
I205   I     0.85832   0.42237   0.27485   0.00000  Uiso   1.00
I206   I     0.62369   0.05223   0.07216   0.00000  Uiso   1.00
I207   I     0.64168   0.07763   0.27485   0.00000  Uiso   1.00
I208   I     0.87631   0.44777   0.07216   0.00000  Uiso   1.00
O209   O     0.04509   0.70491   0.20625   0.00000  Uiso   1.00
O210   O     0.45492   0.79509   0.12709   0.00000  Uiso   1.00
O211   O     0.45492   0.79509   0.20625   0.00000  Uiso   1.00
O212   O     0.04509   0.70491   0.12709   0.00000  Uiso   1.00
O213   O     0.45492   0.70491   0.12709   0.00000  Uiso   1.00
O214   O     0.04509   0.79509   0.20625   0.00000  Uiso   1.00
O215   O     0.04509   0.79509   0.12709   0.00000  Uiso   1.00
O216   O     0.45492   0.70491   0.20625   0.00000  Uiso   1.00
O217   O     0.29509   0.95491   0.20625   0.00000  Uiso   1.00
O218   O     0.20492   0.54509   0.12709   0.00000  Uiso   1.00
O219   O     0.20492   0.54509   0.20625   0.00000  Uiso   1.00
O220   O     0.29509   0.95491   0.12709   0.00000  Uiso   1.00
O221   O     0.20492   0.95491   0.12709   0.00000  Uiso   1.00
O222   O     0.29509   0.54509   0.20625   0.00000  Uiso   1.00
O223   O     0.29509   0.54509   0.12709   0.00000  Uiso   1.00
O224   O     0.20492   0.95491   0.20625   0.00000  Uiso   1.00
C225   C     0.06194   0.69353   0.16639   0.00000  Uiso   1.00
C226   C     0.43806   0.80647   0.16639   0.00000  Uiso   1.00
C227   C     0.43806   0.69353   0.16694   0.00000  Uiso   1.00
C228   C     0.06194   0.80647   0.16694   0.00000  Uiso   1.00
C229   C     0.31194   0.94353   0.16694   0.00000  Uiso   1.00
C230   C     0.18806   0.55647   0.16694   0.00000  Uiso   1.00
C231   C     0.18806   0.94353   0.16639   0.00000  Uiso   1.00
C232   C     0.31194   0.55647   0.16639   0.00000  Uiso   1.00
N233   N     0.00000   0.75000   0.28402   0.00000  Uiso   1.00
N234   N     0.00000   0.75000   0.04931   0.00000  Uiso   1.00
N235   N     0.25000   0.50000   0.28402   0.00000  Uiso   1.00
N236   N     0.25000   0.50000   0.04931   0.00000  Uiso   1.00
Cu237  Cu    0.00000   0.75000   0.21355   0.00000  Uiso   1.00
Cu238  Cu    0.00000   0.75000   0.11978   0.00000  Uiso   1.00
Cu239  Cu    0.25000   0.50000   0.21355   0.00000  Uiso   1.00
Cu240  Cu    0.25000   0.50000   0.11978   0.00000  Uiso   1.00
C241   C     0.49741   0.71045   0.02446   0.00000  Uiso   1.00
C242   C     0.49741   0.78955   0.30887   0.00000  Uiso   1.00
C243   C     0.00259   0.78955   0.02446   0.00000  Uiso   1.00
C244   C     0.00259   0.71045   0.30887   0.00000  Uiso   1.00
C245   C     0.25259   0.96045   0.02446   0.00000  Uiso   1.00
C246   C     0.25259   0.53955   0.30887   0.00000  Uiso   1.00
C247   C     0.24741   0.53955   0.02446   0.00000  Uiso   1.00
C248   C     0.24741   0.96045   0.30887   0.00000  Uiso   1.00
C249   C     0.38234   0.64993   0.12640   0.00000  Uiso   1.00
C250   C     0.10946   0.86002   0.20914   0.00000  Uiso   1.00
C251   C     0.11766   0.85007   0.12640   0.00000  Uiso   1.00
C252   C     0.39054   0.63999   0.20914   0.00000  Uiso   1.00
C253   C     0.11766   0.64993   0.20693   0.00000  Uiso   1.00
C254   C     0.39054   0.86001   0.12420   0.00000  Uiso   1.00
C255   C     0.38234   0.85007   0.20693   0.00000  Uiso   1.00
C256   C     0.10945   0.63998   0.12420   0.00000  Uiso   1.00
C257   C     0.14055   0.88998   0.12420   0.00000  Uiso   1.00
C258   C     0.36766   0.60007   0.20693   0.00000  Uiso   1.00
C259   C     0.35946   0.61001   0.12420   0.00000  Uiso   1.00
C260   C     0.13234   0.89993   0.20693   0.00000  Uiso   1.00
C261   C     0.35946   0.88999   0.20914   0.00000  Uiso   1.00
C262   C     0.13234   0.60007   0.12640   0.00000  Uiso   1.00
C263   C     0.14055   0.61002   0.20914   0.00000  Uiso   1.00
C264   C     0.36766   0.89993   0.12640   0.00000  Uiso   1.00
C265   C     0.09815   0.83755   0.16793   0.00000  Uiso   1.00
C266   C     0.40185   0.66245   0.16793   0.00000  Uiso   1.00
C267   C     0.40185   0.83755   0.16540   0.00000  Uiso   1.00
C268   C     0.09815   0.66245   0.16540   0.00000  Uiso   1.00
C269   C     0.34815   0.58755   0.16540   0.00000  Uiso   1.00
C270   C     0.15185   0.91245   0.16540   0.00000  Uiso   1.00
C271   C     0.15185   0.58755   0.16793   0.00000  Uiso   1.00
C272   C     0.34815   0.91245   0.16793   0.00000  Uiso   1.00
N273   N     0.48597   0.66864   0.04626   0.00000  Uiso   1.00
O274   O     0.01170   0.64846   0.07427   0.00000  Uiso   1.00
O275   O     0.45531   0.64505   0.02880   0.00000  Uiso   1.00
N276   N     0.48598   0.83136   0.28707   0.00000  Uiso   1.00
O277   O     0.45531   0.85495   0.30453   0.00000  Uiso   1.00
O278   O     0.01171   0.85154   0.25907   0.00000  Uiso   1.00
N279   N     0.01402   0.83136   0.04626   0.00000  Uiso   1.00
O280   O     0.04469   0.85495   0.02881   0.00000  Uiso   1.00
O281   O     0.48829   0.85154   0.07427   0.00000  Uiso   1.00
N282   N     0.01403   0.66864   0.28707   0.00000  Uiso   1.00
O283   O     0.48830   0.64846   0.25906   0.00000  Uiso   1.00
O284   O     0.04469   0.64505   0.30453   0.00000  Uiso   1.00
N285   N     0.26403   0.91864   0.04626   0.00000  Uiso   1.00
O286   O     0.29469   0.89505   0.02880   0.00000  Uiso   1.00
O287   O     0.23830   0.89846   0.07427   0.00000  Uiso   1.00
N288   N     0.26403   0.58136   0.28707   0.00000  Uiso   1.00
O289   O     0.23830   0.60154   0.25906   0.00000  Uiso   1.00
O290   O     0.29469   0.60495   0.30453   0.00000  Uiso   1.00
N291   N     0.23597   0.58136   0.04626   0.00000  Uiso   1.00
O292   O     0.26170   0.60154   0.07427   0.00000  Uiso   1.00
O293   O     0.20531   0.60495   0.02880   0.00000  Uiso   1.00
N294   N     0.23598   0.91864   0.28707   0.00000  Uiso   1.00
O295   O     0.20531   0.89505   0.30453   0.00000  Uiso   1.00
O296   O     0.26171   0.89846   0.25907   0.00000  Uiso   1.00
I297   I     0.37369   0.69777   0.07216   0.00000  Uiso   1.00
I298   I     0.10832   0.82763   0.27485   0.00000  Uiso   1.00
I299   I     0.12631   0.80223   0.07217   0.00000  Uiso   1.00
I300   I     0.39168   0.67237   0.27485   0.00000  Uiso   1.00
I301   I     0.12631   0.69777   0.26117   0.00000  Uiso   1.00
I302   I     0.39168   0.82763   0.05849   0.00000  Uiso   1.00
I303   I     0.37369   0.80223   0.26117   0.00000  Uiso   1.00
I304   I     0.10832   0.67237   0.05849   0.00000  Uiso   1.00
I305   I     0.14168   0.92237   0.05849   0.00000  Uiso   1.00
I306   I     0.37631   0.55223   0.26117   0.00000  Uiso   1.00
I307   I     0.35832   0.57763   0.05849   0.00000  Uiso   1.00
I308   I     0.12369   0.94777   0.26117   0.00000  Uiso   1.00
I309   I     0.35832   0.92237   0.27485   0.00000  Uiso   1.00
I310   I     0.12369   0.55223   0.07216   0.00000  Uiso   1.00
I311   I     0.14168   0.57763   0.27485   0.00000  Uiso   1.00
I312   I     0.37631   0.94777   0.07216   0.00000  Uiso   1.00
O313   O     0.54509   0.70491   0.20625   0.00000  Uiso   1.00
O314   O     0.95492   0.79509   0.12709   0.00000  Uiso   1.00
O315   O     0.95492   0.79509   0.20625   0.00000  Uiso   1.00
O316   O     0.54509   0.70491   0.12709   0.00000  Uiso   1.00
O317   O     0.95492   0.70491   0.12709   0.00000  Uiso   1.00
O318   O     0.54509   0.79509   0.20625   0.00000  Uiso   1.00
O319   O     0.54509   0.79509   0.12709   0.00000  Uiso   1.00
O320   O     0.95492   0.70491   0.20625   0.00000  Uiso   1.00
O321   O     0.79509   0.95491   0.20625   0.00000  Uiso   1.00
O322   O     0.70492   0.54509   0.12709   0.00000  Uiso   1.00
O323   O     0.70492   0.54509   0.20625   0.00000  Uiso   1.00
O324   O     0.79509   0.95491   0.12709   0.00000  Uiso   1.00
O325   O     0.70492   0.95491   0.12709   0.00000  Uiso   1.00
O326   O     0.79509   0.54509   0.20625   0.00000  Uiso   1.00
O327   O     0.79509   0.54509   0.12709   0.00000  Uiso   1.00
O328   O     0.70492   0.95491   0.20625   0.00000  Uiso   1.00
C329   C     0.56194   0.69353   0.16639   0.00000  Uiso   1.00
C330   C     0.93806   0.80647   0.16639   0.00000  Uiso   1.00
C331   C     0.93806   0.69353   0.16694   0.00000  Uiso   1.00
C332   C     0.56194   0.80647   0.16694   0.00000  Uiso   1.00
C333   C     0.81194   0.94353   0.16694   0.00000  Uiso   1.00
C334   C     0.68806   0.55647   0.16694   0.00000  Uiso   1.00
C335   C     0.68806   0.94353   0.16639   0.00000  Uiso   1.00
C336   C     0.81194   0.55647   0.16639   0.00000  Uiso   1.00
N337   N     0.50000   0.75000   0.28402   0.00000  Uiso   1.00
N338   N     0.50000   0.75000   0.04931   0.00000  Uiso   1.00
N339   N     0.75000   0.50000   0.28402   0.00000  Uiso   1.00
N340   N     0.75000   0.50000   0.04931   0.00000  Uiso   1.00
Cu341  Cu    0.50000   0.75000   0.21355   0.00000  Uiso   1.00
Cu342  Cu    0.50000   0.75000   0.11978   0.00000  Uiso   1.00
Cu343  Cu    0.75000   0.50000   0.21355   0.00000  Uiso   1.00
Cu344  Cu    0.75000   0.50000   0.11978   0.00000  Uiso   1.00
C345   C     0.99741   0.71045   0.02446   0.00000  Uiso   1.00
C346   C     0.99741   0.78955   0.30887   0.00000  Uiso   1.00
C347   C     0.50259   0.78955   0.02446   0.00000  Uiso   1.00
C348   C     0.50259   0.71045   0.30887   0.00000  Uiso   1.00
C349   C     0.75259   0.96045   0.02446   0.00000  Uiso   1.00
C350   C     0.75259   0.53955   0.30887   0.00000  Uiso   1.00
C351   C     0.74741   0.53955   0.02446   0.00000  Uiso   1.00
C352   C     0.74741   0.96045   0.30887   0.00000  Uiso   1.00
C353   C     0.88234   0.64993   0.12640   0.00000  Uiso   1.00
C354   C     0.60946   0.86002   0.20914   0.00000  Uiso   1.00
C355   C     0.61766   0.85007   0.12640   0.00000  Uiso   1.00
C356   C     0.89054   0.63999   0.20914   0.00000  Uiso   1.00
C357   C     0.61766   0.64993   0.20693   0.00000  Uiso   1.00
C358   C     0.89054   0.86001   0.12420   0.00000  Uiso   1.00
C359   C     0.88234   0.85007   0.20693   0.00000  Uiso   1.00
C360   C     0.60945   0.63998   0.12420   0.00000  Uiso   1.00
C361   C     0.64055   0.88998   0.12420   0.00000  Uiso   1.00
C362   C     0.86766   0.60007   0.20693   0.00000  Uiso   1.00
C363   C     0.85946   0.61001   0.12420   0.00000  Uiso   1.00
C364   C     0.63234   0.89993   0.20693   0.00000  Uiso   1.00
C365   C     0.85946   0.88999   0.20914   0.00000  Uiso   1.00
C366   C     0.63234   0.60007   0.12640   0.00000  Uiso   1.00
C367   C     0.64055   0.61002   0.20914   0.00000  Uiso   1.00
C368   C     0.86766   0.89993   0.12640   0.00000  Uiso   1.00
C369   C     0.59815   0.83755   0.16793   0.00000  Uiso   1.00
C370   C     0.90185   0.66245   0.16793   0.00000  Uiso   1.00
C371   C     0.90185   0.83755   0.16540   0.00000  Uiso   1.00
C372   C     0.59815   0.66245   0.16540   0.00000  Uiso   1.00
C373   C     0.84815   0.58755   0.16540   0.00000  Uiso   1.00
C374   C     0.65185   0.91245   0.16540   0.00000  Uiso   1.00
C375   C     0.65185   0.58755   0.16793   0.00000  Uiso   1.00
C376   C     0.84815   0.91245   0.16793   0.00000  Uiso   1.00
N377   N     0.98597   0.66864   0.04626   0.00000  Uiso   1.00
O378   O     0.51170   0.64846   0.07427   0.00000  Uiso   1.00
O379   O     0.95531   0.64505   0.02880   0.00000  Uiso   1.00
N380   N     0.98598   0.83136   0.28707   0.00000  Uiso   1.00
O381   O     0.95531   0.85495   0.30453   0.00000  Uiso   1.00
O382   O     0.51171   0.85154   0.25907   0.00000  Uiso   1.00
N383   N     0.51402   0.83136   0.04626   0.00000  Uiso   1.00
O384   O     0.54469   0.85495   0.02881   0.00000  Uiso   1.00
O385   O     0.98829   0.85154   0.07427   0.00000  Uiso   1.00
N386   N     0.51403   0.66864   0.28707   0.00000  Uiso   1.00
O387   O     0.98830   0.64846   0.25906   0.00000  Uiso   1.00
O388   O     0.54469   0.64505   0.30453   0.00000  Uiso   1.00
N389   N     0.76403   0.91864   0.04626   0.00000  Uiso   1.00
O390   O     0.79469   0.89505   0.02880   0.00000  Uiso   1.00
O391   O     0.73830   0.89846   0.07427   0.00000  Uiso   1.00
N392   N     0.76403   0.58136   0.28707   0.00000  Uiso   1.00
O393   O     0.73830   0.60154   0.25906   0.00000  Uiso   1.00
O394   O     0.79469   0.60495   0.30453   0.00000  Uiso   1.00
N395   N     0.73597   0.58136   0.04626   0.00000  Uiso   1.00
O396   O     0.76170   0.60154   0.07427   0.00000  Uiso   1.00
O397   O     0.70531   0.60495   0.02880   0.00000  Uiso   1.00
N398   N     0.73598   0.91864   0.28707   0.00000  Uiso   1.00
O399   O     0.70531   0.89505   0.30453   0.00000  Uiso   1.00
O400   O     0.76171   0.89846   0.25907   0.00000  Uiso   1.00
I401   I     0.87369   0.69777   0.07216   0.00000  Uiso   1.00
I402   I     0.60832   0.82763   0.27485   0.00000  Uiso   1.00
I403   I     0.62631   0.80223   0.07217   0.00000  Uiso   1.00
I404   I     0.89168   0.67237   0.27485   0.00000  Uiso   1.00
I405   I     0.62631   0.69777   0.26117   0.00000  Uiso   1.00
I406   I     0.89168   0.82763   0.05849   0.00000  Uiso   1.00
I407   I     0.87369   0.80223   0.26117   0.00000  Uiso   1.00
I408   I     0.60832   0.67237   0.05849   0.00000  Uiso   1.00
I409   I     0.64168   0.92237   0.05849   0.00000  Uiso   1.00
I410   I     0.87631   0.55223   0.26117   0.00000  Uiso   1.00
I411   I     0.85832   0.57763   0.05849   0.00000  Uiso   1.00
I412   I     0.62369   0.94777   0.26117   0.00000  Uiso   1.00
I413   I     0.85832   0.92237   0.27485   0.00000  Uiso   1.00
I414   I     0.62369   0.55223   0.07216   0.00000  Uiso   1.00
I415   I     0.64168   0.57763   0.27485   0.00000  Uiso   1.00
I416   I     0.87631   0.94777   0.07216   0.00000  Uiso   1.00
O417   O     0.04509   0.20491   0.53958   0.00000  Uiso   1.00
O418   O     0.45492   0.29509   0.46042   0.00000  Uiso   1.00
O419   O     0.45492   0.29509   0.53958   0.00000  Uiso   1.00
O420   O     0.04509   0.20491   0.46042   0.00000  Uiso   1.00
O421   O     0.45492   0.20491   0.46042   0.00000  Uiso   1.00
O422   O     0.04509   0.29509   0.53958   0.00000  Uiso   1.00
O423   O     0.04509   0.29509   0.46042   0.00000  Uiso   1.00
O424   O     0.45492   0.20491   0.53958   0.00000  Uiso   1.00
O425   O     0.29509   0.45491   0.53958   0.00000  Uiso   1.00
O426   O     0.20492   0.04509   0.46042   0.00000  Uiso   1.00
O427   O     0.20492   0.04509   0.53958   0.00000  Uiso   1.00
O428   O     0.29509   0.45491   0.46042   0.00000  Uiso   1.00
O429   O     0.20492   0.45491   0.46042   0.00000  Uiso   1.00
O430   O     0.29509   0.04509   0.53958   0.00000  Uiso   1.00
O431   O     0.29509   0.04509   0.46042   0.00000  Uiso   1.00
O432   O     0.20492   0.45491   0.53958   0.00000  Uiso   1.00
C433   C     0.06194   0.19353   0.49972   0.00000  Uiso   1.00
C434   C     0.43806   0.30647   0.49972   0.00000  Uiso   1.00
C435   C     0.43806   0.19353   0.50028   0.00000  Uiso   1.00
C436   C     0.06194   0.30647   0.50028   0.00000  Uiso   1.00
C437   C     0.31194   0.44353   0.50028   0.00000  Uiso   1.00
C438   C     0.18806   0.05647   0.50028   0.00000  Uiso   1.00
C439   C     0.18806   0.44353   0.49972   0.00000  Uiso   1.00
C440   C     0.31194   0.05647   0.49972   0.00000  Uiso   1.00
N441   N     0.00000   0.25000   0.61736   0.00000  Uiso   1.00
N442   N     0.00000   0.25000   0.38264   0.00000  Uiso   1.00
N443   N     0.25000   0.00000   0.61736   0.00000  Uiso   1.00
N444   N     0.25000   0.00000   0.38264   0.00000  Uiso   1.00
Cu445  Cu    0.00000   0.25000   0.54689   0.00000  Uiso   1.00
Cu446  Cu    0.00000   0.25000   0.45311   0.00000  Uiso   1.00
Cu447  Cu    0.25000   0.00000   0.54689   0.00000  Uiso   1.00
Cu448  Cu    0.25000   0.00000   0.45311   0.00000  Uiso   1.00
C449   C     0.49741   0.21045   0.35779   0.00000  Uiso   1.00
C450   C     0.49741   0.28955   0.64221   0.00000  Uiso   1.00
C451   C     0.00259   0.28955   0.35779   0.00000  Uiso   1.00
C452   C     0.00259   0.21045   0.64221   0.00000  Uiso   1.00
C453   C     0.25259   0.46045   0.35779   0.00000  Uiso   1.00
C454   C     0.25259   0.03955   0.64221   0.00000  Uiso   1.00
C455   C     0.24741   0.03955   0.35779   0.00000  Uiso   1.00
C456   C     0.24741   0.46045   0.64221   0.00000  Uiso   1.00
C457   C     0.38234   0.14993   0.45973   0.00000  Uiso   1.00
C458   C     0.10946   0.36002   0.54247   0.00000  Uiso   1.00
C459   C     0.11766   0.35007   0.45973   0.00000  Uiso   1.00
C460   C     0.39054   0.13999   0.54247   0.00000  Uiso   1.00
C461   C     0.11766   0.14993   0.54027   0.00000  Uiso   1.00
C462   C     0.39054   0.36001   0.45753   0.00000  Uiso   1.00
C463   C     0.38234   0.35007   0.54027   0.00000  Uiso   1.00
C464   C     0.10945   0.13998   0.45753   0.00000  Uiso   1.00
C465   C     0.14055   0.38998   0.45753   0.00000  Uiso   1.00
C466   C     0.36766   0.10007   0.54027   0.00000  Uiso   1.00
C467   C     0.35946   0.11001   0.45753   0.00000  Uiso   1.00
C468   C     0.13234   0.39993   0.54027   0.00000  Uiso   1.00
C469   C     0.35946   0.38999   0.54247   0.00000  Uiso   1.00
C470   C     0.13234   0.10007   0.45973   0.00000  Uiso   1.00
C471   C     0.14055   0.11002   0.54247   0.00000  Uiso   1.00
C472   C     0.36766   0.39993   0.45973   0.00000  Uiso   1.00
C473   C     0.09815   0.33755   0.50127   0.00000  Uiso   1.00
C474   C     0.40185   0.16245   0.50127   0.00000  Uiso   1.00
C475   C     0.40185   0.33755   0.49874   0.00000  Uiso   1.00
C476   C     0.09815   0.16245   0.49874   0.00000  Uiso   1.00
C477   C     0.34815   0.08755   0.49874   0.00000  Uiso   1.00
C478   C     0.15185   0.41245   0.49873   0.00000  Uiso   1.00
C479   C     0.15185   0.08755   0.50127   0.00000  Uiso   1.00
C480   C     0.34815   0.41245   0.50126   0.00000  Uiso   1.00
N481   N     0.48597   0.16864   0.37960   0.00000  Uiso   1.00
O482   O     0.01170   0.14846   0.40761   0.00000  Uiso   1.00
O483   O     0.45531   0.14505   0.36213   0.00000  Uiso   1.00
N484   N     0.48598   0.33136   0.62040   0.00000  Uiso   1.00
O485   O     0.45531   0.35495   0.63786   0.00000  Uiso   1.00
O486   O     0.01171   0.35154   0.59240   0.00000  Uiso   1.00
N487   N     0.01402   0.33136   0.37960   0.00000  Uiso   1.00
O488   O     0.04469   0.35495   0.36214   0.00000  Uiso   1.00
O489   O     0.48829   0.35154   0.40760   0.00000  Uiso   1.00
N490   N     0.01403   0.16864   0.62040   0.00000  Uiso   1.00
O491   O     0.48830   0.14846   0.59239   0.00000  Uiso   1.00
O492   O     0.04469   0.14505   0.63787   0.00000  Uiso   1.00
N493   N     0.26403   0.41864   0.37960   0.00000  Uiso   1.00
O494   O     0.29469   0.39505   0.36213   0.00000  Uiso   1.00
O495   O     0.23830   0.39846   0.40760   0.00000  Uiso   1.00
N496   N     0.26403   0.08136   0.62040   0.00000  Uiso   1.00
O497   O     0.23830   0.10154   0.59239   0.00000  Uiso   1.00
O498   O     0.29469   0.10495   0.63787   0.00000  Uiso   1.00
N499   N     0.23597   0.08136   0.37960   0.00000  Uiso   1.00
O500   O     0.26170   0.10154   0.40761   0.00000  Uiso   1.00
O501   O     0.20531   0.10495   0.36214   0.00000  Uiso   1.00
N502   N     0.23598   0.41864   0.62040   0.00000  Uiso   1.00
O503   O     0.20531   0.39505   0.63786   0.00000  Uiso   1.00
O504   O     0.26171   0.39846   0.59240   0.00000  Uiso   1.00
I505   I     0.37369   0.19777   0.40550   0.00000  Uiso   1.00
I506   I     0.10832   0.32763   0.60818   0.00000  Uiso   1.00
I507   I     0.12631   0.30223   0.40550   0.00000  Uiso   1.00
I508   I     0.39168   0.17237   0.60818   0.00000  Uiso   1.00
I509   I     0.12631   0.19777   0.59450   0.00000  Uiso   1.00
I510   I     0.39168   0.32763   0.39182   0.00000  Uiso   1.00
I511   I     0.37369   0.30223   0.59450   0.00000  Uiso   1.00
I512   I     0.10832   0.17237   0.39182   0.00000  Uiso   1.00
I513   I     0.14168   0.42237   0.39182   0.00000  Uiso   1.00
I514   I     0.37631   0.05223   0.59450   0.00000  Uiso   1.00
I515   I     0.35832   0.07763   0.39182   0.00000  Uiso   1.00
I516   I     0.12369   0.44777   0.59450   0.00000  Uiso   1.00
I517   I     0.35832   0.42237   0.60818   0.00000  Uiso   1.00
I518   I     0.12369   0.05223   0.40550   0.00000  Uiso   1.00
I519   I     0.14168   0.07763   0.60818   0.00000  Uiso   1.00
I520   I     0.37631   0.44777   0.40550   0.00000  Uiso   1.00
O521   O     0.54509   0.20491   0.53958   0.00000  Uiso   1.00
O522   O     0.95492   0.29509   0.46042   0.00000  Uiso   1.00
O523   O     0.95492   0.29509   0.53958   0.00000  Uiso   1.00
O524   O     0.54509   0.20491   0.46042   0.00000  Uiso   1.00
O525   O     0.95492   0.20491   0.46042   0.00000  Uiso   1.00
O526   O     0.54509   0.29509   0.53958   0.00000  Uiso   1.00
O527   O     0.54509   0.29509   0.46042   0.00000  Uiso   1.00
O528   O     0.95492   0.20491   0.53958   0.00000  Uiso   1.00
O529   O     0.79509   0.45491   0.53958   0.00000  Uiso   1.00
O530   O     0.70492   0.04509   0.46042   0.00000  Uiso   1.00
O531   O     0.70492   0.04509   0.53958   0.00000  Uiso   1.00
O532   O     0.79509   0.45491   0.46042   0.00000  Uiso   1.00
O533   O     0.70492   0.45491   0.46042   0.00000  Uiso   1.00
O534   O     0.79509   0.04509   0.53958   0.00000  Uiso   1.00
O535   O     0.79509   0.04509   0.46042   0.00000  Uiso   1.00
O536   O     0.70492   0.45491   0.53958   0.00000  Uiso   1.00
C537   C     0.56194   0.19353   0.49972   0.00000  Uiso   1.00
C538   C     0.93806   0.30647   0.49972   0.00000  Uiso   1.00
C539   C     0.93806   0.19353   0.50028   0.00000  Uiso   1.00
C540   C     0.56194   0.30647   0.50028   0.00000  Uiso   1.00
C541   C     0.81194   0.44353   0.50028   0.00000  Uiso   1.00
C542   C     0.68806   0.05647   0.50028   0.00000  Uiso   1.00
C543   C     0.68806   0.44353   0.49972   0.00000  Uiso   1.00
C544   C     0.81194   0.05647   0.49972   0.00000  Uiso   1.00
N545   N     0.50000   0.25000   0.61736   0.00000  Uiso   1.00
N546   N     0.50000   0.25000   0.38264   0.00000  Uiso   1.00
N547   N     0.75000   0.00000   0.61736   0.00000  Uiso   1.00
N548   N     0.75000   0.00000   0.38264   0.00000  Uiso   1.00
Cu549  Cu    0.50000   0.25000   0.54689   0.00000  Uiso   1.00
Cu550  Cu    0.50000   0.25000   0.45311   0.00000  Uiso   1.00
Cu551  Cu    0.75000   0.00000   0.54689   0.00000  Uiso   1.00
Cu552  Cu    0.75000   0.00000   0.45311   0.00000  Uiso   1.00
C553   C     0.99741   0.21045   0.35779   0.00000  Uiso   1.00
C554   C     0.99741   0.28955   0.64221   0.00000  Uiso   1.00
C555   C     0.50259   0.28955   0.35779   0.00000  Uiso   1.00
C556   C     0.50259   0.21045   0.64221   0.00000  Uiso   1.00
C557   C     0.75259   0.46045   0.35779   0.00000  Uiso   1.00
C558   C     0.75259   0.03955   0.64221   0.00000  Uiso   1.00
C559   C     0.74741   0.03955   0.35779   0.00000  Uiso   1.00
C560   C     0.74741   0.46045   0.64221   0.00000  Uiso   1.00
C561   C     0.88234   0.14993   0.45973   0.00000  Uiso   1.00
C562   C     0.60946   0.36002   0.54247   0.00000  Uiso   1.00
C563   C     0.61766   0.35007   0.45973   0.00000  Uiso   1.00
C564   C     0.89054   0.13999   0.54247   0.00000  Uiso   1.00
C565   C     0.61766   0.14993   0.54027   0.00000  Uiso   1.00
C566   C     0.89054   0.36001   0.45753   0.00000  Uiso   1.00
C567   C     0.88234   0.35007   0.54027   0.00000  Uiso   1.00
C568   C     0.60945   0.13998   0.45753   0.00000  Uiso   1.00
C569   C     0.64055   0.38998   0.45753   0.00000  Uiso   1.00
C570   C     0.86766   0.10007   0.54027   0.00000  Uiso   1.00
C571   C     0.85946   0.11001   0.45753   0.00000  Uiso   1.00
C572   C     0.63234   0.39993   0.54027   0.00000  Uiso   1.00
C573   C     0.85946   0.38999   0.54247   0.00000  Uiso   1.00
C574   C     0.63234   0.10007   0.45973   0.00000  Uiso   1.00
C575   C     0.64055   0.11002   0.54247   0.00000  Uiso   1.00
C576   C     0.86766   0.39993   0.45973   0.00000  Uiso   1.00
C577   C     0.59815   0.33755   0.50127   0.00000  Uiso   1.00
C578   C     0.90185   0.16245   0.50127   0.00000  Uiso   1.00
C579   C     0.90185   0.33755   0.49874   0.00000  Uiso   1.00
C580   C     0.59815   0.16245   0.49874   0.00000  Uiso   1.00
C581   C     0.84815   0.08755   0.49874   0.00000  Uiso   1.00
C582   C     0.65185   0.41245   0.49873   0.00000  Uiso   1.00
C583   C     0.65185   0.08755   0.50127   0.00000  Uiso   1.00
C584   C     0.84815   0.41245   0.50126   0.00000  Uiso   1.00
N585   N     0.98597   0.16864   0.37960   0.00000  Uiso   1.00
O586   O     0.51170   0.14846   0.40761   0.00000  Uiso   1.00
O587   O     0.95531   0.14505   0.36213   0.00000  Uiso   1.00
N588   N     0.98598   0.33136   0.62040   0.00000  Uiso   1.00
O589   O     0.95531   0.35495   0.63786   0.00000  Uiso   1.00
O590   O     0.51171   0.35154   0.59240   0.00000  Uiso   1.00
N591   N     0.51402   0.33136   0.37960   0.00000  Uiso   1.00
O592   O     0.54469   0.35495   0.36214   0.00000  Uiso   1.00
O593   O     0.98829   0.35154   0.40760   0.00000  Uiso   1.00
N594   N     0.51403   0.16864   0.62040   0.00000  Uiso   1.00
O595   O     0.98830   0.14846   0.59239   0.00000  Uiso   1.00
O596   O     0.54469   0.14505   0.63787   0.00000  Uiso   1.00
N597   N     0.76403   0.41864   0.37960   0.00000  Uiso   1.00
O598   O     0.79469   0.39505   0.36213   0.00000  Uiso   1.00
O599   O     0.73830   0.39846   0.40760   0.00000  Uiso   1.00
N600   N     0.76403   0.08136   0.62040   0.00000  Uiso   1.00
O601   O     0.73830   0.10154   0.59239   0.00000  Uiso   1.00
O602   O     0.79469   0.10495   0.63787   0.00000  Uiso   1.00
N603   N     0.73597   0.08136   0.37960   0.00000  Uiso   1.00
O604   O     0.76170   0.10154   0.40761   0.00000  Uiso   1.00
O605   O     0.70531   0.10495   0.36214   0.00000  Uiso   1.00
N606   N     0.73598   0.41864   0.62040   0.00000  Uiso   1.00
O607   O     0.70531   0.39505   0.63786   0.00000  Uiso   1.00
O608   O     0.76171   0.39846   0.59240   0.00000  Uiso   1.00
I609   I     0.87369   0.19777   0.40550   0.00000  Uiso   1.00
I610   I     0.60832   0.32763   0.60818   0.00000  Uiso   1.00
I611   I     0.62631   0.30223   0.40550   0.00000  Uiso   1.00
I612   I     0.89168   0.17237   0.60818   0.00000  Uiso   1.00
I613   I     0.62631   0.19777   0.59450   0.00000  Uiso   1.00
I614   I     0.89168   0.32763   0.39182   0.00000  Uiso   1.00
I615   I     0.87369   0.30223   0.59450   0.00000  Uiso   1.00
I616   I     0.60832   0.17237   0.39182   0.00000  Uiso   1.00
I617   I     0.64168   0.42237   0.39182   0.00000  Uiso   1.00
I618   I     0.87631   0.05223   0.59450   0.00000  Uiso   1.00
I619   I     0.85832   0.07763   0.39182   0.00000  Uiso   1.00
I620   I     0.62369   0.44777   0.59450   0.00000  Uiso   1.00
I621   I     0.85832   0.42237   0.60818   0.00000  Uiso   1.00
I622   I     0.62369   0.05223   0.40550   0.00000  Uiso   1.00
I623   I     0.64168   0.07763   0.60818   0.00000  Uiso   1.00
I624   I     0.87631   0.44777   0.40550   0.00000  Uiso   1.00
O625   O     0.04509   0.70491   0.53958   0.00000  Uiso   1.00
O626   O     0.45492   0.79509   0.46042   0.00000  Uiso   1.00
O627   O     0.45492   0.79509   0.53958   0.00000  Uiso   1.00
O628   O     0.04509   0.70491   0.46042   0.00000  Uiso   1.00
O629   O     0.45492   0.70491   0.46042   0.00000  Uiso   1.00
O630   O     0.04509   0.79509   0.53958   0.00000  Uiso   1.00
O631   O     0.04509   0.79509   0.46042   0.00000  Uiso   1.00
O632   O     0.45492   0.70491   0.53958   0.00000  Uiso   1.00
O633   O     0.29509   0.95491   0.53958   0.00000  Uiso   1.00
O634   O     0.20492   0.54509   0.46042   0.00000  Uiso   1.00
O635   O     0.20492   0.54509   0.53958   0.00000  Uiso   1.00
O636   O     0.29509   0.95491   0.46042   0.00000  Uiso   1.00
O637   O     0.20492   0.95491   0.46042   0.00000  Uiso   1.00
O638   O     0.29509   0.54509   0.53958   0.00000  Uiso   1.00
O639   O     0.29509   0.54509   0.46042   0.00000  Uiso   1.00
O640   O     0.20492   0.95491   0.53958   0.00000  Uiso   1.00
C641   C     0.06194   0.69353   0.49972   0.00000  Uiso   1.00
C642   C     0.43806   0.80647   0.49972   0.00000  Uiso   1.00
C643   C     0.43806   0.69353   0.50028   0.00000  Uiso   1.00
C644   C     0.06194   0.80647   0.50028   0.00000  Uiso   1.00
C645   C     0.31194   0.94353   0.50028   0.00000  Uiso   1.00
C646   C     0.18806   0.55647   0.50028   0.00000  Uiso   1.00
C647   C     0.18806   0.94353   0.49972   0.00000  Uiso   1.00
C648   C     0.31194   0.55647   0.49972   0.00000  Uiso   1.00
N649   N     0.00000   0.75000   0.61736   0.00000  Uiso   1.00
N650   N     0.00000   0.75000   0.38264   0.00000  Uiso   1.00
N651   N     0.25000   0.50000   0.61736   0.00000  Uiso   1.00
N652   N     0.25000   0.50000   0.38264   0.00000  Uiso   1.00
Cu653  Cu    0.00000   0.75000   0.54689   0.00000  Uiso   1.00
Cu654  Cu    0.00000   0.75000   0.45311   0.00000  Uiso   1.00
Cu655  Cu    0.25000   0.50000   0.54689   0.00000  Uiso   1.00
Cu656  Cu    0.25000   0.50000   0.45311   0.00000  Uiso   1.00
C657   C     0.49741   0.71045   0.35779   0.00000  Uiso   1.00
C658   C     0.49741   0.78955   0.64221   0.00000  Uiso   1.00
C659   C     0.00259   0.78955   0.35779   0.00000  Uiso   1.00
C660   C     0.00259   0.71045   0.64221   0.00000  Uiso   1.00
C661   C     0.25259   0.96045   0.35779   0.00000  Uiso   1.00
C662   C     0.25259   0.53955   0.64221   0.00000  Uiso   1.00
C663   C     0.24741   0.53955   0.35779   0.00000  Uiso   1.00
C664   C     0.24741   0.96045   0.64221   0.00000  Uiso   1.00
C665   C     0.38234   0.64993   0.45973   0.00000  Uiso   1.00
C666   C     0.10946   0.86002   0.54247   0.00000  Uiso   1.00
C667   C     0.11766   0.85007   0.45973   0.00000  Uiso   1.00
C668   C     0.39054   0.63999   0.54247   0.00000  Uiso   1.00
C669   C     0.11766   0.64993   0.54027   0.00000  Uiso   1.00
C670   C     0.39054   0.86001   0.45753   0.00000  Uiso   1.00
C671   C     0.38234   0.85007   0.54027   0.00000  Uiso   1.00
C672   C     0.10945   0.63998   0.45753   0.00000  Uiso   1.00
C673   C     0.14055   0.88998   0.45753   0.00000  Uiso   1.00
C674   C     0.36766   0.60007   0.54027   0.00000  Uiso   1.00
C675   C     0.35946   0.61001   0.45753   0.00000  Uiso   1.00
C676   C     0.13234   0.89993   0.54027   0.00000  Uiso   1.00
C677   C     0.35946   0.88999   0.54247   0.00000  Uiso   1.00
C678   C     0.13234   0.60007   0.45973   0.00000  Uiso   1.00
C679   C     0.14055   0.61002   0.54247   0.00000  Uiso   1.00
C680   C     0.36766   0.89993   0.45973   0.00000  Uiso   1.00
C681   C     0.09815   0.83755   0.50127   0.00000  Uiso   1.00
C682   C     0.40185   0.66245   0.50127   0.00000  Uiso   1.00
C683   C     0.40185   0.83755   0.49874   0.00000  Uiso   1.00
C684   C     0.09815   0.66245   0.49874   0.00000  Uiso   1.00
C685   C     0.34815   0.58755   0.49874   0.00000  Uiso   1.00
C686   C     0.15185   0.91245   0.49873   0.00000  Uiso   1.00
C687   C     0.15185   0.58755   0.50127   0.00000  Uiso   1.00
C688   C     0.34815   0.91245   0.50126   0.00000  Uiso   1.00
N689   N     0.48597   0.66864   0.37960   0.00000  Uiso   1.00
O690   O     0.01170   0.64846   0.40761   0.00000  Uiso   1.00
O691   O     0.45531   0.64505   0.36213   0.00000  Uiso   1.00
N692   N     0.48598   0.83136   0.62040   0.00000  Uiso   1.00
O693   O     0.45531   0.85495   0.63786   0.00000  Uiso   1.00
O694   O     0.01171   0.85154   0.59240   0.00000  Uiso   1.00
N695   N     0.01402   0.83136   0.37960   0.00000  Uiso   1.00
O696   O     0.04469   0.85495   0.36214   0.00000  Uiso   1.00
O697   O     0.48829   0.85154   0.40760   0.00000  Uiso   1.00
N698   N     0.01403   0.66864   0.62040   0.00000  Uiso   1.00
O699   O     0.48830   0.64846   0.59239   0.00000  Uiso   1.00
O700   O     0.04469   0.64505   0.63787   0.00000  Uiso   1.00
N701   N     0.26403   0.91864   0.37960   0.00000  Uiso   1.00
O702   O     0.29469   0.89505   0.36213   0.00000  Uiso   1.00
O703   O     0.23830   0.89846   0.40760   0.00000  Uiso   1.00
N704   N     0.26403   0.58136   0.62040   0.00000  Uiso   1.00
O705   O     0.23830   0.60154   0.59239   0.00000  Uiso   1.00
O706   O     0.29469   0.60495   0.63787   0.00000  Uiso   1.00
N707   N     0.23597   0.58136   0.37960   0.00000  Uiso   1.00
O708   O     0.26170   0.60154   0.40761   0.00000  Uiso   1.00
O709   O     0.20531   0.60495   0.36214   0.00000  Uiso   1.00
N710   N     0.23598   0.91864   0.62040   0.00000  Uiso   1.00
O711   O     0.20531   0.89505   0.63786   0.00000  Uiso   1.00
O712   O     0.26171   0.89846   0.59240   0.00000  Uiso   1.00
I713   I     0.37369   0.69777   0.40550   0.00000  Uiso   1.00
I714   I     0.10832   0.82763   0.60818   0.00000  Uiso   1.00
I715   I     0.12631   0.80223   0.40550   0.00000  Uiso   1.00
I716   I     0.39168   0.67237   0.60818   0.00000  Uiso   1.00
I717   I     0.12631   0.69777   0.59450   0.00000  Uiso   1.00
I718   I     0.39168   0.82763   0.39182   0.00000  Uiso   1.00
I719   I     0.37369   0.80223   0.59450   0.00000  Uiso   1.00
I720   I     0.10832   0.67237   0.39182   0.00000  Uiso   1.00
I721   I     0.14168   0.92237   0.39182   0.00000  Uiso   1.00
I722   I     0.37631   0.55223   0.59450   0.00000  Uiso   1.00
I723   I     0.35832   0.57763   0.39182   0.00000  Uiso   1.00
I724   I     0.12369   0.94777   0.59450   0.00000  Uiso   1.00
I725   I     0.35832   0.92237   0.60818   0.00000  Uiso   1.00
I726   I     0.12369   0.55223   0.40550   0.00000  Uiso   1.00
I727   I     0.14168   0.57763   0.60818   0.00000  Uiso   1.00
I728   I     0.37631   0.94777   0.40550   0.00000  Uiso   1.00
O729   O     0.54509   0.70491   0.53958   0.00000  Uiso   1.00
O730   O     0.95492   0.79509   0.46042   0.00000  Uiso   1.00
O731   O     0.95492   0.79509   0.53958   0.00000  Uiso   1.00
O732   O     0.54509   0.70491   0.46042   0.00000  Uiso   1.00
O733   O     0.95492   0.70491   0.46042   0.00000  Uiso   1.00
O734   O     0.54509   0.79509   0.53958   0.00000  Uiso   1.00
O735   O     0.54509   0.79509   0.46042   0.00000  Uiso   1.00
O736   O     0.95492   0.70491   0.53958   0.00000  Uiso   1.00
O737   O     0.79509   0.95491   0.53958   0.00000  Uiso   1.00
O738   O     0.70492   0.54509   0.46042   0.00000  Uiso   1.00
O739   O     0.70492   0.54509   0.53958   0.00000  Uiso   1.00
O740   O     0.79509   0.95491   0.46042   0.00000  Uiso   1.00
O741   O     0.70492   0.95491   0.46042   0.00000  Uiso   1.00
O742   O     0.79509   0.54509   0.53958   0.00000  Uiso   1.00
O743   O     0.79509   0.54509   0.46042   0.00000  Uiso   1.00
O744   O     0.70492   0.95491   0.53958   0.00000  Uiso   1.00
C745   C     0.56194   0.69353   0.49972   0.00000  Uiso   1.00
C746   C     0.93806   0.80647   0.49972   0.00000  Uiso   1.00
C747   C     0.93806   0.69353   0.50028   0.00000  Uiso   1.00
C748   C     0.56194   0.80647   0.50028   0.00000  Uiso   1.00
C749   C     0.81194   0.94353   0.50028   0.00000  Uiso   1.00
C750   C     0.68806   0.55647   0.50028   0.00000  Uiso   1.00
C751   C     0.68806   0.94353   0.49972   0.00000  Uiso   1.00
C752   C     0.81194   0.55647   0.49972   0.00000  Uiso   1.00
N753   N     0.50000   0.75000   0.61736   0.00000  Uiso   1.00
N754   N     0.50000   0.75000   0.38264   0.00000  Uiso   1.00
N755   N     0.75000   0.50000   0.61736   0.00000  Uiso   1.00
N756   N     0.75000   0.50000   0.38264   0.00000  Uiso   1.00
Cu757  Cu    0.50000   0.75000   0.54689   0.00000  Uiso   1.00
Cu758  Cu    0.50000   0.75000   0.45311   0.00000  Uiso   1.00
Cu759  Cu    0.75000   0.50000   0.54689   0.00000  Uiso   1.00
Cu760  Cu    0.75000   0.50000   0.45311   0.00000  Uiso   1.00
C761   C     0.99741   0.71045   0.35779   0.00000  Uiso   1.00
C762   C     0.99741   0.78955   0.64221   0.00000  Uiso   1.00
C763   C     0.50259   0.78955   0.35779   0.00000  Uiso   1.00
C764   C     0.50259   0.71045   0.64221   0.00000  Uiso   1.00
C765   C     0.75259   0.96045   0.35779   0.00000  Uiso   1.00
C766   C     0.75259   0.53955   0.64221   0.00000  Uiso   1.00
C767   C     0.74741   0.53955   0.35779   0.00000  Uiso   1.00
C768   C     0.74741   0.96045   0.64221   0.00000  Uiso   1.00
C769   C     0.88234   0.64993   0.45973   0.00000  Uiso   1.00
C770   C     0.60946   0.86002   0.54247   0.00000  Uiso   1.00
C771   C     0.61766   0.85007   0.45973   0.00000  Uiso   1.00
C772   C     0.89054   0.63999   0.54247   0.00000  Uiso   1.00
C773   C     0.61766   0.64993   0.54027   0.00000  Uiso   1.00
C774   C     0.89054   0.86001   0.45753   0.00000  Uiso   1.00
C775   C     0.88234   0.85007   0.54027   0.00000  Uiso   1.00
C776   C     0.60945   0.63998   0.45753   0.00000  Uiso   1.00
C777   C     0.64055   0.88998   0.45753   0.00000  Uiso   1.00
C778   C     0.86766   0.60007   0.54027   0.00000  Uiso   1.00
C779   C     0.85946   0.61001   0.45753   0.00000  Uiso   1.00
C780   C     0.63234   0.89993   0.54027   0.00000  Uiso   1.00
C781   C     0.85946   0.88999   0.54247   0.00000  Uiso   1.00
C782   C     0.63234   0.60007   0.45973   0.00000  Uiso   1.00
C783   C     0.64055   0.61002   0.54247   0.00000  Uiso   1.00
C784   C     0.86766   0.89993   0.45973   0.00000  Uiso   1.00
C785   C     0.59815   0.83755   0.50127   0.00000  Uiso   1.00
C786   C     0.90185   0.66245   0.50127   0.00000  Uiso   1.00
C787   C     0.90185   0.83755   0.49874   0.00000  Uiso   1.00
C788   C     0.59815   0.66245   0.49874   0.00000  Uiso   1.00
C789   C     0.84815   0.58755   0.49874   0.00000  Uiso   1.00
C790   C     0.65185   0.91245   0.49873   0.00000  Uiso   1.00
C791   C     0.65185   0.58755   0.50127   0.00000  Uiso   1.00
C792   C     0.84815   0.91245   0.50126   0.00000  Uiso   1.00
N793   N     0.98597   0.66864   0.37960   0.00000  Uiso   1.00
O794   O     0.51170   0.64846   0.40761   0.00000  Uiso   1.00
O795   O     0.95531   0.64505   0.36213   0.00000  Uiso   1.00
N796   N     0.98598   0.83136   0.62040   0.00000  Uiso   1.00
O797   O     0.95531   0.85495   0.63786   0.00000  Uiso   1.00
O798   O     0.51171   0.85154   0.59240   0.00000  Uiso   1.00
N799   N     0.51402   0.83136   0.37960   0.00000  Uiso   1.00
O800   O     0.54469   0.85495   0.36214   0.00000  Uiso   1.00
O801   O     0.98829   0.85154   0.40760   0.00000  Uiso   1.00
N802   N     0.51403   0.66864   0.62040   0.00000  Uiso   1.00
O803   O     0.98830   0.64846   0.59239   0.00000  Uiso   1.00
O804   O     0.54469   0.64505   0.63787   0.00000  Uiso   1.00
N805   N     0.76403   0.91864   0.37960   0.00000  Uiso   1.00
O806   O     0.79469   0.89505   0.36213   0.00000  Uiso   1.00
O807   O     0.73830   0.89846   0.40760   0.00000  Uiso   1.00
N808   N     0.76403   0.58136   0.62040   0.00000  Uiso   1.00
O809   O     0.73830   0.60154   0.59239   0.00000  Uiso   1.00
O810   O     0.79469   0.60495   0.63787   0.00000  Uiso   1.00
N811   N     0.73597   0.58136   0.37960   0.00000  Uiso   1.00
O812   O     0.76170   0.60154   0.40761   0.00000  Uiso   1.00
O813   O     0.70531   0.60495   0.36214   0.00000  Uiso   1.00
N814   N     0.73598   0.91864   0.62040   0.00000  Uiso   1.00
O815   O     0.70531   0.89505   0.63786   0.00000  Uiso   1.00
O816   O     0.76171   0.89846   0.59240   0.00000  Uiso   1.00
I817   I     0.87369   0.69777   0.40550   0.00000  Uiso   1.00
I818   I     0.60832   0.82763   0.60818   0.00000  Uiso   1.00
I819   I     0.62631   0.80223   0.40550   0.00000  Uiso   1.00
I820   I     0.89168   0.67237   0.60818   0.00000  Uiso   1.00
I821   I     0.62631   0.69777   0.59450   0.00000  Uiso   1.00
I822   I     0.89168   0.82763   0.39182   0.00000  Uiso   1.00
I823   I     0.87369   0.80223   0.59450   0.00000  Uiso   1.00
I824   I     0.60832   0.67237   0.39182   0.00000  Uiso   1.00
I825   I     0.64168   0.92237   0.39182   0.00000  Uiso   1.00
I826   I     0.87631   0.55223   0.59450   0.00000  Uiso   1.00
I827   I     0.85832   0.57763   0.39182   0.00000  Uiso   1.00
I828   I     0.62369   0.94777   0.59450   0.00000  Uiso   1.00
I829   I     0.85832   0.92237   0.60818   0.00000  Uiso   1.00
I830   I     0.62369   0.55223   0.40550   0.00000  Uiso   1.00
I831   I     0.64168   0.57763   0.60818   0.00000  Uiso   1.00
I832   I     0.87631   0.94777   0.40550   0.00000  Uiso   1.00
O833   O     0.04509   0.20491   0.87291   0.00000  Uiso   1.00
O834   O     0.45492   0.29509   0.79375   0.00000  Uiso   1.00
O835   O     0.45492   0.29509   0.87291   0.00000  Uiso   1.00
O836   O     0.04509   0.20491   0.79375   0.00000  Uiso   1.00
O837   O     0.45492   0.20491   0.79375   0.00000  Uiso   1.00
O838   O     0.04509   0.29509   0.87291   0.00000  Uiso   1.00
O839   O     0.04509   0.29509   0.79375   0.00000  Uiso   1.00
O840   O     0.45492   0.20491   0.87291   0.00000  Uiso   1.00
O841   O     0.29509   0.45491   0.87291   0.00000  Uiso   1.00
O842   O     0.20492   0.04509   0.79375   0.00000  Uiso   1.00
O843   O     0.20492   0.04509   0.87291   0.00000  Uiso   1.00
O844   O     0.29509   0.45491   0.79375   0.00000  Uiso   1.00
O845   O     0.20492   0.45491   0.79375   0.00000  Uiso   1.00
O846   O     0.29509   0.04509   0.87291   0.00000  Uiso   1.00
O847   O     0.29509   0.04509   0.79375   0.00000  Uiso   1.00
O848   O     0.20492   0.45491   0.87291   0.00000  Uiso   1.00
C849   C     0.06194   0.19353   0.83306   0.00000  Uiso   1.00
C850   C     0.43806   0.30647   0.83306   0.00000  Uiso   1.00
C851   C     0.43806   0.19353   0.83361   0.00000  Uiso   1.00
C852   C     0.06194   0.30647   0.83361   0.00000  Uiso   1.00
C853   C     0.31194   0.44353   0.83361   0.00000  Uiso   1.00
C854   C     0.18806   0.05647   0.83361   0.00000  Uiso   1.00
C855   C     0.18806   0.44353   0.83306   0.00000  Uiso   1.00
C856   C     0.31194   0.05647   0.83306   0.00000  Uiso   1.00
N857   N     0.00000   0.25000   0.95069   0.00000  Uiso   1.00
N858   N     0.00000   0.25000   0.71598   0.00000  Uiso   1.00
N859   N     0.25000   0.00000   0.95069   0.00000  Uiso   1.00
N860   N     0.25000   0.00000   0.71598   0.00000  Uiso   1.00
Cu861  Cu    0.00000   0.25000   0.88022   0.00000  Uiso   1.00
Cu862  Cu    0.00000   0.25000   0.78645   0.00000  Uiso   1.00
Cu863  Cu    0.25000   0.00000   0.88022   0.00000  Uiso   1.00
Cu864  Cu    0.25000   0.00000   0.78645   0.00000  Uiso   1.00
C865   C     0.49741   0.21045   0.69113   0.00000  Uiso   1.00
C866   C     0.49741   0.28955   0.97554   0.00000  Uiso   1.00
C867   C     0.00259   0.28955   0.69113   0.00000  Uiso   1.00
C868   C     0.00259   0.21045   0.97554   0.00000  Uiso   1.00
C869   C     0.25259   0.46045   0.69113   0.00000  Uiso   1.00
C870   C     0.25259   0.03955   0.97554   0.00000  Uiso   1.00
C871   C     0.24741   0.03955   0.69113   0.00000  Uiso   1.00
C872   C     0.24741   0.46045   0.97554   0.00000  Uiso   1.00
C873   C     0.38234   0.14993   0.79307   0.00000  Uiso   1.00
C874   C     0.10946   0.36002   0.87580   0.00000  Uiso   1.00
C875   C     0.11766   0.35007   0.79307   0.00000  Uiso   1.00
C876   C     0.39054   0.13999   0.87580   0.00000  Uiso   1.00
C877   C     0.11766   0.14993   0.87360   0.00000  Uiso   1.00
C878   C     0.39054   0.36001   0.79086   0.00000  Uiso   1.00
C879   C     0.38234   0.35007   0.87360   0.00000  Uiso   1.00
C880   C     0.10945   0.13998   0.79086   0.00000  Uiso   1.00
C881   C     0.14055   0.38998   0.79086   0.00000  Uiso   1.00
C882   C     0.36766   0.10007   0.87360   0.00000  Uiso   1.00
C883   C     0.35946   0.11001   0.79086   0.00000  Uiso   1.00
C884   C     0.13234   0.39993   0.87360   0.00000  Uiso   1.00
C885   C     0.35946   0.38999   0.87580   0.00000  Uiso   1.00
C886   C     0.13234   0.10007   0.79307   0.00000  Uiso   1.00
C887   C     0.14055   0.11002   0.87580   0.00000  Uiso   1.00
C888   C     0.36766   0.39993   0.79307   0.00000  Uiso   1.00
C889   C     0.09815   0.33755   0.83460   0.00000  Uiso   1.00
C890   C     0.40185   0.16245   0.83460   0.00000  Uiso   1.00
C891   C     0.40185   0.33755   0.83207   0.00000  Uiso   1.00
C892   C     0.09815   0.16245   0.83207   0.00000  Uiso   1.00
C893   C     0.34815   0.08755   0.83207   0.00000  Uiso   1.00
C894   C     0.15185   0.41245   0.83207   0.00000  Uiso   1.00
C895   C     0.15185   0.08755   0.83460   0.00000  Uiso   1.00
C896   C     0.34815   0.41245   0.83460   0.00000  Uiso   1.00
N897   N     0.48597   0.16864   0.71293   0.00000  Uiso   1.00
O898   O     0.01170   0.14846   0.74094   0.00000  Uiso   1.00
O899   O     0.45531   0.14505   0.69546   0.00000  Uiso   1.00
N900   N     0.48598   0.33136   0.95374   0.00000  Uiso   1.00
O901   O     0.45531   0.35495   0.97120   0.00000  Uiso   1.00
O902   O     0.01171   0.35154   0.92573   0.00000  Uiso   1.00
N903   N     0.01402   0.33136   0.71293   0.00000  Uiso   1.00
O904   O     0.04469   0.35495   0.69547   0.00000  Uiso   1.00
O905   O     0.48829   0.35154   0.74093   0.00000  Uiso   1.00
N906   N     0.01403   0.16864   0.95374   0.00000  Uiso   1.00
O907   O     0.48830   0.14846   0.92573   0.00000  Uiso   1.00
O908   O     0.04469   0.14505   0.97120   0.00000  Uiso   1.00
N909   N     0.26403   0.41864   0.71293   0.00000  Uiso   1.00
O910   O     0.29469   0.39505   0.69547   0.00000  Uiso   1.00
O911   O     0.23830   0.39846   0.74094   0.00000  Uiso   1.00
N912   N     0.26403   0.08136   0.95374   0.00000  Uiso   1.00
O913   O     0.23830   0.10154   0.92573   0.00000  Uiso   1.00
O914   O     0.29469   0.10495   0.97120   0.00000  Uiso   1.00
N915   N     0.23597   0.08136   0.71293   0.00000  Uiso   1.00
O916   O     0.26170   0.10154   0.74094   0.00000  Uiso   1.00
O917   O     0.20531   0.10495   0.69547   0.00000  Uiso   1.00
N918   N     0.23598   0.41864   0.95374   0.00000  Uiso   1.00
O919   O     0.20531   0.39505   0.97119   0.00000  Uiso   1.00
O920   O     0.26171   0.39846   0.92573   0.00000  Uiso   1.00
I921   I     0.37369   0.19777   0.73883   0.00000  Uiso   1.00
I922   I     0.10832   0.32763   0.94151   0.00000  Uiso   1.00
I923   I     0.12631   0.30223   0.73883   0.00000  Uiso   1.00
I924   I     0.39168   0.17237   0.94151   0.00000  Uiso   1.00
I925   I     0.12631   0.19777   0.92784   0.00000  Uiso   1.00
I926   I     0.39168   0.32763   0.72515   0.00000  Uiso   1.00
I927   I     0.37369   0.30223   0.92784   0.00000  Uiso   1.00
I928   I     0.10832   0.17237   0.72515   0.00000  Uiso   1.00
I929   I     0.14168   0.42237   0.72515   0.00000  Uiso   1.00
I930   I     0.37631   0.05223   0.92784   0.00000  Uiso   1.00
I931   I     0.35832   0.07763   0.72515   0.00000  Uiso   1.00
I932   I     0.12369   0.44777   0.92784   0.00000  Uiso   1.00
I933   I     0.35832   0.42237   0.94151   0.00000  Uiso   1.00
I934   I     0.12369   0.05223   0.73883   0.00000  Uiso   1.00
I935   I     0.14168   0.07763   0.94151   0.00000  Uiso   1.00
I936   I     0.37631   0.44777   0.73883   0.00000  Uiso   1.00
O937   O     0.54509   0.20491   0.87291   0.00000  Uiso   1.00
O938   O     0.95492   0.29509   0.79375   0.00000  Uiso   1.00
O939   O     0.95492   0.29509   0.87291   0.00000  Uiso   1.00
O940   O     0.54509   0.20491   0.79375   0.00000  Uiso   1.00
O941   O     0.95492   0.20491   0.79375   0.00000  Uiso   1.00
O942   O     0.54509   0.29509   0.87291   0.00000  Uiso   1.00
O943   O     0.54509   0.29509   0.79375   0.00000  Uiso   1.00
O944   O     0.95492   0.20491   0.87291   0.00000  Uiso   1.00
O945   O     0.79509   0.45491   0.87291   0.00000  Uiso   1.00
O946   O     0.70492   0.04509   0.79375   0.00000  Uiso   1.00
O947   O     0.70492   0.04509   0.87291   0.00000  Uiso   1.00
O948   O     0.79509   0.45491   0.79375   0.00000  Uiso   1.00
O949   O     0.70492   0.45491   0.79375   0.00000  Uiso   1.00
O950   O     0.79509   0.04509   0.87291   0.00000  Uiso   1.00
O951   O     0.79509   0.04509   0.79375   0.00000  Uiso   1.00
O952   O     0.70492   0.45491   0.87291   0.00000  Uiso   1.00
C953   C     0.56194   0.19353   0.83306   0.00000  Uiso   1.00
C954   C     0.93806   0.30647   0.83306   0.00000  Uiso   1.00
C955   C     0.93806   0.19353   0.83361   0.00000  Uiso   1.00
C956   C     0.56194   0.30647   0.83361   0.00000  Uiso   1.00
C957   C     0.81194   0.44353   0.83361   0.00000  Uiso   1.00
C958   C     0.68806   0.05647   0.83361   0.00000  Uiso   1.00
C959   C     0.68806   0.44353   0.83306   0.00000  Uiso   1.00
C960   C     0.81194   0.05647   0.83306   0.00000  Uiso   1.00
N961   N     0.50000   0.25000   0.95069   0.00000  Uiso   1.00
N962   N     0.50000   0.25000   0.71598   0.00000  Uiso   1.00
N963   N     0.75000   0.00000   0.95069   0.00000  Uiso   1.00
N964   N     0.75000   0.00000   0.71598   0.00000  Uiso   1.00
Cu965  Cu    0.50000   0.25000   0.88022   0.00000  Uiso   1.00
Cu966  Cu    0.50000   0.25000   0.78645   0.00000  Uiso   1.00
Cu967  Cu    0.75000   0.00000   0.88022   0.00000  Uiso   1.00
Cu968  Cu    0.75000   0.00000   0.78645   0.00000  Uiso   1.00
C969   C     0.99741   0.21045   0.69113   0.00000  Uiso   1.00
C970   C     0.99741   0.28955   0.97554   0.00000  Uiso   1.00
C971   C     0.50259   0.28955   0.69113   0.00000  Uiso   1.00
C972   C     0.50259   0.21045   0.97554   0.00000  Uiso   1.00
C973   C     0.75259   0.46045   0.69113   0.00000  Uiso   1.00
C974   C     0.75259   0.03955   0.97554   0.00000  Uiso   1.00
C975   C     0.74741   0.03955   0.69113   0.00000  Uiso   1.00
C976   C     0.74741   0.46045   0.97554   0.00000  Uiso   1.00
C977   C     0.88234   0.14993   0.79307   0.00000  Uiso   1.00
C978   C     0.60946   0.36002   0.87580   0.00000  Uiso   1.00
C979   C     0.61766   0.35007   0.79307   0.00000  Uiso   1.00
C980   C     0.89054   0.13999   0.87580   0.00000  Uiso   1.00
C981   C     0.61766   0.14993   0.87360   0.00000  Uiso   1.00
C982   C     0.89054   0.36001   0.79086   0.00000  Uiso   1.00
C983   C     0.88234   0.35007   0.87360   0.00000  Uiso   1.00
C984   C     0.60945   0.13998   0.79086   0.00000  Uiso   1.00
C985   C     0.64055   0.38998   0.79086   0.00000  Uiso   1.00
C986   C     0.86766   0.10007   0.87360   0.00000  Uiso   1.00
C987   C     0.85946   0.11001   0.79086   0.00000  Uiso   1.00
C988   C     0.63234   0.39993   0.87360   0.00000  Uiso   1.00
C989   C     0.85946   0.38999   0.87580   0.00000  Uiso   1.00
C990   C     0.63234   0.10007   0.79307   0.00000  Uiso   1.00
C991   C     0.64055   0.11002   0.87580   0.00000  Uiso   1.00
C992   C     0.86766   0.39993   0.79307   0.00000  Uiso   1.00
C993   C     0.59815   0.33755   0.83460   0.00000  Uiso   1.00
C994   C     0.90185   0.16245   0.83460   0.00000  Uiso   1.00
C995   C     0.90185   0.33755   0.83207   0.00000  Uiso   1.00
C996   C     0.59815   0.16245   0.83207   0.00000  Uiso   1.00
C997   C     0.84815   0.08755   0.83207   0.00000  Uiso   1.00
C998   C     0.65185   0.41245   0.83207   0.00000  Uiso   1.00
C999   C     0.65185   0.08755   0.83460   0.00000  Uiso   1.00
C1000  C     0.84815   0.41245   0.83460   0.00000  Uiso   1.00
N1001  N     0.98597   0.16864   0.71293   0.00000  Uiso   1.00
O1002  O     0.51170   0.14846   0.74094   0.00000  Uiso   1.00
O1003  O     0.95531   0.14505   0.69546   0.00000  Uiso   1.00
N1004  N     0.98598   0.33136   0.95374   0.00000  Uiso   1.00
O1005  O     0.95531   0.35495   0.97120   0.00000  Uiso   1.00
O1006  O     0.51171   0.35154   0.92573   0.00000  Uiso   1.00
N1007  N     0.51402   0.33136   0.71293   0.00000  Uiso   1.00
O1008  O     0.54469   0.35495   0.69547   0.00000  Uiso   1.00
O1009  O     0.98829   0.35154   0.74093   0.00000  Uiso   1.00
N1010  N     0.51403   0.16864   0.95374   0.00000  Uiso   1.00
O1011  O     0.98830   0.14846   0.92573   0.00000  Uiso   1.00
O1012  O     0.54469   0.14505   0.97120   0.00000  Uiso   1.00
N1013  N     0.76403   0.41864   0.71293   0.00000  Uiso   1.00
O1014  O     0.79469   0.39505   0.69547   0.00000  Uiso   1.00
O1015  O     0.73830   0.39846   0.74094   0.00000  Uiso   1.00
N1016  N     0.76403   0.08136   0.95374   0.00000  Uiso   1.00
O1017  O     0.73830   0.10154   0.92573   0.00000  Uiso   1.00
O1018  O     0.79469   0.10495   0.97120   0.00000  Uiso   1.00
N1019  N     0.73597   0.08136   0.71293   0.00000  Uiso   1.00
O1020  O     0.76170   0.10154   0.74094   0.00000  Uiso   1.00
O1021  O     0.70531   0.10495   0.69547   0.00000  Uiso   1.00
N1022  N     0.73598   0.41864   0.95374   0.00000  Uiso   1.00
O1023  O     0.70531   0.39505   0.97119   0.00000  Uiso   1.00
O1024  O     0.76171   0.39846   0.92573   0.00000  Uiso   1.00
I1025  I     0.87369   0.19777   0.73883   0.00000  Uiso   1.00
I1026  I     0.60832   0.32763   0.94151   0.00000  Uiso   1.00
I1027  I     0.62631   0.30223   0.73883   0.00000  Uiso   1.00
I1028  I     0.89168   0.17237   0.94151   0.00000  Uiso   1.00
I1029  I     0.62631   0.19777   0.92784   0.00000  Uiso   1.00
I1030  I     0.89168   0.32763   0.72515   0.00000  Uiso   1.00
I1031  I     0.87369   0.30223   0.92784   0.00000  Uiso   1.00
I1032  I     0.60832   0.17237   0.72515   0.00000  Uiso   1.00
I1033  I     0.64168   0.42237   0.72515   0.00000  Uiso   1.00
I1034  I     0.87631   0.05223   0.92784   0.00000  Uiso   1.00
I1035  I     0.85832   0.07763   0.72515   0.00000  Uiso   1.00
I1036  I     0.62369   0.44777   0.92784   0.00000  Uiso   1.00
I1037  I     0.85832   0.42237   0.94151   0.00000  Uiso   1.00
I1038  I     0.62369   0.05223   0.73883   0.00000  Uiso   1.00
I1039  I     0.64168   0.07763   0.94151   0.00000  Uiso   1.00
I1040  I     0.87631   0.44777   0.73883   0.00000  Uiso   1.00
O1041  O     0.04509   0.70491   0.87291   0.00000  Uiso   1.00
O1042  O     0.45492   0.79509   0.79375   0.00000  Uiso   1.00
O1043  O     0.45492   0.79509   0.87291   0.00000  Uiso   1.00
O1044  O     0.04509   0.70491   0.79375   0.00000  Uiso   1.00
O1045  O     0.45492   0.70491   0.79375   0.00000  Uiso   1.00
O1046  O     0.04509   0.79509   0.87291   0.00000  Uiso   1.00
O1047  O     0.04509   0.79509   0.79375   0.00000  Uiso   1.00
O1048  O     0.45492   0.70491   0.87291   0.00000  Uiso   1.00
O1049  O     0.29509   0.95491   0.87291   0.00000  Uiso   1.00
O1050  O     0.20492   0.54509   0.79375   0.00000  Uiso   1.00
O1051  O     0.20492   0.54509   0.87291   0.00000  Uiso   1.00
O1052  O     0.29509   0.95491   0.79375   0.00000  Uiso   1.00
O1053  O     0.20492   0.95491   0.79375   0.00000  Uiso   1.00
O1054  O     0.29509   0.54509   0.87291   0.00000  Uiso   1.00
O1055  O     0.29509   0.54509   0.79375   0.00000  Uiso   1.00
O1056  O     0.20492   0.95491   0.87291   0.00000  Uiso   1.00
C1057  C     0.06194   0.69353   0.83306   0.00000  Uiso   1.00
C1058  C     0.43806   0.80647   0.83306   0.00000  Uiso   1.00
C1059  C     0.43806   0.69353   0.83361   0.00000  Uiso   1.00
C1060  C     0.06194   0.80647   0.83361   0.00000  Uiso   1.00
C1061  C     0.31194   0.94353   0.83361   0.00000  Uiso   1.00
C1062  C     0.18806   0.55647   0.83361   0.00000  Uiso   1.00
C1063  C     0.18806   0.94353   0.83306   0.00000  Uiso   1.00
C1064  C     0.31194   0.55647   0.83306   0.00000  Uiso   1.00
N1065  N     0.00000   0.75000   0.95069   0.00000  Uiso   1.00
N1066  N     0.00000   0.75000   0.71598   0.00000  Uiso   1.00
N1067  N     0.25000   0.50000   0.95069   0.00000  Uiso   1.00
N1068  N     0.25000   0.50000   0.71598   0.00000  Uiso   1.00
Cu1069 Cu    0.00000   0.75000   0.88022   0.00000  Uiso   1.00
Cu1070 Cu    0.00000   0.75000   0.78645   0.00000  Uiso   1.00
Cu1071 Cu    0.25000   0.50000   0.88022   0.00000  Uiso   1.00
Cu1072 Cu    0.25000   0.50000   0.78645   0.00000  Uiso   1.00
C1073  C     0.49741   0.71045   0.69113   0.00000  Uiso   1.00
C1074  C     0.49741   0.78955   0.97554   0.00000  Uiso   1.00
C1075  C     0.00259   0.78955   0.69113   0.00000  Uiso   1.00
C1076  C     0.00259   0.71045   0.97554   0.00000  Uiso   1.00
C1077  C     0.25259   0.96045   0.69113   0.00000  Uiso   1.00
C1078  C     0.25259   0.53955   0.97554   0.00000  Uiso   1.00
C1079  C     0.24741   0.53955   0.69113   0.00000  Uiso   1.00
C1080  C     0.24741   0.96045   0.97554   0.00000  Uiso   1.00
C1081  C     0.38234   0.64993   0.79307   0.00000  Uiso   1.00
C1082  C     0.10946   0.86002   0.87580   0.00000  Uiso   1.00
C1083  C     0.11766   0.85007   0.79307   0.00000  Uiso   1.00
C1084  C     0.39054   0.63999   0.87580   0.00000  Uiso   1.00
C1085  C     0.11766   0.64993   0.87360   0.00000  Uiso   1.00
C1086  C     0.39054   0.86001   0.79086   0.00000  Uiso   1.00
C1087  C     0.38234   0.85007   0.87360   0.00000  Uiso   1.00
C1088  C     0.10945   0.63998   0.79086   0.00000  Uiso   1.00
C1089  C     0.14055   0.88998   0.79086   0.00000  Uiso   1.00
C1090  C     0.36766   0.60007   0.87360   0.00000  Uiso   1.00
C1091  C     0.35946   0.61001   0.79086   0.00000  Uiso   1.00
C1092  C     0.13234   0.89993   0.87360   0.00000  Uiso   1.00
C1093  C     0.35946   0.88999   0.87580   0.00000  Uiso   1.00
C1094  C     0.13234   0.60007   0.79307   0.00000  Uiso   1.00
C1095  C     0.14055   0.61002   0.87580   0.00000  Uiso   1.00
C1096  C     0.36766   0.89993   0.79307   0.00000  Uiso   1.00
C1097  C     0.09815   0.83755   0.83460   0.00000  Uiso   1.00
C1098  C     0.40185   0.66245   0.83460   0.00000  Uiso   1.00
C1099  C     0.40185   0.83755   0.83207   0.00000  Uiso   1.00
C1100  C     0.09815   0.66245   0.83207   0.00000  Uiso   1.00
C1101  C     0.34815   0.58755   0.83207   0.00000  Uiso   1.00
C1102  C     0.15185   0.91245   0.83207   0.00000  Uiso   1.00
C1103  C     0.15185   0.58755   0.83460   0.00000  Uiso   1.00
C1104  C     0.34815   0.91245   0.83460   0.00000  Uiso   1.00
N1105  N     0.48597   0.66864   0.71293   0.00000  Uiso   1.00
O1106  O     0.01170   0.64846   0.74094   0.00000  Uiso   1.00
O1107  O     0.45531   0.64505   0.69546   0.00000  Uiso   1.00
N1108  N     0.48598   0.83136   0.95374   0.00000  Uiso   1.00
O1109  O     0.45531   0.85495   0.97120   0.00000  Uiso   1.00
O1110  O     0.01171   0.85154   0.92573   0.00000  Uiso   1.00
N1111  N     0.01402   0.83136   0.71293   0.00000  Uiso   1.00
O1112  O     0.04469   0.85495   0.69547   0.00000  Uiso   1.00
O1113  O     0.48829   0.85154   0.74093   0.00000  Uiso   1.00
N1114  N     0.01403   0.66864   0.95374   0.00000  Uiso   1.00
O1115  O     0.48830   0.64846   0.92573   0.00000  Uiso   1.00
O1116  O     0.04469   0.64505   0.97120   0.00000  Uiso   1.00
N1117  N     0.26403   0.91864   0.71293   0.00000  Uiso   1.00
O1118  O     0.29469   0.89505   0.69547   0.00000  Uiso   1.00
O1119  O     0.23830   0.89846   0.74094   0.00000  Uiso   1.00
N1120  N     0.26403   0.58136   0.95374   0.00000  Uiso   1.00
O1121  O     0.23830   0.60154   0.92573   0.00000  Uiso   1.00
O1122  O     0.29469   0.60495   0.97120   0.00000  Uiso   1.00
N1123  N     0.23597   0.58136   0.71293   0.00000  Uiso   1.00
O1124  O     0.26170   0.60154   0.74094   0.00000  Uiso   1.00
O1125  O     0.20531   0.60495   0.69547   0.00000  Uiso   1.00
N1126  N     0.23598   0.91864   0.95374   0.00000  Uiso   1.00
O1127  O     0.20531   0.89505   0.97119   0.00000  Uiso   1.00
O1128  O     0.26171   0.89846   0.92573   0.00000  Uiso   1.00
I1129  I     0.37369   0.69777   0.73883   0.00000  Uiso   1.00
I1130  I     0.10832   0.82763   0.94151   0.00000  Uiso   1.00
I1131  I     0.12631   0.80223   0.73883   0.00000  Uiso   1.00
I1132  I     0.39168   0.67237   0.94151   0.00000  Uiso   1.00
I1133  I     0.12631   0.69777   0.92784   0.00000  Uiso   1.00
I1134  I     0.39168   0.82763   0.72515   0.00000  Uiso   1.00
I1135  I     0.37369   0.80223   0.92784   0.00000  Uiso   1.00
I1136  I     0.10832   0.67237   0.72515   0.00000  Uiso   1.00
I1137  I     0.14168   0.92237   0.72515   0.00000  Uiso   1.00
I1138  I     0.37631   0.55223   0.92784   0.00000  Uiso   1.00
I1139  I     0.35832   0.57763   0.72515   0.00000  Uiso   1.00
I1140  I     0.12369   0.94777   0.92784   0.00000  Uiso   1.00
I1141  I     0.35832   0.92237   0.94151   0.00000  Uiso   1.00
I1142  I     0.12369   0.55223   0.73883   0.00000  Uiso   1.00
I1143  I     0.14168   0.57763   0.94151   0.00000  Uiso   1.00
I1144  I     0.37631   0.94777   0.73883   0.00000  Uiso   1.00
O1145  O     0.54509   0.70491   0.87291   0.00000  Uiso   1.00
O1146  O     0.95492   0.79509   0.79375   0.00000  Uiso   1.00
O1147  O     0.95492   0.79509   0.87291   0.00000  Uiso   1.00
O1148  O     0.54509   0.70491   0.79375   0.00000  Uiso   1.00
O1149  O     0.95492   0.70491   0.79375   0.00000  Uiso   1.00
O1150  O     0.54509   0.79509   0.87291   0.00000  Uiso   1.00
O1151  O     0.54509   0.79509   0.79375   0.00000  Uiso   1.00
O1152  O     0.95492   0.70491   0.87291   0.00000  Uiso   1.00
O1153  O     0.79509   0.95491   0.87291   0.00000  Uiso   1.00
O1154  O     0.70492   0.54509   0.79375   0.00000  Uiso   1.00
O1155  O     0.70492   0.54509   0.87291   0.00000  Uiso   1.00
O1156  O     0.79509   0.95491   0.79375   0.00000  Uiso   1.00
O1157  O     0.70492   0.95491   0.79375   0.00000  Uiso   1.00
O1158  O     0.79509   0.54509   0.87291   0.00000  Uiso   1.00
O1159  O     0.79509   0.54509   0.79375   0.00000  Uiso   1.00
O1160  O     0.70492   0.95491   0.87291   0.00000  Uiso   1.00
C1161  C     0.56194   0.69353   0.83306   0.00000  Uiso   1.00
C1162  C     0.93806   0.80647   0.83306   0.00000  Uiso   1.00
C1163  C     0.93806   0.69353   0.83361   0.00000  Uiso   1.00
C1164  C     0.56194   0.80647   0.83361   0.00000  Uiso   1.00
C1165  C     0.81194   0.94353   0.83361   0.00000  Uiso   1.00
C1166  C     0.68806   0.55647   0.83361   0.00000  Uiso   1.00
C1167  C     0.68806   0.94353   0.83306   0.00000  Uiso   1.00
C1168  C     0.81194   0.55647   0.83306   0.00000  Uiso   1.00
N1169  N     0.50000   0.75000   0.95069   0.00000  Uiso   1.00
N1170  N     0.50000   0.75000   0.71598   0.00000  Uiso   1.00
N1171  N     0.75000   0.50000   0.95069   0.00000  Uiso   1.00
N1172  N     0.75000   0.50000   0.71598   0.00000  Uiso   1.00
Cu1173 Cu    0.50000   0.75000   0.88022   0.00000  Uiso   1.00
Cu1174 Cu    0.50000   0.75000   0.78645   0.00000  Uiso   1.00
Cu1175 Cu    0.75000   0.50000   0.88022   0.00000  Uiso   1.00
Cu1176 Cu    0.75000   0.50000   0.78645   0.00000  Uiso   1.00
C1177  C     0.99741   0.71045   0.69113   0.00000  Uiso   1.00
C1178  C     0.99741   0.78955   0.97554   0.00000  Uiso   1.00
C1179  C     0.50259   0.78955   0.69113   0.00000  Uiso   1.00
C1180  C     0.50259   0.71045   0.97554   0.00000  Uiso   1.00
C1181  C     0.75259   0.96045   0.69113   0.00000  Uiso   1.00
C1182  C     0.75259   0.53955   0.97554   0.00000  Uiso   1.00
C1183  C     0.74741   0.53955   0.69113   0.00000  Uiso   1.00
C1184  C     0.74741   0.96045   0.97554   0.00000  Uiso   1.00
C1185  C     0.88234   0.64993   0.79307   0.00000  Uiso   1.00
C1186  C     0.60946   0.86002   0.87580   0.00000  Uiso   1.00
C1187  C     0.61766   0.85007   0.79307   0.00000  Uiso   1.00
C1188  C     0.89054   0.63999   0.87580   0.00000  Uiso   1.00
C1189  C     0.61766   0.64993   0.87360   0.00000  Uiso   1.00
C1190  C     0.89054   0.86001   0.79086   0.00000  Uiso   1.00
C1191  C     0.88234   0.85007   0.87360   0.00000  Uiso   1.00
C1192  C     0.60945   0.63998   0.79086   0.00000  Uiso   1.00
C1193  C     0.64055   0.88998   0.79086   0.00000  Uiso   1.00
C1194  C     0.86766   0.60007   0.87360   0.00000  Uiso   1.00
C1195  C     0.85946   0.61001   0.79086   0.00000  Uiso   1.00
C1196  C     0.63234   0.89993   0.87360   0.00000  Uiso   1.00
C1197  C     0.85946   0.88999   0.87580   0.00000  Uiso   1.00
C1198  C     0.63234   0.60007   0.79307   0.00000  Uiso   1.00
C1199  C     0.64055   0.61002   0.87580   0.00000  Uiso   1.00
C1200  C     0.86766   0.89993   0.79307   0.00000  Uiso   1.00
C1201  C     0.59815   0.83755   0.83460   0.00000  Uiso   1.00
C1202  C     0.90185   0.66245   0.83460   0.00000  Uiso   1.00
C1203  C     0.90185   0.83755   0.83207   0.00000  Uiso   1.00
C1204  C     0.59815   0.66245   0.83207   0.00000  Uiso   1.00
C1205  C     0.84815   0.58755   0.83207   0.00000  Uiso   1.00
C1206  C     0.65185   0.91245   0.83207   0.00000  Uiso   1.00
C1207  C     0.65185   0.58755   0.83460   0.00000  Uiso   1.00
C1208  C     0.84815   0.91245   0.83460   0.00000  Uiso   1.00
N1209  N     0.98597   0.66864   0.71293   0.00000  Uiso   1.00
O1210  O     0.51170   0.64846   0.74094   0.00000  Uiso   1.00
O1211  O     0.95531   0.64505   0.69546   0.00000  Uiso   1.00
N1212  N     0.98598   0.83136   0.95374   0.00000  Uiso   1.00
O1213  O     0.95531   0.85495   0.97120   0.00000  Uiso   1.00
O1214  O     0.51171   0.85154   0.92573   0.00000  Uiso   1.00
N1215  N     0.51402   0.83136   0.71293   0.00000  Uiso   1.00
O1216  O     0.54469   0.85495   0.69547   0.00000  Uiso   1.00
O1217  O     0.98829   0.85154   0.74093   0.00000  Uiso   1.00
N1218  N     0.51403   0.66864   0.95374   0.00000  Uiso   1.00
O1219  O     0.98830   0.64846   0.92573   0.00000  Uiso   1.00
O1220  O     0.54469   0.64505   0.97120   0.00000  Uiso   1.00
N1221  N     0.76403   0.91864   0.71293   0.00000  Uiso   1.00
O1222  O     0.79469   0.89505   0.69547   0.00000  Uiso   1.00
O1223  O     0.73830   0.89846   0.74094   0.00000  Uiso   1.00
N1224  N     0.76403   0.58136   0.95374   0.00000  Uiso   1.00
O1225  O     0.73830   0.60154   0.92573   0.00000  Uiso   1.00
O1226  O     0.79469   0.60495   0.97120   0.00000  Uiso   1.00
N1227  N     0.73597   0.58136   0.71293   0.00000  Uiso   1.00
O1228  O     0.76170   0.60154   0.74094   0.00000  Uiso   1.00
O1229  O     0.70531   0.60495   0.69547   0.00000  Uiso   1.00
N1230  N     0.73598   0.91864   0.95374   0.00000  Uiso   1.00
O1231  O     0.70531   0.89505   0.97119   0.00000  Uiso   1.00
O1232  O     0.76171   0.89846   0.92573   0.00000  Uiso   1.00
I1233  I     0.87369   0.69777   0.73883   0.00000  Uiso   1.00
I1234  I     0.60832   0.82763   0.94151   0.00000  Uiso   1.00
I1235  I     0.62631   0.80223   0.73883   0.00000  Uiso   1.00
I1236  I     0.89168   0.67237   0.94151   0.00000  Uiso   1.00
I1237  I     0.62631   0.69777   0.92784   0.00000  Uiso   1.00
I1238  I     0.89168   0.82763   0.72515   0.00000  Uiso   1.00
I1239  I     0.87369   0.80223   0.92784   0.00000  Uiso   1.00
I1240  I     0.60832   0.67237   0.72515   0.00000  Uiso   1.00
I1241  I     0.64168   0.92237   0.72515   0.00000  Uiso   1.00
I1242  I     0.87631   0.55223   0.92784   0.00000  Uiso   1.00
I1243  I     0.85832   0.57763   0.72515   0.00000  Uiso   1.00
I1244  I     0.62369   0.94777   0.92784   0.00000  Uiso   1.00
I1245  I     0.85832   0.92237   0.94151   0.00000  Uiso   1.00
I1246  I     0.62369   0.55223   0.73883   0.00000  Uiso   1.00
I1247  I     0.64168   0.57763   0.94151   0.00000  Uiso   1.00
I1248  I     0.87631   0.94777   0.73883   0.00000  Uiso   1.00
loop_
_geom_bond_atom_site_label_1
_geom_bond_atom_site_label_2
_geom_bond_distance
_geom_bond_site_symmetry_2
_ccdc_geom_bond_type
O1     Cu29    1.969   .     S
O1     C17     1.315   .     A
O2     C18     1.301   .     A
O2     Cu134   1.969   .     S
O3     C18     1.315   .     A
O3     Cu133   1.969   .     S
O4     C17     1.301   .     A
O4     Cu30    1.969   .     S
O5     C19     1.315   .     A
O5     Cu134   1.969   .     S
O6     C20     1.301   .     A
O6     Cu29    1.969   .     S
O7     Cu30    1.969   .     S
O7     C20     1.315   .     A
O8     C19     1.301   .     A
O8     Cu133   1.969   .     S
O9     C21     1.301   .     A
O9     Cu239   1.969   .     S
O10    C22     1.315   .     A
O10    Cu32    1.969   .     S
O11    Cu31    1.969   .     S
O11    C22     1.301   .     A
O12    C21     1.315   .     A
O12    Cu240   1.969   .     S
O13    C23     1.301   .     A
O13    Cu240   1.969   .     S
O14    Cu31    1.969   .     S
O14    C24     1.315   .     A
O15    Cu32    1.969   .     S
O15    C24     1.301   .     A
O16    C23     1.315   .     A
O16    Cu239   1.969   .     S
C17    C60     1.473   .     S
C18    C59     1.473   .     S
C19    C58     1.473   .     S
C20    C57     1.473   .     S
C21    C64     1.473   .     S
C22    C63     1.473   .     S
C23    C62     1.473   .     S
C24    C61     1.473   .     S
N25    Cu29    2.039   .     S
N25    C36     1.380   .     A
N25    C138    1.380   1_455 S
N26    C35     1.380   .     A
N26    Cu30    2.039   .     S
N26    C137    1.380   1_455 S
N27    C248    1.380   1_545 A
N27    Cu31    2.039   .     S
N27    C38     1.380   .     S
N28    Cu32    2.039   .     S
N28    C39     1.380   .     A
N28    C245    1.380   1_545 S
Cu29   Cu30    2.713   .     S
Cu29   O107    1.969   1_455 S
Cu29   O112    1.969   1_455 S
Cu30   O106    1.969   1_455 S
Cu30   O109    1.969   1_455 S
Cu31   Cu32    2.713   .     S
Cu31   O224    1.969   1_545 S
Cu31   O217    1.969   1_545 S
Cu32   O221    1.969   1_545 S
Cu32   O220    1.969   1_545 S
C33    N65     1.439   .     S
C33    N130    1.380   .     S
C33    C972    1.425   1_554 S
C34    N68     1.439   .     S
C34    N129    1.380   .     S
C34    C555    1.425   .     S
C35    N71     1.439   .     S
C35    C970    1.425   1_454 S
C36    N74     1.439   .     S
C36    C553    1.425   1_455 S
C37    N77     1.439   .     S
C37    N236    1.380   .     S
C37    C872    1.425   1_554 S
C38    N80     1.439   .     S
C38    C455    1.425   .     S
C39    N83     1.439   .     S
C39    C870    1.425   1_554 S
C40    N86     1.439   .     S
C40    N235    1.380   .     A
C40    C453    1.425   .     S
C41    I89     2.135   .     S
C41    C58     1.401   .     A
C41    C51     1.391   .     A
C42    C57     1.412   .     A
C42    I90     2.131   .     S
C42    C52     1.391   .     A
C43    C57     1.401   .     A
C43    C49     1.391   .     A
C43    I91     2.135   .     S
C44    C58     1.412   .     A
C44    I92     2.131   .     S
C44    C50     1.391   .     A
C45    C60     1.401   .     A
C45    I93     2.135   .     S
C45    C55     1.391   .     A
C46    C59     1.412   .     A
C46    I94     2.131   .     S
C46    C56     1.391   .     A
C47    C53     1.391   .     A
C47    C59     1.401   .     A
C47    I95     2.135   .     S
C48    C54     1.391   .     A
C48    C60     1.412   .     A
C48    I96     2.131   .     S
C49    C62     1.412   .     A
C49    I97     2.131   .     S
C50    I98     2.135   .     S
C50    C61     1.401   .     A
C51    C61     1.412   .     A
C51    I99     2.131   .     S
C52    I100    2.135   .     S
C52    C62     1.401   .     A
C53    C64     1.412   .     A
C53    I101    2.131   .     S
C54    C63     1.401   .     A
C54    I102    2.135   .     S
C55    I103    2.131   .     S
C55    C63     1.412   .     A
C56    C64     1.401   .     A
C56    I104    2.135   .     S
N65    O67     1.300   .     A
N65    O170    1.296   .     S
O66    N169    1.296   1_455 S
N68    O69     1.300   .     A
N68    O174    1.296   .     S
O70    N172    1.296   1_455 S
N71    O72     1.300   .     A
N71    O177    1.296   1_455 S
O73    N175    1.296   .     S
N74    O76     1.300   .     A
N74    O179    1.296   1_455 S
O75    N178    1.296   .     S
N77    O78     1.300   .     A
N77    O79     1.296   .     A
N80    O82     1.300   .     A
N80    O81     1.296   .     A
N83    O84     1.296   .     A
N83    O85     1.300   .     A
N86    O88     1.296   .     A
N86    O87     1.300   .     A
O105   Cu133   1.969   .     S
O105   C121    1.315   .     A
O106   C122    1.301   .     A
O106   Cu30    1.969   1_655 S
O107   C122    1.315   .     A
O107   Cu29    1.969   1_655 S
O108   C121    1.301   .     A
O108   Cu134   1.969   .     S
O109   C123    1.315   .     A
O109   Cu30    1.969   1_655 S
O110   C124    1.301   .     A
O110   Cu133   1.969   .     S
O111   Cu134   1.969   .     S
O111   C124    1.315   .     A
O112   C123    1.301   .     A
O112   Cu29    1.969   1_655 S
O113   C125    1.301   .     A
O113   Cu343   1.969   .     S
O114   C126    1.315   .     A
O114   Cu136   1.969   .     S
O115   Cu135   1.969   .     S
O115   C126    1.301   .     A
O116   C125    1.315   .     A
O116   Cu344   1.969   .     S
O117   C127    1.301   .     A
O117   Cu344   1.969   .     S
O118   Cu135   1.969   .     S
O118   C128    1.315   .     A
O119   Cu136   1.969   .     S
O119   C128    1.301   .     A
O120   C127    1.315   .     A
O120   Cu343   1.969   .     S
C121   C164    1.473   .     S
C122   C163    1.473   .     S
C123   C162    1.473   .     S
C124   C161    1.473   .     S
C125   C168    1.473   .     S
C126   C167    1.473   .     S
C127   C166    1.473   .     S
C128   C165    1.473   .     S
N129   Cu133   2.039   .     S
N129   C140    1.380   .     A
N130   C139    1.380   .     A
N130   Cu134   2.039   .     S
N131   C352    1.380   1_545 A
N131   Cu135   2.039   .     S
N131   C142    1.380   .     S
N132   Cu136   2.039   .     S
N132   C143    1.380   .     A
N132   C349    1.380   1_545 S
Cu133  Cu134   2.713   .     S
Cu135  Cu136   2.713   .     S
Cu135  O328    1.969   1_545 S
Cu135  O321    1.969   1_545 S
Cu136  O325    1.969   1_545 S
Cu136  O324    1.969   1_545 S
C137   N169    1.439   .     S
C137   N26     1.380   1_655 S
C137   C868    1.425   1_654 S
C138   N172    1.439   .     S
C138   N25     1.380   1_655 S
C138   C451    1.425   1_655 S
C139   N175    1.439   .     S
C139   C866    1.425   1_554 S
C140   N178    1.439   .     S
C140   C449    1.425   .     S
C141   N181    1.439   .     S
C141   N340    1.380   .     S
C141   C976    1.425   1_554 S
C142   N184    1.439   .     S
C142   C559    1.425   .     S
C143   N187    1.439   .     S
C143   C974    1.425   1_554 S
C144   N190    1.439   .     S
C144   N339    1.380   .     A
C144   C557    1.425   .     S
C145   I193    2.135   .     S
C145   C162    1.401   .     A
C145   C155    1.391   .     A
C146   C161    1.412   .     A
C146   I194    2.131   .     S
C146   C156    1.391   .     A
C147   C161    1.401   .     A
C147   C153    1.391   .     A
C147   I195    2.135   .     S
C148   C162    1.412   .     A
C148   I196    2.131   .     S
C148   C154    1.391   .     A
C149   C164    1.401   .     A
C149   I197    2.135   .     S
C149   C159    1.391   .     A
C150   C163    1.412   .     A
C150   I198    2.131   .     S
C150   C160    1.391   .     A
C151   C157    1.391   .     A
C151   C163    1.401   .     A
C151   I199    2.135   .     S
C152   C158    1.391   .     A
C152   C164    1.412   .     A
C152   I200    2.131   .     S
C153   C166    1.412   .     A
C153   I201    2.131   .     S
C154   I202    2.135   .     S
C154   C165    1.401   .     A
C155   C165    1.412   .     A
C155   I203    2.131   .     S
C156   I204    2.135   .     S
C156   C166    1.401   .     A
C157   C168    1.412   .     A
C157   I205    2.131   .     S
C158   C167    1.401   .     A
C158   I206    2.135   .     S
C159   I207    2.131   .     S
C159   C167    1.412   .     A
C160   C168    1.401   .     A
C160   I208    2.135   .     S
N169   O171    1.300   .     A
N169   O66     1.296   1_655 S
N172   O173    1.300   .     A
N172   O70     1.296   1_655 S
N175   O176    1.300   .     A
O177   N71     1.296   1_655 S
N178   O180    1.300   .     A
O179   N74     1.296   1_655 S
N181   O182    1.300   .     A
N181   O183    1.296   .     A
N184   O186    1.300   .     A
N184   O185    1.296   .     A
N187   O188    1.296   .     A
N187   O189    1.300   .     A
N190   O192    1.296   .     A
N190   O191    1.300   .     A
O209   Cu237   1.969   .     S
O209   C225    1.315   .     A
O210   C226    1.301   .     A
O210   Cu342   1.969   .     S
O211   C226    1.315   .     A
O211   Cu341   1.969   .     S
O212   C225    1.301   .     A
O212   Cu238   1.969   .     S
O213   C227    1.315   .     A
O213   Cu342   1.969   .     S
O214   C228    1.301   .     A
O214   Cu237   1.969   .     S
O215   Cu238   1.969   .     S
O215   C228    1.315   .     A
O216   C227    1.301   .     A
O216   Cu341   1.969   .     S
O217   C229    1.301   .     A
O217   Cu31    1.969   1_565 S
O218   C230    1.315   .     A
O218   Cu240   1.969   .     S
O219   Cu239   1.969   .     S
O219   C230    1.301   .     A
O220   C229    1.315   .     A
O220   Cu32    1.969   1_565 S
O221   C231    1.301   .     A
O221   Cu32    1.969   1_565 S
O222   Cu239   1.969   .     S
O222   C232    1.315   .     A
O223   Cu240   1.969   .     S
O223   C232    1.301   .     A
O224   C231    1.315   .     A
O224   Cu31    1.969   1_565 S
C225   C268    1.473   .     S
C226   C267    1.473   .     S
C227   C266    1.473   .     S
C228   C265    1.473   .     S
C229   C272    1.473   .     S
C230   C271    1.473   .     S
C231   C270    1.473   .     S
C232   C269    1.473   .     S
N233   Cu237   2.039   .     S
N233   C244    1.380   .     A
N233   C346    1.380   1_455 S
N234   C243    1.380   .     A
N234   Cu238   2.039   .     S
N234   C345    1.380   1_455 S
N235   Cu239   2.039   .     S
N235   C246    1.380   .     S
N236   Cu240   2.039   .     S
N236   C247    1.380   .     A
Cu237  Cu238   2.713   .     S
Cu237  O315    1.969   1_455 S
Cu237  O320    1.969   1_455 S
Cu238  O314    1.969   1_455 S
Cu238  O317    1.969   1_455 S
Cu239  Cu240   2.713   .     S
C241   N273    1.439   .     S
C241   N338    1.380   .     S
C241   C1180   1.425   1_554 S
C242   N276    1.439   .     S
C242   N337    1.380   .     S
C242   C763    1.425   .     S
C243   N279    1.439   .     S
C243   C1178   1.425   1_454 S
C244   N282    1.439   .     S
C244   C761    1.425   1_455 S
C245   N285    1.439   .     S
C245   N28     1.380   1_565 S
C245   C1080   1.425   1_554 S
C246   N288    1.439   .     S
C246   C663    1.425   .     S
C247   N291    1.439   .     S
C247   C1078   1.425   1_554 S
C248   N294    1.439   .     S
C248   N27     1.380   1_565 A
C248   C661    1.425   .     S
C249   I297    2.135   .     S
C249   C266    1.401   .     A
C249   C259    1.391   .     A
C250   C265    1.412   .     A
C250   I298    2.131   .     S
C250   C260    1.391   .     A
C251   C265    1.401   .     A
C251   C257    1.391   .     A
C251   I299    2.135   .     S
C252   C266    1.412   .     A
C252   I300    2.131   .     S
C252   C258    1.391   .     A
C253   C268    1.401   .     A
C253   I301    2.135   .     S
C253   C263    1.391   .     A
C254   C267    1.412   .     A
C254   I302    2.131   .     S
C254   C264    1.391   .     A
C255   C261    1.391   .     A
C255   C267    1.401   .     A
C255   I303    2.135   .     S
C256   C262    1.391   .     A
C256   C268    1.412   .     A
C256   I304    2.131   .     S
C257   C270    1.412   .     A
C257   I305    2.131   .     S
C258   I306    2.135   .     S
C258   C269    1.401   .     A
C259   C269    1.412   .     A
C259   I307    2.131   .     S
C260   I308    2.135   .     S
C260   C270    1.401   .     A
C261   C272    1.412   .     A
C261   I309    2.131   .     S
C262   C271    1.401   .     A
C262   I310    2.135   .     S
C263   I311    2.131   .     S
C263   C271    1.412   .     A
C264   C272    1.401   .     A
C264   I312    2.135   .     S
N273   O275    1.300   .     A
N273   O378    1.296   .     S
O274   N377    1.296   1_455 S
N276   O277    1.300   .     A
N276   O382    1.296   .     S
O278   N380    1.296   1_455 S
N279   O280    1.300   .     A
N279   O385    1.296   1_455 S
O281   N383    1.296   .     S
N282   O284    1.300   .     A
N282   O387    1.296   1_455 S
O283   N386    1.296   .     S
N285   O286    1.300   .     A
N285   O287    1.296   .     A
N288   O290    1.300   .     A
N288   O289    1.296   .     A
N291   O292    1.296   .     A
N291   O293    1.300   .     A
N294   O296    1.296   .     A
N294   O295    1.300   .     A
O313   Cu341   1.969   .     S
O313   C329    1.315   .     A
O314   C330    1.301   .     A
O314   Cu238   1.969   1_655 S
O315   C330    1.315   .     A
O315   Cu237   1.969   1_655 S
O316   C329    1.301   .     A
O316   Cu342   1.969   .     S
O317   C331    1.315   .     A
O317   Cu238   1.969   1_655 S
O318   C332    1.301   .     A
O318   Cu341   1.969   .     S
O319   Cu342   1.969   .     S
O319   C332    1.315   .     A
O320   C331    1.301   .     A
O320   Cu237   1.969   1_655 S
O321   C333    1.301   .     A
O321   Cu135   1.969   1_565 S
O322   C334    1.315   .     A
O322   Cu344   1.969   .     S
O323   Cu343   1.969   .     S
O323   C334    1.301   .     A
O324   C333    1.315   .     A
O324   Cu136   1.969   1_565 S
O325   C335    1.301   .     A
O325   Cu136   1.969   1_565 S
O326   Cu343   1.969   .     S
O326   C336    1.315   .     A
O327   Cu344   1.969   .     S
O327   C336    1.301   .     A
O328   C335    1.315   .     A
O328   Cu135   1.969   1_565 S
C329   C372    1.473   .     S
C330   C371    1.473   .     S
C331   C370    1.473   .     S
C332   C369    1.473   .     S
C333   C376    1.473   .     S
C334   C375    1.473   .     S
C335   C374    1.473   .     S
C336   C373    1.473   .     S
N337   Cu341   2.039   .     S
N337   C348    1.380   .     A
N338   C347    1.380   .     A
N338   Cu342   2.039   .     S
N339   Cu343   2.039   .     S
N339   C350    1.380   .     S
N340   Cu344   2.039   .     S
N340   C351    1.380   .     A
Cu341  Cu342   2.713   .     S
Cu343  Cu344   2.713   .     S
C345   N377    1.439   .     S
C345   N234    1.380   1_655 S
C345   C1076   1.425   1_654 S
C346   N380    1.439   .     S
C346   N233    1.380   1_655 S
C346   C659    1.425   1_655 S
C347   N383    1.439   .     S
C347   C1074   1.425   1_554 S
C348   N386    1.439   .     S
C348   C657    1.425   .     S
C349   N389    1.439   .     S
C349   N132    1.380   1_565 S
C349   C1184   1.425   1_554 S
C350   N392    1.439   .     S
C350   C767    1.425   .     S
C351   N395    1.439   .     S
C351   C1182   1.425   1_554 S
C352   N398    1.439   .     S
C352   N131    1.380   1_565 A
C352   C765    1.425   .     S
C353   I401    2.135   .     S
C353   C370    1.401   .     A
C353   C363    1.391   .     A
C354   C369    1.412   .     A
C354   I402    2.131   .     S
C354   C364    1.391   .     A
C355   C369    1.401   .     A
C355   C361    1.391   .     A
C355   I403    2.135   .     S
C356   C370    1.412   .     A
C356   I404    2.131   .     S
C356   C362    1.391   .     A
C357   C372    1.401   .     A
C357   I405    2.135   .     S
C357   C367    1.391   .     A
C358   C371    1.412   .     A
C358   I406    2.131   .     S
C358   C368    1.391   .     A
C359   C365    1.391   .     A
C359   C371    1.401   .     A
C359   I407    2.135   .     S
C360   C366    1.391   .     A
C360   C372    1.412   .     A
C360   I408    2.131   .     S
C361   C374    1.412   .     A
C361   I409    2.131   .     S
C362   I410    2.135   .     S
C362   C373    1.401   .     A
C363   C373    1.412   .     A
C363   I411    2.131   .     S
C364   I412    2.135   .     S
C364   C374    1.401   .     A
C365   C376    1.412   .     A
C365   I413    2.131   .     S
C366   C375    1.401   .     A
C366   I414    2.135   .     S
C367   I415    2.131   .     S
C367   C375    1.412   .     A
C368   C376    1.401   .     A
C368   I416    2.135   .     S
N377   O379    1.300   .     A
N377   O274    1.296   1_655 S
N380   O381    1.300   .     A
N380   O278    1.296   1_655 S
N383   O384    1.300   .     A
O385   N279    1.296   1_655 S
N386   O388    1.300   .     A
O387   N282    1.296   1_655 S
N389   O390    1.300   .     A
N389   O391    1.296   .     A
N392   O394    1.300   .     A
N392   O393    1.296   .     A
N395   O396    1.296   .     A
N395   O397    1.300   .     A
N398   O400    1.296   .     A
N398   O399    1.300   .     A
O417   Cu445   1.969   .     S
O417   C433    1.315   .     A
O418   C434    1.301   .     A
O418   Cu550   1.969   .     S
O419   C434    1.315   .     A
O419   Cu549   1.969   .     S
O420   C433    1.301   .     A
O420   Cu446   1.969   .     S
O421   C435    1.315   .     A
O421   Cu550   1.969   .     S
O422   C436    1.301   .     A
O422   Cu445   1.969   .     S
O423   Cu446   1.969   .     S
O423   C436    1.315   .     A
O424   C435    1.301   .     A
O424   Cu549   1.969   .     S
O425   C437    1.301   .     A
O425   Cu655   1.969   .     S
O426   C438    1.315   .     A
O426   Cu448   1.969   .     S
O427   Cu447   1.969   .     S
O427   C438    1.301   .     A
O428   C437    1.315   .     A
O428   Cu656   1.969   .     S
O429   C439    1.301   .     A
O429   Cu656   1.969   .     S
O430   Cu447   1.969   .     S
O430   C440    1.315   .     A
O431   Cu448   1.969   .     S
O431   C440    1.301   .     A
O432   C439    1.315   .     A
O432   Cu655   1.969   .     S
C433   C476    1.473   .     S
C434   C475    1.473   .     S
C435   C474    1.473   .     S
C436   C473    1.473   .     S
C437   C480    1.473   .     S
C438   C479    1.473   .     S
C439   C478    1.473   .     S
C440   C477    1.473   .     S
N441   Cu445   2.039   .     S
N441   C452    1.380   .     A
N441   C554    1.380   1_455 S
N442   C451    1.380   .     A
N442   Cu446   2.039   .     S
N442   C553    1.380   1_455 S
N443   C664    1.380   1_545 A
N443   Cu447   2.039   .     S
N443   C454    1.380   .     S
N444   Cu448   2.039   .     S
N444   C455    1.380   .     A
N444   C661    1.380   1_545 S
Cu445  Cu446   2.713   .     S
Cu445  O523    1.969   1_455 S
Cu445  O528    1.969   1_455 S
Cu446  O522    1.969   1_455 S
Cu446  O525    1.969   1_455 S
Cu447  Cu448   2.713   .     S
Cu447  O640    1.969   1_545 S
Cu447  O633    1.969   1_545 S
Cu448  O637    1.969   1_545 S
Cu448  O636    1.969   1_545 S
C449   N481    1.439   .     S
C449   N546    1.380   .     S
C450   N484    1.439   .     S
C450   N545    1.380   .     S
C450   C971    1.425   .     S
C451   N487    1.439   .     S
C451   C138    1.425   1_455 S
C452   N490    1.439   .     S
C452   C969    1.425   1_455 S
C453   N493    1.439   .     S
C453   N652    1.380   .     S
C454   N496    1.439   .     S
C454   C871    1.425   .     S
C455   N499    1.439   .     S
C456   N502    1.439   .     S
C456   N651    1.380   .     A
C456   C869    1.425   .     S
C457   I505    2.135   .     S
C457   C474    1.401   .     A
C457   C467    1.391   .     A
C458   C473    1.412   .     A
C458   I506    2.131   .     S
C458   C468    1.391   .     A
C459   C473    1.401   .     A
C459   C465    1.391   .     A
C459   I507    2.135   .     S
C460   C474    1.412   .     A
C460   I508    2.131   .     S
C460   C466    1.391   .     A
C461   C476    1.401   .     A
C461   I509    2.135   .     S
C461   C471    1.391   .     A
C462   C475    1.412   .     A
C462   I510    2.131   .     S
C462   C472    1.391   .     A
C463   C469    1.391   .     A
C463   C475    1.401   .     A
C463   I511    2.135   .     S
C464   C470    1.391   .     A
C464   C476    1.412   .     A
C464   I512    2.131   .     S
C465   C478    1.412   .     A
C465   I513    2.131   .     S
C466   I514    2.135   .     S
C466   C477    1.401   .     A
C467   C477    1.412   .     A
C467   I515    2.131   .     S
C468   I516    2.135   .     S
C468   C478    1.401   .     A
C469   C480    1.412   .     A
C469   I517    2.131   .     S
C470   C479    1.401   .     A
C470   I518    2.135   .     S
C471   I519    2.131   .     S
C471   C479    1.412   .     A
C472   C480    1.401   .     A
C472   I520    2.135   .     S
N481   O483    1.300   .     A
N481   O586    1.296   .     S
O482   N585    1.296   1_455 S
N484   O485    1.300   .     A
N484   O590    1.296   .     S
O486   N588    1.296   1_455 S
N487   O488    1.300   .     A
N487   O593    1.296   1_455 S
O489   N591    1.296   .     S
N490   O492    1.300   .     A
N490   O595    1.296   1_455 S
O491   N594    1.296   .     S
N493   O494    1.300   .     A
N493   O495    1.296   .     A
N496   O498    1.300   .     A
N496   O497    1.296   .     A
N499   O500    1.296   .     A
N499   O501    1.300   .     A
N502   O504    1.296   .     A
N502   O503    1.300   .     A
O521   Cu549   1.969   .     S
O521   C537    1.315   .     A
O522   C538    1.301   .     A
O522   Cu446   1.969   1_655 S
O523   C538    1.315   .     A
O523   Cu445   1.969   1_655 S
O524   C537    1.301   .     A
O524   Cu550   1.969   .     S
O525   C539    1.315   .     A
O525   Cu446   1.969   1_655 S
O526   C540    1.301   .     A
O526   Cu549   1.969   .     S
O527   Cu550   1.969   .     S
O527   C540    1.315   .     A
O528   C539    1.301   .     A
O528   Cu445   1.969   1_655 S
O529   C541    1.301   .     A
O529   Cu759   1.969   .     S
O530   C542    1.315   .     A
O530   Cu552   1.969   .     S
O531   Cu551   1.969   .     S
O531   C542    1.301   .     A
O532   C541    1.315   .     A
O532   Cu760   1.969   .     S
O533   C543    1.301   .     A
O533   Cu760   1.969   .     S
O534   Cu551   1.969   .     S
O534   C544    1.315   .     A
O535   Cu552   1.969   .     S
O535   C544    1.301   .     A
O536   C543    1.315   .     A
O536   Cu759   1.969   .     S
C537   C580    1.473   .     S
C538   C579    1.473   .     S
C539   C578    1.473   .     S
C540   C577    1.473   .     S
C541   C584    1.473   .     S
C542   C583    1.473   .     S
C543   C582    1.473   .     S
C544   C581    1.473   .     S
N545   Cu549   2.039   .     S
N545   C556    1.380   .     A
N546   C555    1.380   .     A
N546   Cu550   2.039   .     S
N547   C768    1.380   1_545 A
N547   Cu551   2.039   .     S
N547   C558    1.380   .     S
N548   Cu552   2.039   .     S
N548   C559    1.380   .     A
N548   C765    1.380   1_545 S
Cu549  Cu550   2.713   .     S
Cu551  Cu552   2.713   .     S
Cu551  O744    1.969   1_545 S
Cu551  O737    1.969   1_545 S
Cu552  O741    1.969   1_545 S
Cu552  O740    1.969   1_545 S
C553   N585    1.439   .     S
C553   N442    1.380   1_655 S
C553   C36     1.425   1_655 S
C554   N588    1.439   .     S
C554   N441    1.380   1_655 S
C554   C867    1.425   1_655 S
C555   N591    1.439   .     S
C556   N594    1.439   .     S
C556   C865    1.425   .     S
C557   N597    1.439   .     S
C557   N756    1.380   .     S
C558   N600    1.439   .     S
C558   C975    1.425   .     S
C559   N603    1.439   .     S
C560   N606    1.439   .     S
C560   N755    1.380   .     A
C560   C973    1.425   .     S
C561   I609    2.135   .     S
C561   C578    1.401   .     A
C561   C571    1.391   .     A
C562   C577    1.412   .     A
C562   I610    2.131   .     S
C562   C572    1.391   .     A
C563   C577    1.401   .     A
C563   C569    1.391   .     A
C563   I611    2.135   .     S
C564   C578    1.412   .     A
C564   I612    2.131   .     S
C564   C570    1.391   .     A
C565   C580    1.401   .     A
C565   I613    2.135   .     S
C565   C575    1.391   .     A
C566   C579    1.412   .     A
C566   I614    2.131   .     S
C566   C576    1.391   .     A
C567   C573    1.391   .     A
C567   C579    1.401   .     A
C567   I615    2.135   .     S
C568   C574    1.391   .     A
C568   C580    1.412   .     A
C568   I616    2.131   .     S
C569   C582    1.412   .     A
C569   I617    2.131   .     S
C570   I618    2.135   .     S
C570   C581    1.401   .     A
C571   C581    1.412   .     A
C571   I619    2.131   .     S
C572   I620    2.135   .     S
C572   C582    1.401   .     A
C573   C584    1.412   .     A
C573   I621    2.131   .     S
C574   C583    1.401   .     A
C574   I622    2.135   .     S
C575   I623    2.131   .     S
C575   C583    1.412   .     A
C576   C584    1.401   .     A
C576   I624    2.135   .     S
N585   O587    1.300   .     A
N585   O482    1.296   1_655 S
N588   O589    1.300   .     A
N588   O486    1.296   1_655 S
N591   O592    1.300   .     A
O593   N487    1.296   1_655 S
N594   O596    1.300   .     A
O595   N490    1.296   1_655 S
N597   O598    1.300   .     A
N597   O599    1.296   .     A
N600   O602    1.300   .     A
N600   O601    1.296   .     A
N603   O604    1.296   .     A
N603   O605    1.300   .     A
N606   O608    1.296   .     A
N606   O607    1.300   .     A
O625   Cu653   1.969   .     S
O625   C641    1.315   .     A
O626   C642    1.301   .     A
O626   Cu758   1.969   .     S
O627   C642    1.315   .     A
O627   Cu757   1.969   .     S
O628   C641    1.301   .     A
O628   Cu654   1.969   .     S
O629   C643    1.315   .     A
O629   Cu758   1.969   .     S
O630   C644    1.301   .     A
O630   Cu653   1.969   .     S
O631   Cu654   1.969   .     S
O631   C644    1.315   .     A
O632   C643    1.301   .     A
O632   Cu757   1.969   .     S
O633   C645    1.301   .     A
O633   Cu447   1.969   1_565 S
O634   C646    1.315   .     A
O634   Cu656   1.969   .     S
O635   Cu655   1.969   .     S
O635   C646    1.301   .     A
O636   C645    1.315   .     A
O636   Cu448   1.969   1_565 S
O637   C647    1.301   .     A
O637   Cu448   1.969   1_565 S
O638   Cu655   1.969   .     S
O638   C648    1.315   .     A
O639   Cu656   1.969   .     S
O639   C648    1.301   .     A
O640   C647    1.315   .     A
O640   Cu447   1.969   1_565 S
C641   C684    1.473   .     S
C642   C683    1.473   .     S
C643   C682    1.473   .     S
C644   C681    1.473   .     S
C645   C688    1.473   .     S
C646   C687    1.473   .     S
C647   C686    1.473   .     S
C648   C685    1.473   .     S
N649   Cu653   2.039   .     S
N649   C660    1.380   .     A
N649   C762    1.380   1_455 S
N650   C659    1.380   .     A
N650   Cu654   2.039   .     S
N650   C761    1.380   1_455 S
N651   Cu655   2.039   .     S
N651   C662    1.380   .     S
N652   Cu656   2.039   .     S
N652   C663    1.380   .     A
Cu653  Cu654   2.713   .     S
Cu653  O731    1.969   1_455 S
Cu653  O736    1.969   1_455 S
Cu654  O730    1.969   1_455 S
Cu654  O733    1.969   1_455 S
Cu655  Cu656   2.713   .     S
C657   N689    1.439   .     S
C657   N754    1.380   .     S
C658   N692    1.439   .     S
C658   N753    1.380   .     S
C658   C1179   1.425   .     S
C659   N695    1.439   .     S
C659   C346    1.425   1_455 S
C660   N698    1.439   .     S
C660   C1177   1.425   1_455 S
C661   N701    1.439   .     S
C661   N444    1.380   1_565 S
C662   N704    1.439   .     S
C662   C1079   1.425   .     S
C663   N707    1.439   .     S
C664   N710    1.439   .     S
C664   N443    1.380   1_565 A
C664   C1077   1.425   .     S
C665   I713    2.135   .     S
C665   C682    1.401   .     A
C665   C675    1.391   .     A
C666   C681    1.412   .     A
C666   I714    2.131   .     S
C666   C676    1.391   .     A
C667   C681    1.401   .     A
C667   C673    1.391   .     A
C667   I715    2.135   .     S
C668   C682    1.412   .     A
C668   I716    2.131   .     S
C668   C674    1.391   .     A
C669   C684    1.401   .     A
C669   I717    2.135   .     S
C669   C679    1.391   .     A
C670   C683    1.412   .     A
C670   I718    2.131   .     S
C670   C680    1.391   .     A
C671   C677    1.391   .     A
C671   C683    1.401   .     A
C671   I719    2.135   .     S
C672   C678    1.391   .     A
C672   C684    1.412   .     A
C672   I720    2.131   .     S
C673   C686    1.412   .     A
C673   I721    2.131   .     S
C674   I722    2.135   .     S
C674   C685    1.401   .     A
C675   C685    1.412   .     A
C675   I723    2.131   .     S
C676   I724    2.135   .     S
C676   C686    1.401   .     A
C677   C688    1.412   .     A
C677   I725    2.131   .     S
C678   C687    1.401   .     A
C678   I726    2.135   .     S
C679   I727    2.131   .     S
C679   C687    1.412   .     A
C680   C688    1.401   .     A
C680   I728    2.135   .     S
N689   O691    1.300   .     A
N689   O794    1.296   .     S
O690   N793    1.296   1_455 S
N692   O693    1.300   .     A
N692   O798    1.296   .     S
O694   N796    1.296   1_455 S
N695   O696    1.300   .     A
N695   O801    1.296   1_455 S
O697   N799    1.296   .     S
N698   O700    1.300   .     A
N698   O803    1.296   1_455 S
O699   N802    1.296   .     S
N701   O702    1.300   .     A
N701   O703    1.296   .     A
N704   O706    1.300   .     A
N704   O705    1.296   .     A
N707   O708    1.296   .     A
N707   O709    1.300   .     A
N710   O712    1.296   .     A
N710   O711    1.300   .     A
O729   Cu757   1.969   .     S
O729   C745    1.315   .     A
O730   C746    1.301   .     A
O730   Cu654   1.969   1_655 S
O731   C746    1.315   .     A
O731   Cu653   1.969   1_655 S
O732   C745    1.301   .     A
O732   Cu758   1.969   .     S
O733   C747    1.315   .     A
O733   Cu654   1.969   1_655 S
O734   C748    1.301   .     A
O734   Cu757   1.969   .     S
O735   Cu758   1.969   .     S
O735   C748    1.315   .     A
O736   C747    1.301   .     A
O736   Cu653   1.969   1_655 S
O737   C749    1.301   .     A
O737   Cu551   1.969   1_565 S
O738   C750    1.315   .     A
O738   Cu760   1.969   .     S
O739   Cu759   1.969   .     S
O739   C750    1.301   .     A
O740   C749    1.315   .     A
O740   Cu552   1.969   1_565 S
O741   C751    1.301   .     A
O741   Cu552   1.969   1_565 S
O742   Cu759   1.969   .     S
O742   C752    1.315   .     A
O743   Cu760   1.969   .     S
O743   C752    1.301   .     A
O744   C751    1.315   .     A
O744   Cu551   1.969   1_565 S
C745   C788    1.473   .     S
C746   C787    1.473   .     S
C747   C786    1.473   .     S
C748   C785    1.473   .     S
C749   C792    1.473   .     S
C750   C791    1.473   .     S
C751   C790    1.473   .     S
C752   C789    1.473   .     S
N753   Cu757   2.039   .     S
N753   C764    1.380   .     A
N754   C763    1.380   .     A
N754   Cu758   2.039   .     S
N755   Cu759   2.039   .     S
N755   C766    1.380   .     S
N756   Cu760   2.039   .     S
N756   C767    1.380   .     A
Cu757  Cu758   2.713   .     S
Cu759  Cu760   2.713   .     S
C761   N793    1.439   .     S
C761   N650    1.380   1_655 S
C761   C244    1.425   1_655 S
C762   N796    1.439   .     S
C762   N649    1.380   1_655 S
C762   C1075   1.425   1_655 S
C763   N799    1.439   .     S
C764   N802    1.439   .     S
C764   C1073   1.425   .     S
C765   N805    1.439   .     S
C765   N548    1.380   1_565 S
C766   N808    1.439   .     S
C766   C1183   1.425   .     S
C767   N811    1.439   .     S
C768   N814    1.439   .     S
C768   N547    1.380   1_565 A
C768   C1181   1.425   .     S
C769   I817    2.135   .     S
C769   C786    1.401   .     A
C769   C779    1.391   .     A
C770   C785    1.412   .     A
C770   I818    2.131   .     S
C770   C780    1.391   .     A
C771   C785    1.401   .     A
C771   C777    1.391   .     A
C771   I819    2.135   .     S
C772   C786    1.412   .     A
C772   I820    2.131   .     S
C772   C778    1.391   .     A
C773   C788    1.401   .     A
C773   I821    2.135   .     S
C773   C783    1.391   .     A
C774   C787    1.412   .     A
C774   I822    2.131   .     S
C774   C784    1.391   .     A
C775   C781    1.391   .     A
C775   C787    1.401   .     A
C775   I823    2.135   .     S
C776   C782    1.391   .     A
C776   C788    1.412   .     A
C776   I824    2.131   .     S
C777   C790    1.412   .     A
C777   I825    2.131   .     S
C778   I826    2.135   .     S
C778   C789    1.401   .     A
C779   C789    1.412   .     A
C779   I827    2.131   .     S
C780   I828    2.135   .     S
C780   C790    1.401   .     A
C781   C792    1.412   .     A
C781   I829    2.131   .     S
C782   C791    1.401   .     A
C782   I830    2.135   .     S
C783   I831    2.131   .     S
C783   C791    1.412   .     A
C784   C792    1.401   .     A
C784   I832    2.135   .     S
N793   O795    1.300   .     A
N793   O690    1.296   1_655 S
N796   O797    1.300   .     A
N796   O694    1.296   1_655 S
N799   O800    1.300   .     A
O801   N695    1.296   1_655 S
N802   O804    1.300   .     A
O803   N698    1.296   1_655 S
N805   O806    1.300   .     A
N805   O807    1.296   .     A
N808   O810    1.300   .     A
N808   O809    1.296   .     A
N811   O812    1.296   .     A
N811   O813    1.300   .     A
N814   O816    1.296   .     A
N814   O815    1.300   .     A
O833   Cu861   1.969   .     S
O833   C849    1.315   .     A
O834   C850    1.301   .     A
O834   Cu966   1.969   .     S
O835   C850    1.315   .     A
O835   Cu965   1.969   .     S
O836   C849    1.301   .     A
O836   Cu862   1.969   .     S
O837   C851    1.315   .     A
O837   Cu966   1.969   .     S
O838   C852    1.301   .     A
O838   Cu861   1.969   .     S
O839   Cu862   1.969   .     S
O839   C852    1.315   .     A
O840   C851    1.301   .     A
O840   Cu965   1.969   .     S
O841   C853    1.301   .     A
O841   Cu1071  1.969   .     S
O842   C854    1.315   .     A
O842   Cu864   1.969   .     S
O843   Cu863   1.969   .     S
O843   C854    1.301   .     A
O844   C853    1.315   .     A
O844   Cu1072  1.969   .     S
O845   C855    1.301   .     A
O845   Cu1072  1.969   .     S
O846   Cu863   1.969   .     S
O846   C856    1.315   .     A
O847   Cu864   1.969   .     S
O847   C856    1.301   .     A
O848   C855    1.315   .     A
O848   Cu1071  1.969   .     S
C849   C892    1.473   .     S
C850   C891    1.473   .     S
C851   C890    1.473   .     S
C852   C889    1.473   .     S
C853   C896    1.473   .     S
C854   C895    1.473   .     S
C855   C894    1.473   .     S
C856   C893    1.473   .     S
N857   Cu861   2.039   .     S
N857   C868    1.380   .     A
N857   C970    1.380   1_455 S
N858   C867    1.380   .     A
N858   Cu862   2.039   .     S
N858   C969    1.380   1_455 S
N859   C1080   1.380   1_545 A
N859   Cu863   2.039   .     S
N859   C870    1.380   .     S
N860   Cu864   2.039   .     S
N860   C871    1.380   .     A
N860   C1077   1.380   1_545 S
Cu861  Cu862   2.713   .     S
Cu861  O939    1.969   1_455 S
Cu861  O944    1.969   1_455 S
Cu862  O938    1.969   1_455 S
Cu862  O941    1.969   1_455 S
Cu863  Cu864   2.713   .     S
Cu863  O1056   1.969   1_545 S
Cu863  O1049   1.969   1_545 S
Cu864  O1053   1.969   1_545 S
Cu864  O1052   1.969   1_545 S
C865   N897    1.439   .     S
C865   N962    1.380   .     S
C866   N900    1.439   .     S
C866   N961    1.380   .     S
C866   C139    1.425   1_556 S
C867   N903    1.439   .     S
C867   C554    1.425   1_455 S
C868   N906    1.439   .     S
C868   C137    1.425   1_456 S
C869   N909    1.439   .     S
C869   N1068   1.380   .     S
C870   N912    1.439   .     S
C870   C39     1.425   1_556 S
C871   N915    1.439   .     S
C872   N918    1.439   .     S
C872   N1067   1.380   .     A
C872   C37     1.425   1_556 S
C873   I921    2.135   .     S
C873   C890    1.401   .     A
C873   C883    1.391   .     A
C874   C889    1.412   .     A
C874   I922    2.131   .     S
C874   C884    1.391   .     A
C875   C889    1.401   .     A
C875   C881    1.391   .     A
C875   I923    2.135   .     S
C876   C890    1.412   .     A
C876   I924    2.131   .     S
C876   C882    1.391   .     A
C877   C892    1.401   .     A
C877   I925    2.135   .     S
C877   C887    1.391   .     A
C878   C891    1.412   .     A
C878   I926    2.131   .     S
C878   C888    1.391   .     A
C879   C885    1.391   .     A
C879   C891    1.401   .     A
C879   I927    2.135   .     S
C880   C886    1.391   .     A
C880   C892    1.412   .     A
C880   I928    2.131   .     S
C881   C894    1.412   .     A
C881   I929    2.131   .     S
C882   I930    2.135   .     S
C882   C893    1.401   .     A
C883   C893    1.412   .     A
C883   I931    2.131   .     S
C884   I932    2.135   .     S
C884   C894    1.401   .     A
C885   C896    1.412   .     A
C885   I933    2.131   .     S
C886   C895    1.401   .     A
C886   I934    2.135   .     S
C887   I935    2.131   .     S
C887   C895    1.412   .     A
C888   C896    1.401   .     A
C888   I936    2.135   .     S
N897   O899    1.300   .     A
N897   O1002   1.296   .     S
O898   N1001   1.296   1_455 S
N900   O901    1.300   .     A
N900   O1006   1.296   .     S
O902   N1004   1.296   1_455 S
N903   O904    1.300   .     A
N903   O1009   1.296   1_455 S
O905   N1007   1.296   .     S
N906   O908    1.300   .     A
N906   O1011   1.296   1_455 S
O907   N1010   1.296   .     S
N909   O910    1.300   .     A
N909   O911    1.296   .     A
N912   O914    1.300   .     A
N912   O913    1.296   .     A
N915   O916    1.296   .     A
N915   O917    1.300   .     A
N918   O920    1.296   .     A
N918   O919    1.300   .     A
O937   Cu965   1.969   .     S
O937   C953    1.315   .     A
O938   C954    1.301   .     A
O938   Cu862   1.969   1_655 S
O939   C954    1.315   .     A
O939   Cu861   1.969   1_655 S
O940   C953    1.301   .     A
O940   Cu966   1.969   .     S
O941   C955    1.315   .     A
O941   Cu862   1.969   1_655 S
O942   C956    1.301   .     A
O942   Cu965   1.969   .     S
O943   Cu966   1.969   .     S
O943   C956    1.315   .     A
O944   C955    1.301   .     A
O944   Cu861   1.969   1_655 S
O945   C957    1.301   .     A
O945   Cu1175  1.969   .     S
O946   C958    1.315   .     A
O946   Cu968   1.969   .     S
O947   Cu967   1.969   .     S
O947   C958    1.301   .     A
O948   C957    1.315   .     A
O948   Cu1176  1.969   .     S
O949   C959    1.301   .     A
O949   Cu1176  1.969   .     S
O950   Cu967   1.969   .     S
O950   C960    1.315   .     A
O951   Cu968   1.969   .     S
O951   C960    1.301   .     A
O952   C959    1.315   .     A
O952   Cu1175  1.969   .     S
C953   C996    1.473   .     S
C954   C995    1.473   .     S
C955   C994    1.473   .     S
C956   C993    1.473   .     S
C957   C1000   1.473   .     S
C958   C999    1.473   .     S
C959   C998    1.473   .     S
C960   C997    1.473   .     S
N961   Cu965   2.039   .     S
N961   C972    1.380   .     A
N962   C971    1.380   .     A
N962   Cu966   2.039   .     S
N963   C1184   1.380   1_545 A
N963   Cu967   2.039   .     S
N963   C974    1.380   .     S
N964   Cu968   2.039   .     S
N964   C975    1.380   .     A
N964   C1181   1.380   1_545 S
Cu965  Cu966   2.713   .     S
Cu967  Cu968   2.713   .     S
Cu967  O1160   1.969   1_545 S
Cu967  O1153   1.969   1_545 S
Cu968  O1157   1.969   1_545 S
Cu968  O1156   1.969   1_545 S
C969   N1001   1.439   .     S
C969   N858    1.380   1_655 S
C969   C452    1.425   1_655 S
C970   N1004   1.439   .     S
C970   N857    1.380   1_655 S
C970   C35     1.425   1_656 S
C971   N1007   1.439   .     S
C972   N1010   1.439   .     S
C972   C33     1.425   1_556 S
C973   N1013   1.439   .     S
C973   N1172   1.380   .     S
C974   N1016   1.439   .     S
C974   C143    1.425   1_556 S
C975   N1019   1.439   .     S
C976   N1022   1.439   .     S
C976   N1171   1.380   .     A
C976   C141    1.425   1_556 S
C977   I1025   2.135   .     S
C977   C994    1.401   .     A
C977   C987    1.391   .     A
C978   C993    1.412   .     A
C978   I1026   2.131   .     S
C978   C988    1.391   .     A
C979   C993    1.401   .     A
C979   C985    1.391   .     A
C979   I1027   2.135   .     S
C980   C994    1.412   .     A
C980   I1028   2.131   .     S
C980   C986    1.391   .     A
C981   C996    1.401   .     A
C981   I1029   2.135   .     S
C981   C991    1.391   .     A
C982   C995    1.412   .     A
C982   I1030   2.131   .     S
C982   C992    1.391   .     A
C983   C989    1.391   .     A
C983   C995    1.401   .     A
C983   I1031   2.135   .     S
C984   C990    1.391   .     A
C984   C996    1.412   .     A
C984   I1032   2.131   .     S
C985   C998    1.412   .     A
C985   I1033   2.131   .     S
C986   I1034   2.135   .     S
C986   C997    1.401   .     A
C987   C997    1.412   .     A
C987   I1035   2.131   .     S
C988   I1036   2.135   .     S
C988   C998    1.401   .     A
C989   C1000   1.412   .     A
C989   I1037   2.131   .     S
C990   C999    1.401   .     A
C990   I1038   2.135   .     S
C991   I1039   2.131   .     S
C991   C999    1.412   .     A
C992   C1000   1.401   .     A
C992   I1040   2.135   .     S
N1001  O1003   1.300   .     A
N1001  O898    1.296   1_655 S
N1004  O1005   1.300   .     A
N1004  O902    1.296   1_655 S
N1007  O1008   1.300   .     A
O1009  N903    1.296   1_655 S
N1010  O1012   1.300   .     A
O1011  N906    1.296   1_655 S
N1013  O1014   1.300   .     A
N1013  O1015   1.296   .     A
N1016  O1018   1.300   .     A
N1016  O1017   1.296   .     A
N1019  O1020   1.296   .     A
N1019  O1021   1.300   .     A
N1022  O1024   1.296   .     A
N1022  O1023   1.300   .     A
O1041  Cu1069  1.969   .     S
O1041  C1057   1.315   .     A
O1042  C1058   1.301   .     A
O1042  Cu1174  1.969   .     S
O1043  C1058   1.315   .     A
O1043  Cu1173  1.969   .     S
O1044  C1057   1.301   .     A
O1044  Cu1070  1.969   .     S
O1045  C1059   1.315   .     A
O1045  Cu1174  1.969   .     S
O1046  C1060   1.301   .     A
O1046  Cu1069  1.969   .     S
O1047  Cu1070  1.969   .     S
O1047  C1060   1.315   .     A
O1048  C1059   1.301   .     A
O1048  Cu1173  1.969   .     S
O1049  C1061   1.301   .     A
O1049  Cu863   1.969   1_565 S
O1050  C1062   1.315   .     A
O1050  Cu1072  1.969   .     S
O1051  Cu1071  1.969   .     S
O1051  C1062   1.301   .     A
O1052  C1061   1.315   .     A
O1052  Cu864   1.969   1_565 S
O1053  C1063   1.301   .     A
O1053  Cu864   1.969   1_565 S
O1054  Cu1071  1.969   .     S
O1054  C1064   1.315   .     A
O1055  Cu1072  1.969   .     S
O1055  C1064   1.301   .     A
O1056  C1063   1.315   .     A
O1056  Cu863   1.969   1_565 S
C1057  C1100   1.473   .     S
C1058  C1099   1.473   .     S
C1059  C1098   1.473   .     S
C1060  C1097   1.473   .     S
C1061  C1104   1.473   .     S
C1062  C1103   1.473   .     S
C1063  C1102   1.473   .     S
C1064  C1101   1.473   .     S
N1065  Cu1069  2.039   .     S
N1065  C1076   1.380   .     A
N1065  C1178   1.380   1_455 S
N1066  C1075   1.380   .     A
N1066  Cu1070  2.039   .     S
N1066  C1177   1.380   1_455 S
N1067  Cu1071  2.039   .     S
N1067  C1078   1.380   .     S
N1068  Cu1072  2.039   .     S
N1068  C1079   1.380   .     A
Cu1069 Cu1070  2.713   .     S
Cu1069 O1147   1.969   1_455 S
Cu1069 O1152   1.969   1_455 S
Cu1070 O1146   1.969   1_455 S
Cu1070 O1149   1.969   1_455 S
Cu1071 Cu1072  2.713   .     S
C1073  N1105   1.439   .     S
C1073  N1170   1.380   .     S
C1074  N1108   1.439   .     S
C1074  N1169   1.380   .     S
C1074  C347    1.425   1_556 S
C1075  N1111   1.439   .     S
C1075  C762    1.425   1_455 S
C1076  N1114   1.439   .     S
C1076  C345    1.425   1_456 S
C1077  N1117   1.439   .     S
C1077  N860    1.380   1_565 S
C1078  N1120   1.439   .     S
C1078  C247    1.425   1_556 S
C1079  N1123   1.439   .     S
C1080  N1126   1.439   .     S
C1080  N859    1.380   1_565 A
C1080  C245    1.425   1_556 S
C1081  I1129   2.135   .     S
C1081  C1098   1.401   .     A
C1081  C1091   1.391   .     A
C1082  C1097   1.412   .     A
C1082  I1130   2.131   .     S
C1082  C1092   1.391   .     A
C1083  C1097   1.401   .     A
C1083  C1089   1.391   .     A
C1083  I1131   2.135   .     S
C1084  C1098   1.412   .     A
C1084  I1132   2.131   .     S
C1084  C1090   1.391   .     A
C1085  C1100   1.401   .     A
C1085  I1133   2.135   .     S
C1085  C1095   1.391   .     A
C1086  C1099   1.412   .     A
C1086  I1134   2.131   .     S
C1086  C1096   1.391   .     A
C1087  C1093   1.391   .     A
C1087  C1099   1.401   .     A
C1087  I1135   2.135   .     S
C1088  C1094   1.391   .     A
C1088  C1100   1.412   .     A
C1088  I1136   2.131   .     S
C1089  C1102   1.412   .     A
C1089  I1137   2.131   .     S
C1090  I1138   2.135   .     S
C1090  C1101   1.401   .     A
C1091  C1101   1.412   .     A
C1091  I1139   2.131   .     S
C1092  I1140   2.135   .     S
C1092  C1102   1.401   .     A
C1093  C1104   1.412   .     A
C1093  I1141   2.131   .     S
C1094  C1103   1.401   .     A
C1094  I1142   2.135   .     S
C1095  I1143   2.131   .     S
C1095  C1103   1.412   .     A
C1096  C1104   1.401   .     A
C1096  I1144   2.135   .     S
N1105  O1107   1.300   .     A
N1105  O1210   1.296   .     S
O1106  N1209   1.296   1_455 S
N1108  O1109   1.300   .     A
N1108  O1214   1.296   .     S
O1110  N1212   1.296   1_455 S
N1111  O1112   1.300   .     A
N1111  O1217   1.296   1_455 S
O1113  N1215   1.296   .     S
N1114  O1116   1.300   .     A
N1114  O1219   1.296   1_455 S
O1115  N1218   1.296   .     S
N1117  O1118   1.300   .     A
N1117  O1119   1.296   .     A
N1120  O1122   1.300   .     A
N1120  O1121   1.296   .     A
N1123  O1124   1.296   .     A
N1123  O1125   1.300   .     A
N1126  O1128   1.296   .     A
N1126  O1127   1.300   .     A
O1145  Cu1173  1.969   .     S
O1145  C1161   1.315   .     A
O1146  C1162   1.301   .     A
O1146  Cu1070  1.969   1_655 S
O1147  C1162   1.315   .     A
O1147  Cu1069  1.969   1_655 S
O1148  C1161   1.301   .     A
O1148  Cu1174  1.969   .     S
O1149  C1163   1.315   .     A
O1149  Cu1070  1.969   1_655 S
O1150  C1164   1.301   .     A
O1150  Cu1173  1.969   .     S
O1151  Cu1174  1.969   .     S
O1151  C1164   1.315   .     A
O1152  C1163   1.301   .     A
O1152  Cu1069  1.969   1_655 S
O1153  C1165   1.301   .     A
O1153  Cu967   1.969   1_565 S
O1154  C1166   1.315   .     A
O1154  Cu1176  1.969   .     S
O1155  Cu1175  1.969   .     S
O1155  C1166   1.301   .     A
O1156  C1165   1.315   .     A
O1156  Cu968   1.969   1_565 S
O1157  C1167   1.301   .     A
O1157  Cu968   1.969   1_565 S
O1158  Cu1175  1.969   .     S
O1158  C1168   1.315   .     A
O1159  Cu1176  1.969   .     S
O1159  C1168   1.301   .     A
O1160  C1167   1.315   .     A
O1160  Cu967   1.969   1_565 S
C1161  C1204   1.473   .     S
C1162  C1203   1.473   .     S
C1163  C1202   1.473   .     S
C1164  C1201   1.473   .     S
C1165  C1208   1.473   .     S
C1166  C1207   1.473   .     S
C1167  C1206   1.473   .     S
C1168  C1205   1.473   .     S
N1169  Cu1173  2.039   .     S
N1169  C1180   1.380   .     A
N1170  C1179   1.380   .     A
N1170  Cu1174  2.039   .     S
N1171  Cu1175  2.039   .     S
N1171  C1182   1.380   .     S
N1172  Cu1176  2.039   .     S
N1172  C1183   1.380   .     A
Cu1173 Cu1174  2.713   .     S
Cu1175 Cu1176  2.713   .     S
C1177  N1209   1.439   .     S
C1177  N1066   1.380   1_655 S
C1177  C660    1.425   1_655 S
C1178  N1212   1.439   .     S
C1178  N1065   1.380   1_655 S
C1178  C243    1.425   1_656 S
C1179  N1215   1.439   .     S
C1180  N1218   1.439   .     S
C1180  C241    1.425   1_556 S
C1181  N1221   1.439   .     S
C1181  N964    1.380   1_565 S
C1182  N1224   1.439   .     S
C1182  C351    1.425   1_556 S
C1183  N1227   1.439   .     S
C1184  N1230   1.439   .     S
C1184  N963    1.380   1_565 A
C1184  C349    1.425   1_556 S
C1185  I1233   2.135   .     S
C1185  C1202   1.401   .     A
C1185  C1195   1.391   .     A
C1186  C1201   1.412   .     A
C1186  I1234   2.131   .     S
C1186  C1196   1.391   .     A
C1187  C1201   1.401   .     A
C1187  C1193   1.391   .     A
C1187  I1235   2.135   .     S
C1188  C1202   1.412   .     A
C1188  I1236   2.131   .     S
C1188  C1194   1.391   .     A
C1189  C1204   1.401   .     A
C1189  I1237   2.135   .     S
C1189  C1199   1.391   .     A
C1190  C1203   1.412   .     A
C1190  I1238   2.131   .     S
C1190  C1200   1.391   .     A
C1191  C1197   1.391   .     A
C1191  C1203   1.401   .     A
C1191  I1239   2.135   .     S
C1192  C1198   1.391   .     A
C1192  C1204   1.412   .     A
C1192  I1240   2.131   .     S
C1193  C1206   1.412   .     A
C1193  I1241   2.131   .     S
C1194  I1242   2.135   .     S
C1194  C1205   1.401   .     A
C1195  C1205   1.412   .     A
C1195  I1243   2.131   .     S
C1196  I1244   2.135   .     S
C1196  C1206   1.401   .     A
C1197  C1208   1.412   .     A
C1197  I1245   2.131   .     S
C1198  C1207   1.401   .     A
C1198  I1246   2.135   .     S
C1199  I1247   2.131   .     S
C1199  C1207   1.412   .     A
C1200  C1208   1.401   .     A
C1200  I1248   2.135   .     S
N1209  O1211   1.300   .     A
N1209  O1106   1.296   1_655 S
N1212  O1213   1.300   .     A
N1212  O1110   1.296   1_655 S
N1215  O1216   1.300   .     A
O1217  N1111   1.296   1_655 S
N1218  O1220   1.300   .     A
O1219  N1114   1.296   1_655 S
N1221  O1222   1.300   .     A
N1221  O1223   1.296   .     A
N1224  O1226   1.300   .     A
N1224  O1225   1.296   .     A
N1227  O1228   1.296   .     A
N1227  O1229   1.300   .     A
N1230  O1232   1.296   .     A
N1230  O1231   1.300   .     A
