data_str_m3_o2_o5_pcu_sym.51
_audit_creation_date              2020-01-03
_audit_creation_method            'Materials Studio'
_symmetry_space_group_name_H-M    'P1'
_symmetry_Int_Tables_number       1
_symmetry_cell_setting            triclinic
loop_
_symmetry_equiv_pos_as_xyz
  x,y,z
_cell_length_a                    29.9272
_cell_length_b                    28.3966
_cell_length_c                    26.7961
_cell_angle_alpha                 89.9998
_cell_angle_beta                  90.0840
_cell_angle_gamma                 90.0024
loop_
_atom_site_label
_atom_site_type_symbol
_atom_site_fract_x
_atom_site_fract_y
_atom_site_fract_z
_atom_site_U_iso_or_equiv
_atom_site_adp_type
_atom_site_occupancy
C1     C     0.16410   0.25000   0.16667   0.00000  Uiso   1.00
C2     C     0.20979   0.44741   0.17189   0.00000  Uiso   1.00
C3     C     0.24999   0.25000   0.07285   0.00000  Uiso   1.00
C4     C     0.25001   0.25000   0.26048   0.00000  Uiso   1.00
C5     C     0.25000   0.02681   0.16667   0.00000  Uiso   1.00
C6     C     0.25000   0.47338   0.16667   0.00000  Uiso   1.00
C7     C     0.25000   0.25000   0.02177   0.00000  Uiso   1.00
C8     C     0.25001   0.25000   0.31156   0.00000  Uiso   1.00
C9     C     0.04688   0.26904   0.12600   0.00000  Uiso   1.00
C10    C     0.45306   0.23113   0.12608   0.00000  Uiso   1.00
C11    C     0.45312   0.26925   0.20724   0.00000  Uiso   1.00
C12    C     0.33590   0.25001   0.16667   0.00000  Uiso   1.00
C13    C     0.04694   0.23133   0.20738   0.00000  Uiso   1.00
C14    C     0.09304   0.26872   0.12505   0.00000  Uiso   1.00
C15    C     0.40690   0.23130   0.12513   0.00000  Uiso   1.00
C16    C     0.40697   0.26892   0.20820   0.00000  Uiso   1.00
C17    C     0.09311   0.23148   0.20831   0.00000  Uiso   1.00
C18    C     0.11633   0.25004   0.16666   0.00000  Uiso   1.00
C19    C     0.38368   0.25005   0.16668   0.00000  Uiso   1.00
C20    C     0.02407   0.25022   0.16669   0.00000  Uiso   1.00
C21    C     0.47593   0.25022   0.16666   0.00000  Uiso   1.00
C22    C     0.21382   0.01654   0.05896   0.00000  Uiso   1.00
C23    C     0.22204   0.10240   0.13555   0.00000  Uiso   1.00
C24    C     0.18152   0.48867   0.02664   0.00000  Uiso   1.00
C25    C     0.34096   0.47898   0.10811   0.00000  Uiso   1.00
C26    C     0.38783   0.49935   0.10452   0.00000  Uiso   1.00
C27    C     0.28618   0.01654   0.27438   0.00000  Uiso   1.00
C28    C     0.31848   0.48869   0.30670   0.00000  Uiso   1.00
C29    C     0.15904   0.47897   0.22523   0.00000  Uiso   1.00
C30    C     0.11218   0.49934   0.22882   0.00000  Uiso   1.00
C31    C     0.28921   0.39779   0.16231   0.00000  Uiso   1.00
C32    C     0.27797   0.10240   0.19778   0.00000  Uiso   1.00
C33    C     0.21079   0.39778   0.17102   0.00000  Uiso   1.00
C34    C     0.22181   0.05281   0.13407   0.00000  Uiso   1.00
C35    C     0.29021   0.44741   0.16145   0.00000  Uiso   1.00
C36    C     0.27820   0.05281   0.19926   0.00000  Uiso   1.00
H37    H     0.19985   0.12200   0.11133   0.00000  Uiso   1.00
H38    H     0.35432   0.22187   0.08257   0.00000  Uiso   1.00
H39    H     0.35447   0.27826   0.25075   0.00000  Uiso   1.00
H40    H     0.14572   0.22206   0.25082   0.00000  Uiso   1.00
H41    H     0.24266   0.49321   0.06737   0.00000  Uiso   1.00
H42    H     0.22551   0.04784   0.03762   0.00000  Uiso   1.00
H43    H     0.15365   0.01165   0.01416   0.00000  Uiso   1.00
H44    H     0.19932   0.47473   0.32688   0.00000  Uiso   1.00
H45    H     0.16777   0.45854   0.04813   0.00000  Uiso   1.00
H46    H     0.31730   0.00541   0.09260   0.00000  Uiso   1.00
H47    H     0.33977   0.44614   0.08534   0.00000  Uiso   1.00
H48    H     0.32023   0.37854   0.15915   0.00000  Uiso   1.00
H49    H     0.41251   0.47381   0.11957   0.00000  Uiso   1.00
H50    H     0.39605   0.00687   0.06492   0.00000  Uiso   1.00
H51    H     0.38991   0.03261   0.12621   0.00000  Uiso   1.00
H52    H     0.25735   0.49320   0.26596   0.00000  Uiso   1.00
H53    H     0.27449   0.04784   0.29570   0.00000  Uiso   1.00
H54    H     0.34635   0.01168   0.31918   0.00000  Uiso   1.00
H55    H     0.30069   0.47474   0.00645   0.00000  Uiso   1.00
H56    H     0.33225   0.45856   0.28521   0.00000  Uiso   1.00
H57    H     0.18271   0.00539   0.24074   0.00000  Uiso   1.00
H58    H     0.16023   0.44612   0.24799   0.00000  Uiso   1.00
H59    H     0.30015   0.12200   0.22201   0.00000  Uiso   1.00
H60    H     0.08749   0.47381   0.21376   0.00000  Uiso   1.00
H61    H     0.11011   0.03262   0.20713   0.00000  Uiso   1.00
H62    H     0.10395   0.00685   0.26842   0.00000  Uiso   1.00
H63    H     0.17977   0.37854   0.17418   0.00000  Uiso   1.00
H64    H     0.02867   0.28376   0.09466   0.00000  Uiso   1.00
H65    H     0.47123   0.21632   0.09482   0.00000  Uiso   1.00
H66    H     0.47134   0.28411   0.23850   0.00000  Uiso   1.00
H67    H     0.02877   0.21668   0.23872   0.00000  Uiso   1.00
H68    H     0.14556   0.27797   0.08251   0.00000  Uiso   1.00
N69    N     0.25000   0.12624   0.16667   0.00000  Uiso   1.00
N70    N     0.25000   0.37377   0.16667   0.00000  Uiso   1.00
O71    O     0.18453   0.28974   0.16667   0.00000  Uiso   1.00
O72    O     0.38635   0.21340   0.08292   0.00000  Uiso   1.00
O73    O     0.38648   0.28680   0.25040   0.00000  Uiso   1.00
O74    O     0.11366   0.21375   0.25060   0.00000  Uiso   1.00
O75    O     0.19166   0.03059   0.10287   0.00000  Uiso   1.00
O76    O     0.33112   0.46978   0.15859   0.00000  Uiso   1.00
O77    O     0.30834   0.03060   0.23046   0.00000  Uiso   1.00
O78    O     0.16888   0.46977   0.17475   0.00000  Uiso   1.00
O79    O     0.31547   0.21026   0.16666   0.00000  Uiso   1.00
O80    O     0.31547   0.28974   0.16666   0.00000  Uiso   1.00
O81    O     0.18453   0.21026   0.16667   0.00000  Uiso   1.00
O82    O     0.25000   0.28973   0.09511   0.00000  Uiso   1.00
O83    O     0.25000   0.21027   0.23822   0.00000  Uiso   1.00
O84    O     0.25000   0.28973   0.23822   0.00000  Uiso   1.00
O85    O     0.25000   0.21027   0.09511   0.00000  Uiso   1.00
O86    O     0.11353   0.28642   0.08276   0.00000  Uiso   1.00
Zn87   Zn    0.25000   0.30307   0.16667   0.00000  Uiso   1.00
Zn88   Zn    0.25000   0.19693   0.16667   0.00000  Uiso   1.00
C89    C     0.66410   0.25000   0.16667   0.00000  Uiso   1.00
C90    C     0.70979   0.44741   0.17189   0.00000  Uiso   1.00
C91    C     0.74999   0.25000   0.07285   0.00000  Uiso   1.00
C92    C     0.75001   0.25000   0.26048   0.00000  Uiso   1.00
C93    C     0.75000   0.02681   0.16667   0.00000  Uiso   1.00
C94    C     0.75000   0.47338   0.16667   0.00000  Uiso   1.00
C95    C     0.75000   0.25000   0.02177   0.00000  Uiso   1.00
C96    C     0.75001   0.25000   0.31156   0.00000  Uiso   1.00
C97    C     0.54688   0.26904   0.12600   0.00000  Uiso   1.00
C98    C     0.95306   0.23113   0.12608   0.00000  Uiso   1.00
C99    C     0.95312   0.26925   0.20724   0.00000  Uiso   1.00
C100   C     0.83590   0.25001   0.16667   0.00000  Uiso   1.00
C101   C     0.54694   0.23133   0.20738   0.00000  Uiso   1.00
C102   C     0.59304   0.26872   0.12505   0.00000  Uiso   1.00
C103   C     0.90690   0.23130   0.12513   0.00000  Uiso   1.00
C104   C     0.90697   0.26892   0.20820   0.00000  Uiso   1.00
C105   C     0.59311   0.23148   0.20831   0.00000  Uiso   1.00
C106   C     0.61633   0.25004   0.16666   0.00000  Uiso   1.00
C107   C     0.88368   0.25005   0.16668   0.00000  Uiso   1.00
C108   C     0.52407   0.25022   0.16669   0.00000  Uiso   1.00
C109   C     0.97593   0.25022   0.16666   0.00000  Uiso   1.00
C110   C     0.71382   0.01654   0.05896   0.00000  Uiso   1.00
C111   C     0.72204   0.10240   0.13555   0.00000  Uiso   1.00
C112   C     0.68152   0.48867   0.02664   0.00000  Uiso   1.00
C113   C     0.84096   0.47898   0.10811   0.00000  Uiso   1.00
C114   C     0.88783   0.49935   0.10452   0.00000  Uiso   1.00
C115   C     0.78618   0.01654   0.27438   0.00000  Uiso   1.00
C116   C     0.81848   0.48869   0.30670   0.00000  Uiso   1.00
C117   C     0.65904   0.47897   0.22523   0.00000  Uiso   1.00
C118   C     0.61218   0.49934   0.22882   0.00000  Uiso   1.00
C119   C     0.78921   0.39779   0.16231   0.00000  Uiso   1.00
C120   C     0.77797   0.10240   0.19778   0.00000  Uiso   1.00
C121   C     0.71079   0.39778   0.17102   0.00000  Uiso   1.00
C122   C     0.72181   0.05281   0.13407   0.00000  Uiso   1.00
C123   C     0.79021   0.44741   0.16145   0.00000  Uiso   1.00
C124   C     0.77820   0.05281   0.19926   0.00000  Uiso   1.00
H125   H     0.69985   0.12200   0.11133   0.00000  Uiso   1.00
H126   H     0.85432   0.22187   0.08257   0.00000  Uiso   1.00
H127   H     0.85447   0.27826   0.25075   0.00000  Uiso   1.00
H128   H     0.64572   0.22206   0.25082   0.00000  Uiso   1.00
H129   H     0.74266   0.49321   0.06737   0.00000  Uiso   1.00
H130   H     0.72551   0.04784   0.03762   0.00000  Uiso   1.00
H131   H     0.65365   0.01165   0.01416   0.00000  Uiso   1.00
H132   H     0.69932   0.47473   0.32688   0.00000  Uiso   1.00
H133   H     0.66777   0.45854   0.04813   0.00000  Uiso   1.00
H134   H     0.81730   0.00541   0.09260   0.00000  Uiso   1.00
H135   H     0.83977   0.44614   0.08534   0.00000  Uiso   1.00
H136   H     0.82023   0.37854   0.15915   0.00000  Uiso   1.00
H137   H     0.91251   0.47381   0.11957   0.00000  Uiso   1.00
H138   H     0.89605   0.00687   0.06492   0.00000  Uiso   1.00
H139   H     0.88991   0.03261   0.12621   0.00000  Uiso   1.00
H140   H     0.75735   0.49320   0.26596   0.00000  Uiso   1.00
H141   H     0.77449   0.04784   0.29570   0.00000  Uiso   1.00
H142   H     0.84635   0.01168   0.31918   0.00000  Uiso   1.00
H143   H     0.80069   0.47474   0.00645   0.00000  Uiso   1.00
H144   H     0.83225   0.45856   0.28521   0.00000  Uiso   1.00
H145   H     0.68271   0.00539   0.24074   0.00000  Uiso   1.00
H146   H     0.66023   0.44612   0.24799   0.00000  Uiso   1.00
H147   H     0.80015   0.12200   0.22201   0.00000  Uiso   1.00
H148   H     0.58749   0.47381   0.21376   0.00000  Uiso   1.00
H149   H     0.61011   0.03262   0.20713   0.00000  Uiso   1.00
H150   H     0.60395   0.00685   0.26842   0.00000  Uiso   1.00
H151   H     0.67977   0.37854   0.17418   0.00000  Uiso   1.00
H152   H     0.52867   0.28376   0.09466   0.00000  Uiso   1.00
H153   H     0.97123   0.21632   0.09482   0.00000  Uiso   1.00
H154   H     0.97134   0.28411   0.23850   0.00000  Uiso   1.00
H155   H     0.52877   0.21668   0.23872   0.00000  Uiso   1.00
H156   H     0.64556   0.27797   0.08251   0.00000  Uiso   1.00
N157   N     0.75000   0.12624   0.16667   0.00000  Uiso   1.00
N158   N     0.75000   0.37377   0.16667   0.00000  Uiso   1.00
O159   O     0.68453   0.28974   0.16667   0.00000  Uiso   1.00
O160   O     0.88635   0.21340   0.08292   0.00000  Uiso   1.00
O161   O     0.88648   0.28680   0.25040   0.00000  Uiso   1.00
O162   O     0.61366   0.21375   0.25060   0.00000  Uiso   1.00
O163   O     0.69166   0.03059   0.10287   0.00000  Uiso   1.00
O164   O     0.83112   0.46978   0.15859   0.00000  Uiso   1.00
O165   O     0.80834   0.03060   0.23046   0.00000  Uiso   1.00
O166   O     0.66888   0.46977   0.17475   0.00000  Uiso   1.00
O167   O     0.81547   0.21026   0.16666   0.00000  Uiso   1.00
O168   O     0.81547   0.28974   0.16666   0.00000  Uiso   1.00
O169   O     0.68453   0.21026   0.16667   0.00000  Uiso   1.00
O170   O     0.75000   0.28973   0.09511   0.00000  Uiso   1.00
O171   O     0.75000   0.21027   0.23822   0.00000  Uiso   1.00
O172   O     0.75000   0.28973   0.23822   0.00000  Uiso   1.00
O173   O     0.75000   0.21027   0.09511   0.00000  Uiso   1.00
O174   O     0.61353   0.28642   0.08276   0.00000  Uiso   1.00
Zn175  Zn    0.75000   0.30307   0.16667   0.00000  Uiso   1.00
Zn176  Zn    0.75000   0.19693   0.16667   0.00000  Uiso   1.00
C177   C     0.16410   0.75000   0.16667   0.00000  Uiso   1.00
C178   C     0.20979   0.94741   0.17189   0.00000  Uiso   1.00
C179   C     0.24999   0.75000   0.07285   0.00000  Uiso   1.00
C180   C     0.25001   0.75000   0.26048   0.00000  Uiso   1.00
C181   C     0.25000   0.52681   0.16667   0.00000  Uiso   1.00
C182   C     0.25000   0.97338   0.16667   0.00000  Uiso   1.00
C183   C     0.25000   0.75000   0.02177   0.00000  Uiso   1.00
C184   C     0.25001   0.75000   0.31156   0.00000  Uiso   1.00
C185   C     0.04688   0.76904   0.12600   0.00000  Uiso   1.00
C186   C     0.45306   0.73113   0.12608   0.00000  Uiso   1.00
C187   C     0.45312   0.76925   0.20724   0.00000  Uiso   1.00
C188   C     0.33590   0.75001   0.16667   0.00000  Uiso   1.00
C189   C     0.04694   0.73133   0.20738   0.00000  Uiso   1.00
C190   C     0.09304   0.76872   0.12505   0.00000  Uiso   1.00
C191   C     0.40690   0.73130   0.12513   0.00000  Uiso   1.00
C192   C     0.40697   0.76892   0.20820   0.00000  Uiso   1.00
C193   C     0.09311   0.73148   0.20831   0.00000  Uiso   1.00
C194   C     0.11633   0.75004   0.16666   0.00000  Uiso   1.00
C195   C     0.38368   0.75005   0.16668   0.00000  Uiso   1.00
C196   C     0.02407   0.75022   0.16669   0.00000  Uiso   1.00
C197   C     0.47593   0.75022   0.16666   0.00000  Uiso   1.00
C198   C     0.21382   0.51654   0.05896   0.00000  Uiso   1.00
C199   C     0.22204   0.60240   0.13555   0.00000  Uiso   1.00
C200   C     0.18152   0.98867   0.02664   0.00000  Uiso   1.00
C201   C     0.34096   0.97898   0.10811   0.00000  Uiso   1.00
C202   C     0.38783   0.99935   0.10452   0.00000  Uiso   1.00
C203   C     0.28618   0.51654   0.27438   0.00000  Uiso   1.00
C204   C     0.31848   0.98869   0.30670   0.00000  Uiso   1.00
C205   C     0.15904   0.97897   0.22523   0.00000  Uiso   1.00
C206   C     0.11218   0.99934   0.22882   0.00000  Uiso   1.00
C207   C     0.28921   0.89779   0.16231   0.00000  Uiso   1.00
C208   C     0.27797   0.60240   0.19778   0.00000  Uiso   1.00
C209   C     0.21079   0.89778   0.17102   0.00000  Uiso   1.00
C210   C     0.22181   0.55281   0.13407   0.00000  Uiso   1.00
C211   C     0.29021   0.94741   0.16145   0.00000  Uiso   1.00
C212   C     0.27820   0.55281   0.19926   0.00000  Uiso   1.00
H213   H     0.19985   0.62200   0.11133   0.00000  Uiso   1.00
H214   H     0.35432   0.72187   0.08257   0.00000  Uiso   1.00
H215   H     0.35447   0.77826   0.25075   0.00000  Uiso   1.00
H216   H     0.14572   0.72206   0.25082   0.00000  Uiso   1.00
H217   H     0.24266   0.99321   0.06737   0.00000  Uiso   1.00
H218   H     0.22551   0.54784   0.03762   0.00000  Uiso   1.00
H219   H     0.15365   0.51165   0.01416   0.00000  Uiso   1.00
H220   H     0.19932   0.97473   0.32688   0.00000  Uiso   1.00
H221   H     0.16777   0.95854   0.04813   0.00000  Uiso   1.00
H222   H     0.31730   0.50541   0.09260   0.00000  Uiso   1.00
H223   H     0.33977   0.94614   0.08534   0.00000  Uiso   1.00
H224   H     0.32023   0.87854   0.15915   0.00000  Uiso   1.00
H225   H     0.41251   0.97381   0.11957   0.00000  Uiso   1.00
H226   H     0.39605   0.50687   0.06492   0.00000  Uiso   1.00
H227   H     0.38991   0.53261   0.12621   0.00000  Uiso   1.00
H228   H     0.25735   0.99320   0.26596   0.00000  Uiso   1.00
H229   H     0.27449   0.54784   0.29570   0.00000  Uiso   1.00
H230   H     0.34635   0.51168   0.31918   0.00000  Uiso   1.00
H231   H     0.30069   0.97474   0.00645   0.00000  Uiso   1.00
H232   H     0.33225   0.95856   0.28521   0.00000  Uiso   1.00
H233   H     0.18271   0.50539   0.24074   0.00000  Uiso   1.00
H234   H     0.16023   0.94612   0.24799   0.00000  Uiso   1.00
H235   H     0.30015   0.62200   0.22201   0.00000  Uiso   1.00
H236   H     0.08749   0.97381   0.21376   0.00000  Uiso   1.00
H237   H     0.11011   0.53262   0.20713   0.00000  Uiso   1.00
H238   H     0.10395   0.50685   0.26842   0.00000  Uiso   1.00
H239   H     0.17977   0.87854   0.17418   0.00000  Uiso   1.00
H240   H     0.02867   0.78376   0.09466   0.00000  Uiso   1.00
H241   H     0.47123   0.71632   0.09482   0.00000  Uiso   1.00
H242   H     0.47134   0.78411   0.23850   0.00000  Uiso   1.00
H243   H     0.02877   0.71668   0.23872   0.00000  Uiso   1.00
H244   H     0.14556   0.77797   0.08251   0.00000  Uiso   1.00
N245   N     0.25000   0.62624   0.16667   0.00000  Uiso   1.00
N246   N     0.25000   0.87377   0.16667   0.00000  Uiso   1.00
O247   O     0.18453   0.78974   0.16667   0.00000  Uiso   1.00
O248   O     0.38635   0.71340   0.08292   0.00000  Uiso   1.00
O249   O     0.38648   0.78680   0.25040   0.00000  Uiso   1.00
O250   O     0.11366   0.71375   0.25060   0.00000  Uiso   1.00
O251   O     0.19166   0.53059   0.10287   0.00000  Uiso   1.00
O252   O     0.33112   0.96978   0.15859   0.00000  Uiso   1.00
O253   O     0.30834   0.53060   0.23046   0.00000  Uiso   1.00
O254   O     0.16888   0.96977   0.17475   0.00000  Uiso   1.00
O255   O     0.31547   0.71026   0.16666   0.00000  Uiso   1.00
O256   O     0.31547   0.78974   0.16666   0.00000  Uiso   1.00
O257   O     0.18453   0.71026   0.16667   0.00000  Uiso   1.00
O258   O     0.25000   0.78973   0.09511   0.00000  Uiso   1.00
O259   O     0.25000   0.71027   0.23822   0.00000  Uiso   1.00
O260   O     0.25000   0.78973   0.23822   0.00000  Uiso   1.00
O261   O     0.25000   0.71027   0.09511   0.00000  Uiso   1.00
O262   O     0.11353   0.78642   0.08276   0.00000  Uiso   1.00
Zn263  Zn    0.25000   0.80307   0.16667   0.00000  Uiso   1.00
Zn264  Zn    0.25000   0.69693   0.16667   0.00000  Uiso   1.00
C265   C     0.66410   0.75000   0.16667   0.00000  Uiso   1.00
C266   C     0.70979   0.94741   0.17189   0.00000  Uiso   1.00
C267   C     0.74999   0.75000   0.07285   0.00000  Uiso   1.00
C268   C     0.75001   0.75000   0.26048   0.00000  Uiso   1.00
C269   C     0.75000   0.52681   0.16667   0.00000  Uiso   1.00
C270   C     0.75000   0.97338   0.16667   0.00000  Uiso   1.00
C271   C     0.75000   0.75000   0.02177   0.00000  Uiso   1.00
C272   C     0.75001   0.75000   0.31156   0.00000  Uiso   1.00
C273   C     0.54688   0.76904   0.12600   0.00000  Uiso   1.00
C274   C     0.95306   0.73113   0.12608   0.00000  Uiso   1.00
C275   C     0.95312   0.76925   0.20724   0.00000  Uiso   1.00
C276   C     0.83590   0.75001   0.16667   0.00000  Uiso   1.00
C277   C     0.54694   0.73133   0.20738   0.00000  Uiso   1.00
C278   C     0.59304   0.76872   0.12505   0.00000  Uiso   1.00
C279   C     0.90690   0.73130   0.12513   0.00000  Uiso   1.00
C280   C     0.90697   0.76892   0.20820   0.00000  Uiso   1.00
C281   C     0.59311   0.73148   0.20831   0.00000  Uiso   1.00
C282   C     0.61633   0.75004   0.16666   0.00000  Uiso   1.00
C283   C     0.88368   0.75005   0.16668   0.00000  Uiso   1.00
C284   C     0.52407   0.75022   0.16669   0.00000  Uiso   1.00
C285   C     0.97593   0.75022   0.16666   0.00000  Uiso   1.00
C286   C     0.71382   0.51654   0.05896   0.00000  Uiso   1.00
C287   C     0.72204   0.60240   0.13555   0.00000  Uiso   1.00
C288   C     0.68152   0.98867   0.02664   0.00000  Uiso   1.00
C289   C     0.84096   0.97898   0.10811   0.00000  Uiso   1.00
C290   C     0.88783   0.99935   0.10452   0.00000  Uiso   1.00
C291   C     0.78618   0.51654   0.27438   0.00000  Uiso   1.00
C292   C     0.81848   0.98869   0.30670   0.00000  Uiso   1.00
C293   C     0.65904   0.97897   0.22523   0.00000  Uiso   1.00
C294   C     0.61218   0.99934   0.22882   0.00000  Uiso   1.00
C295   C     0.78921   0.89779   0.16231   0.00000  Uiso   1.00
C296   C     0.77797   0.60240   0.19778   0.00000  Uiso   1.00
C297   C     0.71079   0.89778   0.17102   0.00000  Uiso   1.00
C298   C     0.72181   0.55281   0.13407   0.00000  Uiso   1.00
C299   C     0.79021   0.94741   0.16145   0.00000  Uiso   1.00
C300   C     0.77820   0.55281   0.19926   0.00000  Uiso   1.00
H301   H     0.69985   0.62200   0.11133   0.00000  Uiso   1.00
H302   H     0.85432   0.72187   0.08257   0.00000  Uiso   1.00
H303   H     0.85447   0.77826   0.25075   0.00000  Uiso   1.00
H304   H     0.64572   0.72206   0.25082   0.00000  Uiso   1.00
H305   H     0.74266   0.99321   0.06737   0.00000  Uiso   1.00
H306   H     0.72551   0.54784   0.03762   0.00000  Uiso   1.00
H307   H     0.65365   0.51165   0.01416   0.00000  Uiso   1.00
H308   H     0.69932   0.97473   0.32688   0.00000  Uiso   1.00
H309   H     0.66777   0.95854   0.04813   0.00000  Uiso   1.00
H310   H     0.81730   0.50541   0.09260   0.00000  Uiso   1.00
H311   H     0.83977   0.94614   0.08534   0.00000  Uiso   1.00
H312   H     0.82023   0.87854   0.15915   0.00000  Uiso   1.00
H313   H     0.91251   0.97381   0.11957   0.00000  Uiso   1.00
H314   H     0.89605   0.50687   0.06492   0.00000  Uiso   1.00
H315   H     0.88991   0.53261   0.12621   0.00000  Uiso   1.00
H316   H     0.75735   0.99320   0.26596   0.00000  Uiso   1.00
H317   H     0.77449   0.54784   0.29570   0.00000  Uiso   1.00
H318   H     0.84635   0.51168   0.31918   0.00000  Uiso   1.00
H319   H     0.80069   0.97474   0.00645   0.00000  Uiso   1.00
H320   H     0.83225   0.95856   0.28521   0.00000  Uiso   1.00
H321   H     0.68271   0.50539   0.24074   0.00000  Uiso   1.00
H322   H     0.66023   0.94612   0.24799   0.00000  Uiso   1.00
H323   H     0.80015   0.62200   0.22201   0.00000  Uiso   1.00
H324   H     0.58749   0.97381   0.21376   0.00000  Uiso   1.00
H325   H     0.61011   0.53262   0.20713   0.00000  Uiso   1.00
H326   H     0.60395   0.50685   0.26842   0.00000  Uiso   1.00
H327   H     0.67977   0.87854   0.17418   0.00000  Uiso   1.00
H328   H     0.52867   0.78376   0.09466   0.00000  Uiso   1.00
H329   H     0.97123   0.71632   0.09482   0.00000  Uiso   1.00
H330   H     0.97134   0.78411   0.23850   0.00000  Uiso   1.00
H331   H     0.52877   0.71668   0.23872   0.00000  Uiso   1.00
H332   H     0.64556   0.77797   0.08251   0.00000  Uiso   1.00
N333   N     0.75000   0.62624   0.16667   0.00000  Uiso   1.00
N334   N     0.75000   0.87377   0.16667   0.00000  Uiso   1.00
O335   O     0.68453   0.78974   0.16667   0.00000  Uiso   1.00
O336   O     0.88635   0.71340   0.08292   0.00000  Uiso   1.00
O337   O     0.88648   0.78680   0.25040   0.00000  Uiso   1.00
O338   O     0.61366   0.71375   0.25060   0.00000  Uiso   1.00
O339   O     0.69166   0.53059   0.10287   0.00000  Uiso   1.00
O340   O     0.83112   0.96978   0.15859   0.00000  Uiso   1.00
O341   O     0.80834   0.53060   0.23046   0.00000  Uiso   1.00
O342   O     0.66888   0.96977   0.17475   0.00000  Uiso   1.00
O343   O     0.81547   0.71026   0.16666   0.00000  Uiso   1.00
O344   O     0.81547   0.78974   0.16666   0.00000  Uiso   1.00
O345   O     0.68453   0.71026   0.16667   0.00000  Uiso   1.00
O346   O     0.75000   0.78973   0.09511   0.00000  Uiso   1.00
O347   O     0.75000   0.71027   0.23822   0.00000  Uiso   1.00
O348   O     0.75000   0.78973   0.23822   0.00000  Uiso   1.00
O349   O     0.75000   0.71027   0.09511   0.00000  Uiso   1.00
O350   O     0.61353   0.78642   0.08276   0.00000  Uiso   1.00
Zn351  Zn    0.75000   0.80307   0.16667   0.00000  Uiso   1.00
Zn352  Zn    0.75000   0.69693   0.16667   0.00000  Uiso   1.00
C353   C     0.16410   0.25000   0.50000   0.00000  Uiso   1.00
C354   C     0.20979   0.44741   0.50522   0.00000  Uiso   1.00
C355   C     0.24999   0.25000   0.40618   0.00000  Uiso   1.00
C356   C     0.25001   0.25000   0.59382   0.00000  Uiso   1.00
C357   C     0.25000   0.02681   0.50000   0.00000  Uiso   1.00
C358   C     0.25000   0.47338   0.50000   0.00000  Uiso   1.00
C359   C     0.25000   0.25000   0.35511   0.00000  Uiso   1.00
C360   C     0.25001   0.25000   0.64489   0.00000  Uiso   1.00
C361   C     0.04688   0.26904   0.45934   0.00000  Uiso   1.00
C362   C     0.45306   0.23113   0.45941   0.00000  Uiso   1.00
C363   C     0.45312   0.26925   0.54057   0.00000  Uiso   1.00
C364   C     0.33590   0.25001   0.50001   0.00000  Uiso   1.00
C365   C     0.04694   0.23133   0.54071   0.00000  Uiso   1.00
C366   C     0.09304   0.26872   0.45838   0.00000  Uiso   1.00
C367   C     0.40690   0.23130   0.45847   0.00000  Uiso   1.00
C368   C     0.40697   0.26892   0.54153   0.00000  Uiso   1.00
C369   C     0.09311   0.23148   0.54164   0.00000  Uiso   1.00
C370   C     0.11633   0.25004   0.50000   0.00000  Uiso   1.00
C371   C     0.38368   0.25005   0.50001   0.00000  Uiso   1.00
C372   C     0.02407   0.25022   0.50002   0.00000  Uiso   1.00
C373   C     0.47593   0.25022   0.50000   0.00000  Uiso   1.00
C374   C     0.21382   0.01654   0.39229   0.00000  Uiso   1.00
C375   C     0.22204   0.10240   0.46889   0.00000  Uiso   1.00
C376   C     0.18152   0.48867   0.35998   0.00000  Uiso   1.00
C377   C     0.34096   0.47898   0.44144   0.00000  Uiso   1.00
C378   C     0.38783   0.49935   0.43785   0.00000  Uiso   1.00
C379   C     0.28618   0.01654   0.60771   0.00000  Uiso   1.00
C380   C     0.31848   0.48869   0.64003   0.00000  Uiso   1.00
C381   C     0.15904   0.47897   0.55856   0.00000  Uiso   1.00
C382   C     0.11218   0.49934   0.56215   0.00000  Uiso   1.00
C383   C     0.28921   0.39779   0.49565   0.00000  Uiso   1.00
C384   C     0.27797   0.10240   0.53111   0.00000  Uiso   1.00
C385   C     0.21079   0.39778   0.50435   0.00000  Uiso   1.00
C386   C     0.22181   0.05281   0.46740   0.00000  Uiso   1.00
C387   C     0.29021   0.44741   0.49478   0.00000  Uiso   1.00
C388   C     0.27820   0.05281   0.53260   0.00000  Uiso   1.00
H389   H     0.19985   0.12200   0.44466   0.00000  Uiso   1.00
H390   H     0.35432   0.22187   0.41590   0.00000  Uiso   1.00
H391   H     0.35447   0.27826   0.58408   0.00000  Uiso   1.00
H392   H     0.14572   0.22206   0.58415   0.00000  Uiso   1.00
H393   H     0.24266   0.49321   0.40070   0.00000  Uiso   1.00
H394   H     0.22551   0.04784   0.37096   0.00000  Uiso   1.00
H395   H     0.15365   0.01165   0.34750   0.00000  Uiso   1.00
H396   H     0.19932   0.47473   0.66022   0.00000  Uiso   1.00
H397   H     0.16777   0.45854   0.38146   0.00000  Uiso   1.00
H398   H     0.31730   0.00541   0.42594   0.00000  Uiso   1.00
H399   H     0.33977   0.44614   0.41867   0.00000  Uiso   1.00
H400   H     0.32023   0.37854   0.49248   0.00000  Uiso   1.00
H401   H     0.41251   0.47381   0.45290   0.00000  Uiso   1.00
H402   H     0.39605   0.00687   0.39826   0.00000  Uiso   1.00
H403   H     0.38991   0.03261   0.45955   0.00000  Uiso   1.00
H404   H     0.25735   0.49320   0.59930   0.00000  Uiso   1.00
H405   H     0.27449   0.04784   0.62904   0.00000  Uiso   1.00
H406   H     0.34635   0.01168   0.65251   0.00000  Uiso   1.00
H407   H     0.30069   0.47474   0.33979   0.00000  Uiso   1.00
H408   H     0.33225   0.45856   0.61855   0.00000  Uiso   1.00
H409   H     0.18271   0.00539   0.57407   0.00000  Uiso   1.00
H410   H     0.16023   0.44612   0.58132   0.00000  Uiso   1.00
H411   H     0.30015   0.12200   0.55534   0.00000  Uiso   1.00
H412   H     0.08749   0.47381   0.54709   0.00000  Uiso   1.00
H413   H     0.11011   0.03262   0.54047   0.00000  Uiso   1.00
H414   H     0.10395   0.00685   0.60175   0.00000  Uiso   1.00
H415   H     0.17977   0.37854   0.50752   0.00000  Uiso   1.00
H416   H     0.02867   0.28376   0.42800   0.00000  Uiso   1.00
H417   H     0.47123   0.21632   0.42815   0.00000  Uiso   1.00
H418   H     0.47134   0.28411   0.57183   0.00000  Uiso   1.00
H419   H     0.02877   0.21668   0.57206   0.00000  Uiso   1.00
H420   H     0.14556   0.27797   0.41584   0.00000  Uiso   1.00
N421   N     0.25000   0.12624   0.50000   0.00000  Uiso   1.00
N422   N     0.25000   0.37377   0.50000   0.00000  Uiso   1.00
O423   O     0.18453   0.28974   0.50000   0.00000  Uiso   1.00
O424   O     0.38635   0.21340   0.41625   0.00000  Uiso   1.00
O425   O     0.38648   0.28680   0.58373   0.00000  Uiso   1.00
O426   O     0.11366   0.21375   0.58394   0.00000  Uiso   1.00
O427   O     0.19166   0.03059   0.43621   0.00000  Uiso   1.00
O428   O     0.33112   0.46978   0.49192   0.00000  Uiso   1.00
O429   O     0.30834   0.03060   0.56379   0.00000  Uiso   1.00
O430   O     0.16888   0.46977   0.50808   0.00000  Uiso   1.00
O431   O     0.31547   0.21026   0.50000   0.00000  Uiso   1.00
O432   O     0.31547   0.28974   0.50000   0.00000  Uiso   1.00
O433   O     0.18453   0.21026   0.50000   0.00000  Uiso   1.00
O434   O     0.25000   0.28973   0.42845   0.00000  Uiso   1.00
O435   O     0.25000   0.21027   0.57155   0.00000  Uiso   1.00
O436   O     0.25000   0.28973   0.57155   0.00000  Uiso   1.00
O437   O     0.25000   0.21027   0.42845   0.00000  Uiso   1.00
O438   O     0.11353   0.28642   0.41610   0.00000  Uiso   1.00
Zn439  Zn    0.25000   0.30307   0.50000   0.00000  Uiso   1.00
Zn440  Zn    0.25000   0.19693   0.50000   0.00000  Uiso   1.00
C441   C     0.66410   0.25000   0.50000   0.00000  Uiso   1.00
C442   C     0.70979   0.44741   0.50522   0.00000  Uiso   1.00
C443   C     0.74999   0.25000   0.40618   0.00000  Uiso   1.00
C444   C     0.75001   0.25000   0.59382   0.00000  Uiso   1.00
C445   C     0.75000   0.02681   0.50000   0.00000  Uiso   1.00
C446   C     0.75000   0.47338   0.50000   0.00000  Uiso   1.00
C447   C     0.75000   0.25000   0.35511   0.00000  Uiso   1.00
C448   C     0.75001   0.25000   0.64489   0.00000  Uiso   1.00
C449   C     0.54688   0.26904   0.45934   0.00000  Uiso   1.00
C450   C     0.95306   0.23113   0.45941   0.00000  Uiso   1.00
C451   C     0.95312   0.26925   0.54057   0.00000  Uiso   1.00
C452   C     0.83590   0.25001   0.50001   0.00000  Uiso   1.00
C453   C     0.54694   0.23133   0.54071   0.00000  Uiso   1.00
C454   C     0.59304   0.26872   0.45838   0.00000  Uiso   1.00
C455   C     0.90690   0.23130   0.45847   0.00000  Uiso   1.00
C456   C     0.90697   0.26892   0.54153   0.00000  Uiso   1.00
C457   C     0.59311   0.23148   0.54164   0.00000  Uiso   1.00
C458   C     0.61633   0.25004   0.50000   0.00000  Uiso   1.00
C459   C     0.88368   0.25005   0.50001   0.00000  Uiso   1.00
C460   C     0.52407   0.25022   0.50002   0.00000  Uiso   1.00
C461   C     0.97593   0.25022   0.50000   0.00000  Uiso   1.00
C462   C     0.71382   0.01654   0.39229   0.00000  Uiso   1.00
C463   C     0.72204   0.10240   0.46889   0.00000  Uiso   1.00
C464   C     0.68152   0.48867   0.35998   0.00000  Uiso   1.00
C465   C     0.84096   0.47898   0.44144   0.00000  Uiso   1.00
C466   C     0.88783   0.49935   0.43785   0.00000  Uiso   1.00
C467   C     0.78618   0.01654   0.60771   0.00000  Uiso   1.00
C468   C     0.81848   0.48869   0.64003   0.00000  Uiso   1.00
C469   C     0.65904   0.47897   0.55856   0.00000  Uiso   1.00
C470   C     0.61218   0.49934   0.56215   0.00000  Uiso   1.00
C471   C     0.78921   0.39779   0.49565   0.00000  Uiso   1.00
C472   C     0.77797   0.10240   0.53111   0.00000  Uiso   1.00
C473   C     0.71079   0.39778   0.50435   0.00000  Uiso   1.00
C474   C     0.72181   0.05281   0.46740   0.00000  Uiso   1.00
C475   C     0.79021   0.44741   0.49478   0.00000  Uiso   1.00
C476   C     0.77820   0.05281   0.53260   0.00000  Uiso   1.00
H477   H     0.69985   0.12200   0.44466   0.00000  Uiso   1.00
H478   H     0.85432   0.22187   0.41590   0.00000  Uiso   1.00
H479   H     0.85447   0.27826   0.58408   0.00000  Uiso   1.00
H480   H     0.64572   0.22206   0.58415   0.00000  Uiso   1.00
H481   H     0.74266   0.49321   0.40070   0.00000  Uiso   1.00
H482   H     0.72551   0.04784   0.37096   0.00000  Uiso   1.00
H483   H     0.65365   0.01165   0.34750   0.00000  Uiso   1.00
H484   H     0.69932   0.47473   0.66022   0.00000  Uiso   1.00
H485   H     0.66777   0.45854   0.38146   0.00000  Uiso   1.00
H486   H     0.81730   0.00541   0.42594   0.00000  Uiso   1.00
H487   H     0.83977   0.44614   0.41867   0.00000  Uiso   1.00
H488   H     0.82023   0.37854   0.49248   0.00000  Uiso   1.00
H489   H     0.91251   0.47381   0.45290   0.00000  Uiso   1.00
H490   H     0.89605   0.00687   0.39826   0.00000  Uiso   1.00
H491   H     0.88991   0.03261   0.45955   0.00000  Uiso   1.00
H492   H     0.75735   0.49320   0.59930   0.00000  Uiso   1.00
H493   H     0.77449   0.04784   0.62904   0.00000  Uiso   1.00
H494   H     0.84635   0.01168   0.65251   0.00000  Uiso   1.00
H495   H     0.80069   0.47474   0.33979   0.00000  Uiso   1.00
H496   H     0.83225   0.45856   0.61855   0.00000  Uiso   1.00
H497   H     0.68271   0.00539   0.57407   0.00000  Uiso   1.00
H498   H     0.66023   0.44612   0.58132   0.00000  Uiso   1.00
H499   H     0.80015   0.12200   0.55534   0.00000  Uiso   1.00
H500   H     0.58749   0.47381   0.54709   0.00000  Uiso   1.00
H501   H     0.61011   0.03262   0.54047   0.00000  Uiso   1.00
H502   H     0.60395   0.00685   0.60175   0.00000  Uiso   1.00
H503   H     0.67977   0.37854   0.50752   0.00000  Uiso   1.00
H504   H     0.52867   0.28376   0.42800   0.00000  Uiso   1.00
H505   H     0.97123   0.21632   0.42815   0.00000  Uiso   1.00
H506   H     0.97134   0.28411   0.57183   0.00000  Uiso   1.00
H507   H     0.52877   0.21668   0.57206   0.00000  Uiso   1.00
H508   H     0.64556   0.27797   0.41584   0.00000  Uiso   1.00
N509   N     0.75000   0.12624   0.50000   0.00000  Uiso   1.00
N510   N     0.75000   0.37377   0.50000   0.00000  Uiso   1.00
O511   O     0.68453   0.28974   0.50000   0.00000  Uiso   1.00
O512   O     0.88635   0.21340   0.41625   0.00000  Uiso   1.00
O513   O     0.88648   0.28680   0.58373   0.00000  Uiso   1.00
O514   O     0.61366   0.21375   0.58394   0.00000  Uiso   1.00
O515   O     0.69166   0.03059   0.43621   0.00000  Uiso   1.00
O516   O     0.83112   0.46978   0.49192   0.00000  Uiso   1.00
O517   O     0.80834   0.03060   0.56379   0.00000  Uiso   1.00
O518   O     0.66888   0.46977   0.50808   0.00000  Uiso   1.00
O519   O     0.81547   0.21026   0.50000   0.00000  Uiso   1.00
O520   O     0.81547   0.28974   0.50000   0.00000  Uiso   1.00
O521   O     0.68453   0.21026   0.50000   0.00000  Uiso   1.00
O522   O     0.75000   0.28973   0.42845   0.00000  Uiso   1.00
O523   O     0.75000   0.21027   0.57155   0.00000  Uiso   1.00
O524   O     0.75000   0.28973   0.57155   0.00000  Uiso   1.00
O525   O     0.75000   0.21027   0.42845   0.00000  Uiso   1.00
O526   O     0.61353   0.28642   0.41610   0.00000  Uiso   1.00
Zn527  Zn    0.75000   0.30307   0.50000   0.00000  Uiso   1.00
Zn528  Zn    0.75000   0.19693   0.50000   0.00000  Uiso   1.00
C529   C     0.16410   0.75000   0.50000   0.00000  Uiso   1.00
C530   C     0.20979   0.94741   0.50522   0.00000  Uiso   1.00
C531   C     0.24999   0.75000   0.40618   0.00000  Uiso   1.00
C532   C     0.25001   0.75000   0.59382   0.00000  Uiso   1.00
C533   C     0.25000   0.52681   0.50000   0.00000  Uiso   1.00
C534   C     0.25000   0.97338   0.50000   0.00000  Uiso   1.00
C535   C     0.25000   0.75000   0.35511   0.00000  Uiso   1.00
C536   C     0.25001   0.75000   0.64489   0.00000  Uiso   1.00
C537   C     0.04688   0.76904   0.45934   0.00000  Uiso   1.00
C538   C     0.45306   0.73113   0.45941   0.00000  Uiso   1.00
C539   C     0.45312   0.76925   0.54057   0.00000  Uiso   1.00
C540   C     0.33590   0.75001   0.50001   0.00000  Uiso   1.00
C541   C     0.04694   0.73133   0.54071   0.00000  Uiso   1.00
C542   C     0.09304   0.76872   0.45838   0.00000  Uiso   1.00
C543   C     0.40690   0.73130   0.45847   0.00000  Uiso   1.00
C544   C     0.40697   0.76892   0.54153   0.00000  Uiso   1.00
C545   C     0.09311   0.73148   0.54164   0.00000  Uiso   1.00
C546   C     0.11633   0.75004   0.50000   0.00000  Uiso   1.00
C547   C     0.38368   0.75005   0.50001   0.00000  Uiso   1.00
C548   C     0.02407   0.75022   0.50002   0.00000  Uiso   1.00
C549   C     0.47593   0.75022   0.50000   0.00000  Uiso   1.00
C550   C     0.21382   0.51654   0.39229   0.00000  Uiso   1.00
C551   C     0.22204   0.60240   0.46889   0.00000  Uiso   1.00
C552   C     0.18152   0.98867   0.35998   0.00000  Uiso   1.00
C553   C     0.34096   0.97898   0.44144   0.00000  Uiso   1.00
C554   C     0.38783   0.99935   0.43785   0.00000  Uiso   1.00
C555   C     0.28618   0.51654   0.60771   0.00000  Uiso   1.00
C556   C     0.31848   0.98869   0.64003   0.00000  Uiso   1.00
C557   C     0.15904   0.97897   0.55856   0.00000  Uiso   1.00
C558   C     0.11218   0.99934   0.56215   0.00000  Uiso   1.00
C559   C     0.28921   0.89779   0.49565   0.00000  Uiso   1.00
C560   C     0.27797   0.60240   0.53111   0.00000  Uiso   1.00
C561   C     0.21079   0.89778   0.50435   0.00000  Uiso   1.00
C562   C     0.22181   0.55281   0.46740   0.00000  Uiso   1.00
C563   C     0.29021   0.94741   0.49478   0.00000  Uiso   1.00
C564   C     0.27820   0.55281   0.53260   0.00000  Uiso   1.00
H565   H     0.19985   0.62200   0.44466   0.00000  Uiso   1.00
H566   H     0.35432   0.72187   0.41590   0.00000  Uiso   1.00
H567   H     0.35447   0.77826   0.58408   0.00000  Uiso   1.00
H568   H     0.14572   0.72206   0.58415   0.00000  Uiso   1.00
H569   H     0.24266   0.99321   0.40070   0.00000  Uiso   1.00
H570   H     0.22551   0.54784   0.37096   0.00000  Uiso   1.00
H571   H     0.15365   0.51165   0.34750   0.00000  Uiso   1.00
H572   H     0.19932   0.97473   0.66022   0.00000  Uiso   1.00
H573   H     0.16777   0.95854   0.38146   0.00000  Uiso   1.00
H574   H     0.31730   0.50541   0.42594   0.00000  Uiso   1.00
H575   H     0.33977   0.94614   0.41867   0.00000  Uiso   1.00
H576   H     0.32023   0.87854   0.49248   0.00000  Uiso   1.00
H577   H     0.41251   0.97381   0.45290   0.00000  Uiso   1.00
H578   H     0.39605   0.50687   0.39826   0.00000  Uiso   1.00
H579   H     0.38991   0.53261   0.45955   0.00000  Uiso   1.00
H580   H     0.25735   0.99320   0.59930   0.00000  Uiso   1.00
H581   H     0.27449   0.54784   0.62904   0.00000  Uiso   1.00
H582   H     0.34635   0.51168   0.65251   0.00000  Uiso   1.00
H583   H     0.30069   0.97474   0.33979   0.00000  Uiso   1.00
H584   H     0.33225   0.95856   0.61855   0.00000  Uiso   1.00
H585   H     0.18271   0.50539   0.57407   0.00000  Uiso   1.00
H586   H     0.16023   0.94612   0.58132   0.00000  Uiso   1.00
H587   H     0.30015   0.62200   0.55534   0.00000  Uiso   1.00
H588   H     0.08749   0.97381   0.54709   0.00000  Uiso   1.00
H589   H     0.11011   0.53262   0.54047   0.00000  Uiso   1.00
H590   H     0.10395   0.50685   0.60175   0.00000  Uiso   1.00
H591   H     0.17977   0.87854   0.50752   0.00000  Uiso   1.00
H592   H     0.02867   0.78376   0.42800   0.00000  Uiso   1.00
H593   H     0.47123   0.71632   0.42815   0.00000  Uiso   1.00
H594   H     0.47134   0.78411   0.57183   0.00000  Uiso   1.00
H595   H     0.02877   0.71668   0.57206   0.00000  Uiso   1.00
H596   H     0.14556   0.77797   0.41584   0.00000  Uiso   1.00
N597   N     0.25000   0.62624   0.50000   0.00000  Uiso   1.00
N598   N     0.25000   0.87377   0.50000   0.00000  Uiso   1.00
O599   O     0.18453   0.78974   0.50000   0.00000  Uiso   1.00
O600   O     0.38635   0.71340   0.41625   0.00000  Uiso   1.00
O601   O     0.38648   0.78680   0.58373   0.00000  Uiso   1.00
O602   O     0.11366   0.71375   0.58394   0.00000  Uiso   1.00
O603   O     0.19166   0.53059   0.43621   0.00000  Uiso   1.00
O604   O     0.33112   0.96978   0.49192   0.00000  Uiso   1.00
O605   O     0.30834   0.53060   0.56379   0.00000  Uiso   1.00
O606   O     0.16888   0.96977   0.50808   0.00000  Uiso   1.00
O607   O     0.31547   0.71026   0.50000   0.00000  Uiso   1.00
O608   O     0.31547   0.78974   0.50000   0.00000  Uiso   1.00
O609   O     0.18453   0.71026   0.50000   0.00000  Uiso   1.00
O610   O     0.25000   0.78973   0.42845   0.00000  Uiso   1.00
O611   O     0.25000   0.71027   0.57155   0.00000  Uiso   1.00
O612   O     0.25000   0.78973   0.57155   0.00000  Uiso   1.00
O613   O     0.25000   0.71027   0.42845   0.00000  Uiso   1.00
O614   O     0.11353   0.78642   0.41610   0.00000  Uiso   1.00
Zn615  Zn    0.25000   0.80307   0.50000   0.00000  Uiso   1.00
Zn616  Zn    0.25000   0.69693   0.50000   0.00000  Uiso   1.00
C617   C     0.66410   0.75000   0.50000   0.00000  Uiso   1.00
C618   C     0.70979   0.94741   0.50522   0.00000  Uiso   1.00
C619   C     0.74999   0.75000   0.40618   0.00000  Uiso   1.00
C620   C     0.75001   0.75000   0.59382   0.00000  Uiso   1.00
C621   C     0.75000   0.52681   0.50000   0.00000  Uiso   1.00
C622   C     0.75000   0.97338   0.50000   0.00000  Uiso   1.00
C623   C     0.75000   0.75000   0.35511   0.00000  Uiso   1.00
C624   C     0.75001   0.75000   0.64489   0.00000  Uiso   1.00
C625   C     0.54688   0.76904   0.45934   0.00000  Uiso   1.00
C626   C     0.95306   0.73113   0.45941   0.00000  Uiso   1.00
C627   C     0.95312   0.76925   0.54057   0.00000  Uiso   1.00
C628   C     0.83590   0.75001   0.50001   0.00000  Uiso   1.00
C629   C     0.54694   0.73133   0.54071   0.00000  Uiso   1.00
C630   C     0.59304   0.76872   0.45838   0.00000  Uiso   1.00
C631   C     0.90690   0.73130   0.45847   0.00000  Uiso   1.00
C632   C     0.90697   0.76892   0.54153   0.00000  Uiso   1.00
C633   C     0.59311   0.73148   0.54164   0.00000  Uiso   1.00
C634   C     0.61633   0.75004   0.50000   0.00000  Uiso   1.00
C635   C     0.88368   0.75005   0.50001   0.00000  Uiso   1.00
C636   C     0.52407   0.75022   0.50002   0.00000  Uiso   1.00
C637   C     0.97593   0.75022   0.50000   0.00000  Uiso   1.00
C638   C     0.71382   0.51654   0.39229   0.00000  Uiso   1.00
C639   C     0.72204   0.60240   0.46889   0.00000  Uiso   1.00
C640   C     0.68152   0.98867   0.35998   0.00000  Uiso   1.00
C641   C     0.84096   0.97898   0.44144   0.00000  Uiso   1.00
C642   C     0.88783   0.99935   0.43785   0.00000  Uiso   1.00
C643   C     0.78618   0.51654   0.60771   0.00000  Uiso   1.00
C644   C     0.81848   0.98869   0.64003   0.00000  Uiso   1.00
C645   C     0.65904   0.97897   0.55856   0.00000  Uiso   1.00
C646   C     0.61218   0.99934   0.56215   0.00000  Uiso   1.00
C647   C     0.78921   0.89779   0.49565   0.00000  Uiso   1.00
C648   C     0.77797   0.60240   0.53111   0.00000  Uiso   1.00
C649   C     0.71079   0.89778   0.50435   0.00000  Uiso   1.00
C650   C     0.72181   0.55281   0.46740   0.00000  Uiso   1.00
C651   C     0.79021   0.94741   0.49478   0.00000  Uiso   1.00
C652   C     0.77820   0.55281   0.53260   0.00000  Uiso   1.00
H653   H     0.69985   0.62200   0.44466   0.00000  Uiso   1.00
H654   H     0.85432   0.72187   0.41590   0.00000  Uiso   1.00
H655   H     0.85447   0.77826   0.58408   0.00000  Uiso   1.00
H656   H     0.64572   0.72206   0.58415   0.00000  Uiso   1.00
H657   H     0.74266   0.99321   0.40070   0.00000  Uiso   1.00
H658   H     0.72551   0.54784   0.37096   0.00000  Uiso   1.00
H659   H     0.65365   0.51165   0.34750   0.00000  Uiso   1.00
H660   H     0.69932   0.97473   0.66022   0.00000  Uiso   1.00
H661   H     0.66777   0.95854   0.38146   0.00000  Uiso   1.00
H662   H     0.81730   0.50541   0.42594   0.00000  Uiso   1.00
H663   H     0.83977   0.94614   0.41867   0.00000  Uiso   1.00
H664   H     0.82023   0.87854   0.49248   0.00000  Uiso   1.00
H665   H     0.91251   0.97381   0.45290   0.00000  Uiso   1.00
H666   H     0.89605   0.50687   0.39826   0.00000  Uiso   1.00
H667   H     0.88991   0.53261   0.45955   0.00000  Uiso   1.00
H668   H     0.75735   0.99320   0.59930   0.00000  Uiso   1.00
H669   H     0.77449   0.54784   0.62904   0.00000  Uiso   1.00
H670   H     0.84635   0.51168   0.65251   0.00000  Uiso   1.00
H671   H     0.80069   0.97474   0.33979   0.00000  Uiso   1.00
H672   H     0.83225   0.95856   0.61855   0.00000  Uiso   1.00
H673   H     0.68271   0.50539   0.57407   0.00000  Uiso   1.00
H674   H     0.66023   0.94612   0.58132   0.00000  Uiso   1.00
H675   H     0.80015   0.62200   0.55534   0.00000  Uiso   1.00
H676   H     0.58749   0.97381   0.54709   0.00000  Uiso   1.00
H677   H     0.61011   0.53262   0.54047   0.00000  Uiso   1.00
H678   H     0.60395   0.50685   0.60175   0.00000  Uiso   1.00
H679   H     0.67977   0.87854   0.50752   0.00000  Uiso   1.00
H680   H     0.52867   0.78376   0.42800   0.00000  Uiso   1.00
H681   H     0.97123   0.71632   0.42815   0.00000  Uiso   1.00
H682   H     0.97134   0.78411   0.57183   0.00000  Uiso   1.00
H683   H     0.52877   0.71668   0.57206   0.00000  Uiso   1.00
H684   H     0.64556   0.77797   0.41584   0.00000  Uiso   1.00
N685   N     0.75000   0.62624   0.50000   0.00000  Uiso   1.00
N686   N     0.75000   0.87377   0.50000   0.00000  Uiso   1.00
O687   O     0.68453   0.78974   0.50000   0.00000  Uiso   1.00
O688   O     0.88635   0.71340   0.41625   0.00000  Uiso   1.00
O689   O     0.88648   0.78680   0.58373   0.00000  Uiso   1.00
O690   O     0.61366   0.71375   0.58394   0.00000  Uiso   1.00
O691   O     0.69166   0.53059   0.43621   0.00000  Uiso   1.00
O692   O     0.83112   0.96978   0.49192   0.00000  Uiso   1.00
O693   O     0.80834   0.53060   0.56379   0.00000  Uiso   1.00
O694   O     0.66888   0.96977   0.50808   0.00000  Uiso   1.00
O695   O     0.81547   0.71026   0.50000   0.00000  Uiso   1.00
O696   O     0.81547   0.78974   0.50000   0.00000  Uiso   1.00
O697   O     0.68453   0.71026   0.50000   0.00000  Uiso   1.00
O698   O     0.75000   0.78973   0.42845   0.00000  Uiso   1.00
O699   O     0.75000   0.71027   0.57155   0.00000  Uiso   1.00
O700   O     0.75000   0.78973   0.57155   0.00000  Uiso   1.00
O701   O     0.75000   0.71027   0.42845   0.00000  Uiso   1.00
O702   O     0.61353   0.78642   0.41610   0.00000  Uiso   1.00
Zn703  Zn    0.75000   0.80307   0.50000   0.00000  Uiso   1.00
Zn704  Zn    0.75000   0.69693   0.50000   0.00000  Uiso   1.00
C705   C     0.16410   0.25000   0.83333   0.00000  Uiso   1.00
C706   C     0.20979   0.44741   0.83855   0.00000  Uiso   1.00
C707   C     0.24999   0.25000   0.73952   0.00000  Uiso   1.00
C708   C     0.25001   0.25000   0.92715   0.00000  Uiso   1.00
C709   C     0.25000   0.02681   0.83333   0.00000  Uiso   1.00
C710   C     0.25000   0.47338   0.83333   0.00000  Uiso   1.00
C711   C     0.25000   0.25000   0.68844   0.00000  Uiso   1.00
C712   C     0.25001   0.25000   0.97823   0.00000  Uiso   1.00
C713   C     0.04688   0.26904   0.79267   0.00000  Uiso   1.00
C714   C     0.45306   0.23113   0.79275   0.00000  Uiso   1.00
C715   C     0.45312   0.26925   0.87391   0.00000  Uiso   1.00
C716   C     0.33590   0.25001   0.83334   0.00000  Uiso   1.00
C717   C     0.04694   0.23133   0.87404   0.00000  Uiso   1.00
C718   C     0.09304   0.26872   0.79171   0.00000  Uiso   1.00
C719   C     0.40690   0.23130   0.79180   0.00000  Uiso   1.00
C720   C     0.40697   0.26892   0.87487   0.00000  Uiso   1.00
C721   C     0.09311   0.23148   0.87498   0.00000  Uiso   1.00
C722   C     0.11633   0.25004   0.83333   0.00000  Uiso   1.00
C723   C     0.38368   0.25005   0.83335   0.00000  Uiso   1.00
C724   C     0.02407   0.25022   0.83336   0.00000  Uiso   1.00
C725   C     0.47593   0.25022   0.83333   0.00000  Uiso   1.00
C726   C     0.21382   0.01654   0.72562   0.00000  Uiso   1.00
C727   C     0.22204   0.10240   0.80222   0.00000  Uiso   1.00
C728   C     0.18152   0.48867   0.69331   0.00000  Uiso   1.00
C729   C     0.34096   0.47898   0.77478   0.00000  Uiso   1.00
C730   C     0.38783   0.49935   0.77118   0.00000  Uiso   1.00
C731   C     0.28618   0.01654   0.94104   0.00000  Uiso   1.00
C732   C     0.31848   0.48869   0.97336   0.00000  Uiso   1.00
C733   C     0.15904   0.47897   0.89189   0.00000  Uiso   1.00
C734   C     0.11218   0.49934   0.89549   0.00000  Uiso   1.00
C735   C     0.28921   0.39779   0.82898   0.00000  Uiso   1.00
C736   C     0.27797   0.10240   0.86445   0.00000  Uiso   1.00
C737   C     0.21079   0.39778   0.83769   0.00000  Uiso   1.00
C738   C     0.22181   0.05281   0.80074   0.00000  Uiso   1.00
C739   C     0.29021   0.44741   0.82811   0.00000  Uiso   1.00
C740   C     0.27820   0.05281   0.86593   0.00000  Uiso   1.00
H741   H     0.19985   0.12200   0.77799   0.00000  Uiso   1.00
H742   H     0.35432   0.22187   0.74923   0.00000  Uiso   1.00
H743   H     0.35447   0.27826   0.91741   0.00000  Uiso   1.00
H744   H     0.14572   0.22206   0.91749   0.00000  Uiso   1.00
H745   H     0.24266   0.49321   0.73403   0.00000  Uiso   1.00
H746   H     0.22551   0.04784   0.70429   0.00000  Uiso   1.00
H747   H     0.15365   0.01165   0.68083   0.00000  Uiso   1.00
H748   H     0.19932   0.47473   0.99355   0.00000  Uiso   1.00
H749   H     0.16777   0.45854   0.71480   0.00000  Uiso   1.00
H750   H     0.31730   0.00541   0.75927   0.00000  Uiso   1.00
H751   H     0.33977   0.44614   0.75201   0.00000  Uiso   1.00
H752   H     0.32023   0.37854   0.82582   0.00000  Uiso   1.00
H753   H     0.41251   0.47381   0.78623   0.00000  Uiso   1.00
H754   H     0.39605   0.00687   0.73159   0.00000  Uiso   1.00
H755   H     0.38991   0.03261   0.79288   0.00000  Uiso   1.00
H756   H     0.25735   0.49320   0.93263   0.00000  Uiso   1.00
H757   H     0.27449   0.04784   0.96237   0.00000  Uiso   1.00
H758   H     0.34635   0.01168   0.98584   0.00000  Uiso   1.00
H759   H     0.30069   0.47474   0.67312   0.00000  Uiso   1.00
H760   H     0.33225   0.45856   0.95188   0.00000  Uiso   1.00
H761   H     0.18271   0.00539   0.90741   0.00000  Uiso   1.00
H762   H     0.16023   0.44612   0.91466   0.00000  Uiso   1.00
H763   H     0.30015   0.12200   0.88867   0.00000  Uiso   1.00
H764   H     0.08749   0.47381   0.88043   0.00000  Uiso   1.00
H765   H     0.11011   0.03262   0.87380   0.00000  Uiso   1.00
H766   H     0.10395   0.00685   0.93508   0.00000  Uiso   1.00
H767   H     0.17977   0.37854   0.84085   0.00000  Uiso   1.00
H768   H     0.02867   0.28376   0.76133   0.00000  Uiso   1.00
H769   H     0.47123   0.21632   0.76148   0.00000  Uiso   1.00
H770   H     0.47134   0.28411   0.90517   0.00000  Uiso   1.00
H771   H     0.02877   0.21668   0.90539   0.00000  Uiso   1.00
H772   H     0.14556   0.27797   0.74917   0.00000  Uiso   1.00
N773   N     0.25000   0.12624   0.83333   0.00000  Uiso   1.00
N774   N     0.25000   0.37377   0.83333   0.00000  Uiso   1.00
O775   O     0.18453   0.28974   0.83334   0.00000  Uiso   1.00
O776   O     0.38635   0.21340   0.74958   0.00000  Uiso   1.00
O777   O     0.38648   0.28680   0.91706   0.00000  Uiso   1.00
O778   O     0.11366   0.21375   0.91727   0.00000  Uiso   1.00
O779   O     0.19166   0.03059   0.76954   0.00000  Uiso   1.00
O780   O     0.33112   0.46978   0.82526   0.00000  Uiso   1.00
O781   O     0.30834   0.03060   0.89713   0.00000  Uiso   1.00
O782   O     0.16888   0.46977   0.84141   0.00000  Uiso   1.00
O783   O     0.31547   0.21026   0.83333   0.00000  Uiso   1.00
O784   O     0.31547   0.28974   0.83333   0.00000  Uiso   1.00
O785   O     0.18453   0.21026   0.83334   0.00000  Uiso   1.00
O786   O     0.25000   0.28973   0.76178   0.00000  Uiso   1.00
O787   O     0.25000   0.21027   0.90489   0.00000  Uiso   1.00
O788   O     0.25000   0.28973   0.90489   0.00000  Uiso   1.00
O789   O     0.25000   0.21027   0.76178   0.00000  Uiso   1.00
O790   O     0.11353   0.28642   0.74943   0.00000  Uiso   1.00
Zn791  Zn    0.25000   0.30307   0.83333   0.00000  Uiso   1.00
Zn792  Zn    0.25000   0.19693   0.83333   0.00000  Uiso   1.00
C793   C     0.66410   0.25000   0.83333   0.00000  Uiso   1.00
C794   C     0.70979   0.44741   0.83855   0.00000  Uiso   1.00
C795   C     0.74999   0.25000   0.73952   0.00000  Uiso   1.00
C796   C     0.75001   0.25000   0.92715   0.00000  Uiso   1.00
C797   C     0.75000   0.02681   0.83333   0.00000  Uiso   1.00
C798   C     0.75000   0.47338   0.83333   0.00000  Uiso   1.00
C799   C     0.75000   0.25000   0.68844   0.00000  Uiso   1.00
C800   C     0.75001   0.25000   0.97823   0.00000  Uiso   1.00
C801   C     0.54688   0.26904   0.79267   0.00000  Uiso   1.00
C802   C     0.95306   0.23113   0.79275   0.00000  Uiso   1.00
C803   C     0.95312   0.26925   0.87391   0.00000  Uiso   1.00
C804   C     0.83590   0.25001   0.83334   0.00000  Uiso   1.00
C805   C     0.54694   0.23133   0.87404   0.00000  Uiso   1.00
C806   C     0.59304   0.26872   0.79171   0.00000  Uiso   1.00
C807   C     0.90690   0.23130   0.79180   0.00000  Uiso   1.00
C808   C     0.90697   0.26892   0.87487   0.00000  Uiso   1.00
C809   C     0.59311   0.23148   0.87498   0.00000  Uiso   1.00
C810   C     0.61633   0.25004   0.83333   0.00000  Uiso   1.00
C811   C     0.88368   0.25005   0.83335   0.00000  Uiso   1.00
C812   C     0.52407   0.25022   0.83336   0.00000  Uiso   1.00
C813   C     0.97593   0.25022   0.83333   0.00000  Uiso   1.00
C814   C     0.71382   0.01654   0.72562   0.00000  Uiso   1.00
C815   C     0.72204   0.10240   0.80222   0.00000  Uiso   1.00
C816   C     0.68152   0.48867   0.69331   0.00000  Uiso   1.00
C817   C     0.84096   0.47898   0.77478   0.00000  Uiso   1.00
C818   C     0.88783   0.49935   0.77118   0.00000  Uiso   1.00
C819   C     0.78618   0.01654   0.94104   0.00000  Uiso   1.00
C820   C     0.81848   0.48869   0.97336   0.00000  Uiso   1.00
C821   C     0.65904   0.47897   0.89189   0.00000  Uiso   1.00
C822   C     0.61218   0.49934   0.89549   0.00000  Uiso   1.00
C823   C     0.78921   0.39779   0.82898   0.00000  Uiso   1.00
C824   C     0.77797   0.10240   0.86445   0.00000  Uiso   1.00
C825   C     0.71079   0.39778   0.83769   0.00000  Uiso   1.00
C826   C     0.72181   0.05281   0.80074   0.00000  Uiso   1.00
C827   C     0.79021   0.44741   0.82811   0.00000  Uiso   1.00
C828   C     0.77820   0.05281   0.86593   0.00000  Uiso   1.00
H829   H     0.69985   0.12200   0.77799   0.00000  Uiso   1.00
H830   H     0.85432   0.22187   0.74923   0.00000  Uiso   1.00
H831   H     0.85447   0.27826   0.91741   0.00000  Uiso   1.00
H832   H     0.64572   0.22206   0.91749   0.00000  Uiso   1.00
H833   H     0.74266   0.49321   0.73403   0.00000  Uiso   1.00
H834   H     0.72551   0.04784   0.70429   0.00000  Uiso   1.00
H835   H     0.65365   0.01165   0.68083   0.00000  Uiso   1.00
H836   H     0.69932   0.47473   0.99355   0.00000  Uiso   1.00
H837   H     0.66777   0.45854   0.71480   0.00000  Uiso   1.00
H838   H     0.81730   0.00541   0.75927   0.00000  Uiso   1.00
H839   H     0.83977   0.44614   0.75201   0.00000  Uiso   1.00
H840   H     0.82023   0.37854   0.82582   0.00000  Uiso   1.00
H841   H     0.91251   0.47381   0.78623   0.00000  Uiso   1.00
H842   H     0.89605   0.00687   0.73159   0.00000  Uiso   1.00
H843   H     0.88991   0.03261   0.79288   0.00000  Uiso   1.00
H844   H     0.75735   0.49320   0.93263   0.00000  Uiso   1.00
H845   H     0.77449   0.04784   0.96237   0.00000  Uiso   1.00
H846   H     0.84635   0.01168   0.98584   0.00000  Uiso   1.00
H847   H     0.80069   0.47474   0.67312   0.00000  Uiso   1.00
H848   H     0.83225   0.45856   0.95188   0.00000  Uiso   1.00
H849   H     0.68271   0.00539   0.90741   0.00000  Uiso   1.00
H850   H     0.66023   0.44612   0.91466   0.00000  Uiso   1.00
H851   H     0.80015   0.12200   0.88867   0.00000  Uiso   1.00
H852   H     0.58749   0.47381   0.88043   0.00000  Uiso   1.00
H853   H     0.61011   0.03262   0.87380   0.00000  Uiso   1.00
H854   H     0.60395   0.00685   0.93508   0.00000  Uiso   1.00
H855   H     0.67977   0.37854   0.84085   0.00000  Uiso   1.00
H856   H     0.52867   0.28376   0.76133   0.00000  Uiso   1.00
H857   H     0.97123   0.21632   0.76148   0.00000  Uiso   1.00
H858   H     0.97134   0.28411   0.90517   0.00000  Uiso   1.00
H859   H     0.52877   0.21668   0.90539   0.00000  Uiso   1.00
H860   H     0.64556   0.27797   0.74917   0.00000  Uiso   1.00
N861   N     0.75000   0.12624   0.83333   0.00000  Uiso   1.00
N862   N     0.75000   0.37377   0.83333   0.00000  Uiso   1.00
O863   O     0.68453   0.28974   0.83334   0.00000  Uiso   1.00
O864   O     0.88635   0.21340   0.74958   0.00000  Uiso   1.00
O865   O     0.88648   0.28680   0.91706   0.00000  Uiso   1.00
O866   O     0.61366   0.21375   0.91727   0.00000  Uiso   1.00
O867   O     0.69166   0.03059   0.76954   0.00000  Uiso   1.00
O868   O     0.83112   0.46978   0.82526   0.00000  Uiso   1.00
O869   O     0.80834   0.03060   0.89713   0.00000  Uiso   1.00
O870   O     0.66888   0.46977   0.84141   0.00000  Uiso   1.00
O871   O     0.81547   0.21026   0.83333   0.00000  Uiso   1.00
O872   O     0.81547   0.28974   0.83333   0.00000  Uiso   1.00
O873   O     0.68453   0.21026   0.83334   0.00000  Uiso   1.00
O874   O     0.75000   0.28973   0.76178   0.00000  Uiso   1.00
O875   O     0.75000   0.21027   0.90489   0.00000  Uiso   1.00
O876   O     0.75000   0.28973   0.90489   0.00000  Uiso   1.00
O877   O     0.75000   0.21027   0.76178   0.00000  Uiso   1.00
O878   O     0.61353   0.28642   0.74943   0.00000  Uiso   1.00
Zn879  Zn    0.75000   0.30307   0.83333   0.00000  Uiso   1.00
Zn880  Zn    0.75000   0.19693   0.83333   0.00000  Uiso   1.00
C881   C     0.16410   0.75000   0.83333   0.00000  Uiso   1.00
C882   C     0.20979   0.94741   0.83855   0.00000  Uiso   1.00
C883   C     0.24999   0.75000   0.73952   0.00000  Uiso   1.00
C884   C     0.25001   0.75000   0.92715   0.00000  Uiso   1.00
C885   C     0.25000   0.52681   0.83333   0.00000  Uiso   1.00
C886   C     0.25000   0.97338   0.83333   0.00000  Uiso   1.00
C887   C     0.25000   0.75000   0.68844   0.00000  Uiso   1.00
C888   C     0.25001   0.75000   0.97823   0.00000  Uiso   1.00
C889   C     0.04688   0.76904   0.79267   0.00000  Uiso   1.00
C890   C     0.45306   0.73113   0.79275   0.00000  Uiso   1.00
C891   C     0.45312   0.76925   0.87391   0.00000  Uiso   1.00
C892   C     0.33590   0.75001   0.83334   0.00000  Uiso   1.00
C893   C     0.04694   0.73133   0.87404   0.00000  Uiso   1.00
C894   C     0.09304   0.76872   0.79171   0.00000  Uiso   1.00
C895   C     0.40690   0.73130   0.79180   0.00000  Uiso   1.00
C896   C     0.40697   0.76892   0.87487   0.00000  Uiso   1.00
C897   C     0.09311   0.73148   0.87498   0.00000  Uiso   1.00
C898   C     0.11633   0.75004   0.83333   0.00000  Uiso   1.00
C899   C     0.38368   0.75005   0.83335   0.00000  Uiso   1.00
C900   C     0.02407   0.75022   0.83336   0.00000  Uiso   1.00
C901   C     0.47593   0.75022   0.83333   0.00000  Uiso   1.00
C902   C     0.21382   0.51654   0.72562   0.00000  Uiso   1.00
C903   C     0.22204   0.60240   0.80222   0.00000  Uiso   1.00
C904   C     0.18152   0.98867   0.69331   0.00000  Uiso   1.00
C905   C     0.34096   0.97898   0.77478   0.00000  Uiso   1.00
C906   C     0.38783   0.99935   0.77118   0.00000  Uiso   1.00
C907   C     0.28618   0.51654   0.94104   0.00000  Uiso   1.00
C908   C     0.31848   0.98869   0.97336   0.00000  Uiso   1.00
C909   C     0.15904   0.97897   0.89189   0.00000  Uiso   1.00
C910   C     0.11218   0.99934   0.89549   0.00000  Uiso   1.00
C911   C     0.28921   0.89779   0.82898   0.00000  Uiso   1.00
C912   C     0.27797   0.60240   0.86445   0.00000  Uiso   1.00
C913   C     0.21079   0.89778   0.83769   0.00000  Uiso   1.00
C914   C     0.22181   0.55281   0.80074   0.00000  Uiso   1.00
C915   C     0.29021   0.94741   0.82811   0.00000  Uiso   1.00
C916   C     0.27820   0.55281   0.86593   0.00000  Uiso   1.00
H917   H     0.19985   0.62200   0.77799   0.00000  Uiso   1.00
H918   H     0.35432   0.72187   0.74923   0.00000  Uiso   1.00
H919   H     0.35447   0.77826   0.91741   0.00000  Uiso   1.00
H920   H     0.14572   0.72206   0.91749   0.00000  Uiso   1.00
H921   H     0.24266   0.99321   0.73403   0.00000  Uiso   1.00
H922   H     0.22551   0.54784   0.70429   0.00000  Uiso   1.00
H923   H     0.15365   0.51165   0.68083   0.00000  Uiso   1.00
H924   H     0.19932   0.97473   0.99355   0.00000  Uiso   1.00
H925   H     0.16777   0.95854   0.71480   0.00000  Uiso   1.00
H926   H     0.31730   0.50541   0.75927   0.00000  Uiso   1.00
H927   H     0.33977   0.94614   0.75201   0.00000  Uiso   1.00
H928   H     0.32023   0.87854   0.82582   0.00000  Uiso   1.00
H929   H     0.41251   0.97381   0.78623   0.00000  Uiso   1.00
H930   H     0.39605   0.50687   0.73159   0.00000  Uiso   1.00
H931   H     0.38991   0.53261   0.79288   0.00000  Uiso   1.00
H932   H     0.25735   0.99320   0.93263   0.00000  Uiso   1.00
H933   H     0.27449   0.54784   0.96237   0.00000  Uiso   1.00
H934   H     0.34635   0.51168   0.98584   0.00000  Uiso   1.00
H935   H     0.30069   0.97474   0.67312   0.00000  Uiso   1.00
H936   H     0.33225   0.95856   0.95188   0.00000  Uiso   1.00
H937   H     0.18271   0.50539   0.90741   0.00000  Uiso   1.00
H938   H     0.16023   0.94612   0.91466   0.00000  Uiso   1.00
H939   H     0.30015   0.62200   0.88867   0.00000  Uiso   1.00
H940   H     0.08749   0.97381   0.88043   0.00000  Uiso   1.00
H941   H     0.11011   0.53262   0.87380   0.00000  Uiso   1.00
H942   H     0.10395   0.50685   0.93508   0.00000  Uiso   1.00
H943   H     0.17977   0.87854   0.84085   0.00000  Uiso   1.00
H944   H     0.02867   0.78376   0.76133   0.00000  Uiso   1.00
H945   H     0.47123   0.71632   0.76148   0.00000  Uiso   1.00
H946   H     0.47134   0.78411   0.90517   0.00000  Uiso   1.00
H947   H     0.02877   0.71668   0.90539   0.00000  Uiso   1.00
H948   H     0.14556   0.77797   0.74917   0.00000  Uiso   1.00
N949   N     0.25000   0.62624   0.83333   0.00000  Uiso   1.00
N950   N     0.25000   0.87377   0.83333   0.00000  Uiso   1.00
O951   O     0.18453   0.78974   0.83334   0.00000  Uiso   1.00
O952   O     0.38635   0.71340   0.74958   0.00000  Uiso   1.00
O953   O     0.38648   0.78680   0.91706   0.00000  Uiso   1.00
O954   O     0.11366   0.71375   0.91727   0.00000  Uiso   1.00
O955   O     0.19166   0.53059   0.76954   0.00000  Uiso   1.00
O956   O     0.33112   0.96978   0.82526   0.00000  Uiso   1.00
O957   O     0.30834   0.53060   0.89713   0.00000  Uiso   1.00
O958   O     0.16888   0.96977   0.84141   0.00000  Uiso   1.00
O959   O     0.31547   0.71026   0.83333   0.00000  Uiso   1.00
O960   O     0.31547   0.78974   0.83333   0.00000  Uiso   1.00
O961   O     0.18453   0.71026   0.83334   0.00000  Uiso   1.00
O962   O     0.25000   0.78973   0.76178   0.00000  Uiso   1.00
O963   O     0.25000   0.71027   0.90489   0.00000  Uiso   1.00
O964   O     0.25000   0.78973   0.90489   0.00000  Uiso   1.00
O965   O     0.25000   0.71027   0.76178   0.00000  Uiso   1.00
O966   O     0.11353   0.78642   0.74943   0.00000  Uiso   1.00
Zn967  Zn    0.25000   0.80307   0.83333   0.00000  Uiso   1.00
Zn968  Zn    0.25000   0.69693   0.83333   0.00000  Uiso   1.00
C969   C     0.66410   0.75000   0.83333   0.00000  Uiso   1.00
C970   C     0.70979   0.94741   0.83855   0.00000  Uiso   1.00
C971   C     0.74999   0.75000   0.73952   0.00000  Uiso   1.00
C972   C     0.75001   0.75000   0.92715   0.00000  Uiso   1.00
C973   C     0.75000   0.52681   0.83333   0.00000  Uiso   1.00
C974   C     0.75000   0.97338   0.83333   0.00000  Uiso   1.00
C975   C     0.75000   0.75000   0.68844   0.00000  Uiso   1.00
C976   C     0.75001   0.75000   0.97823   0.00000  Uiso   1.00
C977   C     0.54688   0.76904   0.79267   0.00000  Uiso   1.00
C978   C     0.95306   0.73113   0.79275   0.00000  Uiso   1.00
C979   C     0.95312   0.76925   0.87391   0.00000  Uiso   1.00
C980   C     0.83590   0.75001   0.83334   0.00000  Uiso   1.00
C981   C     0.54694   0.73133   0.87404   0.00000  Uiso   1.00
C982   C     0.59304   0.76872   0.79171   0.00000  Uiso   1.00
C983   C     0.90690   0.73130   0.79180   0.00000  Uiso   1.00
C984   C     0.90697   0.76892   0.87487   0.00000  Uiso   1.00
C985   C     0.59311   0.73148   0.87498   0.00000  Uiso   1.00
C986   C     0.61633   0.75004   0.83333   0.00000  Uiso   1.00
C987   C     0.88368   0.75005   0.83335   0.00000  Uiso   1.00
C988   C     0.52407   0.75022   0.83336   0.00000  Uiso   1.00
C989   C     0.97593   0.75022   0.83333   0.00000  Uiso   1.00
C990   C     0.71382   0.51654   0.72562   0.00000  Uiso   1.00
C991   C     0.72204   0.60240   0.80222   0.00000  Uiso   1.00
C992   C     0.68152   0.98867   0.69331   0.00000  Uiso   1.00
C993   C     0.84096   0.97898   0.77478   0.00000  Uiso   1.00
C994   C     0.88783   0.99935   0.77118   0.00000  Uiso   1.00
C995   C     0.78618   0.51654   0.94104   0.00000  Uiso   1.00
C996   C     0.81848   0.98869   0.97336   0.00000  Uiso   1.00
C997   C     0.65904   0.97897   0.89189   0.00000  Uiso   1.00
C998   C     0.61218   0.99934   0.89549   0.00000  Uiso   1.00
C999   C     0.78921   0.89779   0.82898   0.00000  Uiso   1.00
C1000  C     0.77797   0.60240   0.86445   0.00000  Uiso   1.00
C1001  C     0.71079   0.89778   0.83769   0.00000  Uiso   1.00
C1002  C     0.72181   0.55281   0.80074   0.00000  Uiso   1.00
C1003  C     0.79021   0.94741   0.82811   0.00000  Uiso   1.00
C1004  C     0.77820   0.55281   0.86593   0.00000  Uiso   1.00
H1005  H     0.69985   0.62200   0.77799   0.00000  Uiso   1.00
H1006  H     0.85432   0.72187   0.74923   0.00000  Uiso   1.00
H1007  H     0.85447   0.77826   0.91741   0.00000  Uiso   1.00
H1008  H     0.64572   0.72206   0.91749   0.00000  Uiso   1.00
H1009  H     0.74266   0.99321   0.73403   0.00000  Uiso   1.00
H1010  H     0.72551   0.54784   0.70429   0.00000  Uiso   1.00
H1011  H     0.65365   0.51165   0.68083   0.00000  Uiso   1.00
H1012  H     0.69932   0.97473   0.99355   0.00000  Uiso   1.00
H1013  H     0.66777   0.95854   0.71480   0.00000  Uiso   1.00
H1014  H     0.81730   0.50541   0.75927   0.00000  Uiso   1.00
H1015  H     0.83977   0.94614   0.75201   0.00000  Uiso   1.00
H1016  H     0.82023   0.87854   0.82582   0.00000  Uiso   1.00
H1017  H     0.91251   0.97381   0.78623   0.00000  Uiso   1.00
H1018  H     0.89605   0.50687   0.73159   0.00000  Uiso   1.00
H1019  H     0.88991   0.53261   0.79288   0.00000  Uiso   1.00
H1020  H     0.75735   0.99320   0.93263   0.00000  Uiso   1.00
H1021  H     0.77449   0.54784   0.96237   0.00000  Uiso   1.00
H1022  H     0.84635   0.51168   0.98584   0.00000  Uiso   1.00
H1023  H     0.80069   0.97474   0.67312   0.00000  Uiso   1.00
H1024  H     0.83225   0.95856   0.95188   0.00000  Uiso   1.00
H1025  H     0.68271   0.50539   0.90741   0.00000  Uiso   1.00
H1026  H     0.66023   0.94612   0.91466   0.00000  Uiso   1.00
H1027  H     0.80015   0.62200   0.88867   0.00000  Uiso   1.00
H1028  H     0.58749   0.97381   0.88043   0.00000  Uiso   1.00
H1029  H     0.61011   0.53262   0.87380   0.00000  Uiso   1.00
H1030  H     0.60395   0.50685   0.93508   0.00000  Uiso   1.00
H1031  H     0.67977   0.87854   0.84085   0.00000  Uiso   1.00
H1032  H     0.52867   0.78376   0.76133   0.00000  Uiso   1.00
H1033  H     0.97123   0.71632   0.76148   0.00000  Uiso   1.00
H1034  H     0.97134   0.78411   0.90517   0.00000  Uiso   1.00
H1035  H     0.52877   0.71668   0.90539   0.00000  Uiso   1.00
H1036  H     0.64556   0.77797   0.74917   0.00000  Uiso   1.00
N1037  N     0.75000   0.62624   0.83333   0.00000  Uiso   1.00
N1038  N     0.75000   0.87377   0.83333   0.00000  Uiso   1.00
O1039  O     0.68453   0.78974   0.83334   0.00000  Uiso   1.00
O1040  O     0.88635   0.71340   0.74958   0.00000  Uiso   1.00
O1041  O     0.88648   0.78680   0.91706   0.00000  Uiso   1.00
O1042  O     0.61366   0.71375   0.91727   0.00000  Uiso   1.00
O1043  O     0.69166   0.53059   0.76954   0.00000  Uiso   1.00
O1044  O     0.83112   0.96978   0.82526   0.00000  Uiso   1.00
O1045  O     0.80834   0.53060   0.89713   0.00000  Uiso   1.00
O1046  O     0.66888   0.96977   0.84141   0.00000  Uiso   1.00
O1047  O     0.81547   0.71026   0.83333   0.00000  Uiso   1.00
O1048  O     0.81547   0.78974   0.83333   0.00000  Uiso   1.00
O1049  O     0.68453   0.71026   0.83334   0.00000  Uiso   1.00
O1050  O     0.75000   0.78973   0.76178   0.00000  Uiso   1.00
O1051  O     0.75000   0.71027   0.90489   0.00000  Uiso   1.00
O1052  O     0.75000   0.78973   0.90489   0.00000  Uiso   1.00
O1053  O     0.75000   0.71027   0.76178   0.00000  Uiso   1.00
O1054  O     0.61353   0.78642   0.74943   0.00000  Uiso   1.00
Zn1055 Zn    0.75000   0.80307   0.83333   0.00000  Uiso   1.00
Zn1056 Zn    0.75000   0.69693   0.83333   0.00000  Uiso   1.00
loop_
_geom_bond_atom_site_label_1
_geom_bond_atom_site_label_2
_geom_bond_distance
_geom_bond_site_symmetry_2
_ccdc_geom_bond_type
C1     C18     1.430   .     S
C1     O71     1.283   .     A
C1     O81     1.284   .     A
C2     C6      1.418   .     A
C2     O78     1.381   .     S
C2     C33     1.410   .     A
C3     O85     1.276   .     A
C3     C7      1.369   .     S
C3     O82     1.276   .     A
C4     C8      1.369   .     S
C4     O84     1.276   .     A
C4     O83     1.276   .     A
C5     C36     1.420   .     A
C5     C34     1.420   .     A
C5     C182    1.517   1_545 S
C6     C35     1.418   .     A
C6     C181    1.517   .     S
C7     C712    1.167   1_554 S
C8     C359    1.167   .     S
C9     H64     1.084   .     S
C9     C14     1.382   .     A
C9     C20     1.394   .     A
C10    C21     1.394   .     A
C10    H65     1.084   .     S
C10    C15     1.382   .     A
C11    H66     1.084   .     S
C11    C21     1.394   .     A
C11    C16     1.382   .     A
C12    O79     1.284   .     A
C12    O80     1.283   .     A
C12    C19     1.430   .     S
C13    H67     1.084   .     S
C13    C20     1.394   .     A
C13    C17     1.382   .     A
C14    C18     1.417   .     A
C14    O86     1.384   .     S
C15    C19     1.417   .     A
C15    O72     1.384   .     S
C16    O73     1.384   .     S
C16    C19     1.417   .     A
C17    C18     1.417   .     A
C17    O74     1.384   .     S
C20    C109    1.441   1_455 S
C21    C108    1.441   .     S
C22    O75     1.409   .     S
C22    H42     1.113   .     S
C22    C200    1.519   1_545 S
C22    H217    1.111   1_545 S
C23    N69     1.361   .     A
C23    H37     1.082   .     S
C23    C34     1.409   .     A
C24    H45     1.111   .     S
C24    C198    1.519   .     S
C24    H219    1.110   .     S
C24    H748    1.108   1_554 S
C25    H47     1.115   .     S
C25    C26     1.520   .     S
C25    O76     1.409   .     S
C25    H222    1.112   .     S
C26    H49     1.111   .     S
C26    H226    1.110   .     S
C26    H227    1.111   .     S
C27    O77     1.409   .     S
C27    H53     1.113   .     S
C27    C204    1.519   1_545 S
C27    H228    1.111   1_545 S
C28    H56     1.111   .     S
C28    C203    1.519   .     S
C28    H230    1.110   .     S
C28    H407    1.108   .     S
C29    O78     1.409   .     S
C29    C30     1.520   .     S
C29    H58     1.115   .     S
C29    H233    1.112   .     S
C30    H60     1.111   .     S
C30    H237    1.111   .     S
C30    H238    1.110   .     S
C31    N70     1.362   .     A
C31    H48     1.081   .     S
C31    C35     1.410   .     A
C32    C36     1.409   .     A
C32    N69     1.361   .     A
C32    H59     1.082   .     S
C33    H63     1.081   .     S
C33    N70     1.362   .     A
C34    O75     1.381   .     S
C35    O76     1.381   .     S
C36    O77     1.381   .     S
H38    O72     0.988   .     S
H39    O73     0.988   .     S
H40    O74     0.988   .     S
H41    C198    1.111   .     S
H43    C200    1.110   1_545 S
H44    C376    1.108   .     S
H46    C201    1.112   1_545 S
H50    C202    1.110   1_545 S
H51    C202    1.111   1_545 S
H52    C203    1.111   .     S
H54    C204    1.110   1_545 S
H55    C732    1.108   1_554 S
H57    C205    1.112   1_545 S
H61    C206    1.111   1_545 S
H62    C206    1.110   1_545 S
H68    O86     0.988   .     S
N69    Zn88    2.008   .     S
N70    Zn87    2.008   .     S
O71    Zn87    1.996   .     S
O79    Zn88    1.996   .     S
O80    Zn87    1.996   .     S
O81    Zn88    1.996   .     S
O82    Zn87    1.954   .     S
O83    Zn88    1.954   .     S
O84    Zn87    1.954   .     S
O85    Zn88    1.954   .     S
C89    C106    1.430   .     S
C89    O159    1.283   .     A
C89    O169    1.284   .     A
C90    C94     1.418   .     A
C90    O166    1.381   .     S
C90    C121    1.410   .     A
C91    O173    1.276   .     A
C91    C95     1.369   .     S
C91    O170    1.276   .     A
C92    C96     1.369   .     S
C92    O172    1.276   .     A
C92    O171    1.276   .     A
C93    C124    1.420   .     A
C93    C122    1.420   .     A
C93    C270    1.517   1_545 S
C94    C123    1.418   .     A
C94    C269    1.517   .     S
C95    C800    1.167   1_554 S
C96    C447    1.167   .     S
C97    H152    1.084   .     S
C97    C102    1.382   .     A
C97    C108    1.394   .     A
C98    C109    1.394   .     A
C98    H153    1.084   .     S
C98    C103    1.382   .     A
C99    H154    1.084   .     S
C99    C109    1.394   .     A
C99    C104    1.382   .     A
C100   O167    1.284   .     A
C100   O168    1.283   .     A
C100   C107    1.430   .     S
C101   H155    1.084   .     S
C101   C108    1.394   .     A
C101   C105    1.382   .     A
C102   C106    1.417   .     A
C102   O174    1.384   .     S
C103   C107    1.417   .     A
C103   O160    1.384   .     S
C104   O161    1.384   .     S
C104   C107    1.417   .     A
C105   C106    1.417   .     A
C105   O162    1.384   .     S
C109   C20     1.441   1_655 S
C110   O163    1.409   .     S
C110   H130    1.113   .     S
C110   C288    1.519   1_545 S
C110   H305    1.111   1_545 S
C111   N157    1.361   .     A
C111   H125    1.082   .     S
C111   C122    1.409   .     A
C112   H133    1.111   .     S
C112   C286    1.519   .     S
C112   H307    1.110   .     S
C112   H836    1.108   1_554 S
C113   H135    1.115   .     S
C113   C114    1.520   .     S
C113   O164    1.409   .     S
C113   H310    1.112   .     S
C114   H137    1.111   .     S
C114   H314    1.110   .     S
C114   H315    1.111   .     S
C115   O165    1.409   .     S
C115   H141    1.113   .     S
C115   C292    1.519   1_545 S
C115   H316    1.111   1_545 S
C116   H144    1.111   .     S
C116   C291    1.519   .     S
C116   H318    1.110   .     S
C116   H495    1.108   .     S
C117   O166    1.409   .     S
C117   C118    1.520   .     S
C117   H146    1.115   .     S
C117   H321    1.112   .     S
C118   H148    1.111   .     S
C118   H325    1.111   .     S
C118   H326    1.110   .     S
C119   N158    1.362   .     A
C119   H136    1.081   .     S
C119   C123    1.410   .     A
C120   C124    1.409   .     A
C120   N157    1.361   .     A
C120   H147    1.082   .     S
C121   H151    1.081   .     S
C121   N158    1.362   .     A
C122   O163    1.381   .     S
C123   O164    1.381   .     S
C124   O165    1.381   .     S
H126   O160    0.988   .     S
H127   O161    0.988   .     S
H128   O162    0.988   .     S
H129   C286    1.111   .     S
H131   C288    1.110   1_545 S
H132   C464    1.108   .     S
H134   C289    1.112   1_545 S
H138   C290    1.110   1_545 S
H139   C290    1.111   1_545 S
H140   C291    1.111   .     S
H142   C292    1.110   1_545 S
H143   C820    1.108   1_554 S
H145   C293    1.112   1_545 S
H149   C294    1.111   1_545 S
H150   C294    1.110   1_545 S
H156   O174    0.988   .     S
N157   Zn176   2.008   .     S
N158   Zn175   2.008   .     S
O159   Zn175   1.996   .     S
O167   Zn176   1.996   .     S
O168   Zn175   1.996   .     S
O169   Zn176   1.996   .     S
O170   Zn175   1.954   .     S
O171   Zn176   1.954   .     S
O172   Zn175   1.954   .     S
O173   Zn176   1.954   .     S
C177   C194    1.430   .     S
C177   O247    1.283   .     A
C177   O257    1.284   .     A
C178   C182    1.418   .     A
C178   O254    1.381   .     S
C178   C209    1.410   .     A
C179   O261    1.276   .     A
C179   C183    1.369   .     S
C179   O258    1.276   .     A
C180   C184    1.369   .     S
C180   O260    1.276   .     A
C180   O259    1.276   .     A
C181   C212    1.420   .     A
C181   C210    1.420   .     A
C182   C211    1.418   .     A
C182   C5      1.517   1_565 S
C183   C888    1.167   1_554 S
C184   C535    1.167   .     S
C185   H240    1.084   .     S
C185   C190    1.382   .     A
C185   C196    1.394   .     A
C186   C197    1.394   .     A
C186   H241    1.084   .     S
C186   C191    1.382   .     A
C187   H242    1.084   .     S
C187   C197    1.394   .     A
C187   C192    1.382   .     A
C188   O255    1.284   .     A
C188   O256    1.283   .     A
C188   C195    1.430   .     S
C189   H243    1.084   .     S
C189   C196    1.394   .     A
C189   C193    1.382   .     A
C190   C194    1.417   .     A
C190   O262    1.384   .     S
C191   C195    1.417   .     A
C191   O248    1.384   .     S
C192   O249    1.384   .     S
C192   C195    1.417   .     A
C193   C194    1.417   .     A
C193   O250    1.384   .     S
C196   C285    1.441   1_455 S
C197   C284    1.441   .     S
C198   O251    1.409   .     S
C198   H218    1.113   .     S
C199   N245    1.361   .     A
C199   H213    1.082   .     S
C199   C210    1.409   .     A
C200   H221    1.111   .     S
C200   C22     1.519   1_565 S
C200   H43     1.110   1_565 S
C200   H924    1.108   1_554 S
C201   H223    1.115   .     S
C201   C202    1.520   .     S
C201   O252    1.409   .     S
C201   H46     1.112   1_565 S
C202   H225    1.111   .     S
C202   H50     1.110   1_565 S
C202   H51     1.111   1_565 S
C203   O253    1.409   .     S
C203   H229    1.113   .     S
C204   H232    1.111   .     S
C204   C27     1.519   1_565 S
C204   H54     1.110   1_565 S
C204   H583    1.108   .     S
C205   O254    1.409   .     S
C205   C206    1.520   .     S
C205   H234    1.115   .     S
C205   H57     1.112   1_565 S
C206   H236    1.111   .     S
C206   H61     1.111   1_565 S
C206   H62     1.110   1_565 S
C207   N246    1.362   .     A
C207   H224    1.081   .     S
C207   C211    1.410   .     A
C208   C212    1.409   .     A
C208   N245    1.361   .     A
C208   H235    1.082   .     S
C209   H239    1.081   .     S
C209   N246    1.362   .     A
C210   O251    1.381   .     S
C211   O252    1.381   .     S
C212   O253    1.381   .     S
H214   O248    0.988   .     S
H215   O249    0.988   .     S
H216   O250    0.988   .     S
H217   C22     1.111   1_565 S
H220   C552    1.108   .     S
H228   C27     1.111   1_565 S
H231   C908    1.108   1_554 S
H244   O262    0.988   .     S
N245   Zn264   2.008   .     S
N246   Zn263   2.008   .     S
O247   Zn263   1.996   .     S
O255   Zn264   1.996   .     S
O256   Zn263   1.996   .     S
O257   Zn264   1.996   .     S
O258   Zn263   1.954   .     S
O259   Zn264   1.954   .     S
O260   Zn263   1.954   .     S
O261   Zn264   1.954   .     S
C265   C282    1.430   .     S
C265   O335    1.283   .     A
C265   O345    1.284   .     A
C266   C270    1.418   .     A
C266   O342    1.381   .     S
C266   C297    1.410   .     A
C267   O349    1.276   .     A
C267   C271    1.369   .     S
C267   O346    1.276   .     A
C268   C272    1.369   .     S
C268   O348    1.276   .     A
C268   O347    1.276   .     A
C269   C300    1.420   .     A
C269   C298    1.420   .     A
C270   C299    1.418   .     A
C270   C93     1.517   1_565 S
C271   C976    1.167   1_554 S
C272   C623    1.167   .     S
C273   H328    1.084   .     S
C273   C278    1.382   .     A
C273   C284    1.394   .     A
C274   C285    1.394   .     A
C274   H329    1.084   .     S
C274   C279    1.382   .     A
C275   H330    1.084   .     S
C275   C285    1.394   .     A
C275   C280    1.382   .     A
C276   O343    1.284   .     A
C276   O344    1.283   .     A
C276   C283    1.430   .     S
C277   H331    1.084   .     S
C277   C284    1.394   .     A
C277   C281    1.382   .     A
C278   C282    1.417   .     A
C278   O350    1.384   .     S
C279   C283    1.417   .     A
C279   O336    1.384   .     S
C280   O337    1.384   .     S
C280   C283    1.417   .     A
C281   C282    1.417   .     A
C281   O338    1.384   .     S
C285   C196    1.441   1_655 S
C286   O339    1.409   .     S
C286   H306    1.113   .     S
C287   N333    1.361   .     A
C287   H301    1.082   .     S
C287   C298    1.409   .     A
C288   H309    1.111   .     S
C288   C110    1.519   1_565 S
C288   H131    1.110   1_565 S
C288   H1012   1.108   1_554 S
C289   H311    1.115   .     S
C289   C290    1.520   .     S
C289   O340    1.409   .     S
C289   H134    1.112   1_565 S
C290   H313    1.111   .     S
C290   H138    1.110   1_565 S
C290   H139    1.111   1_565 S
C291   O341    1.409   .     S
C291   H317    1.113   .     S
C292   H320    1.111   .     S
C292   C115    1.519   1_565 S
C292   H142    1.110   1_565 S
C292   H671    1.108   .     S
C293   O342    1.409   .     S
C293   C294    1.520   .     S
C293   H322    1.115   .     S
C293   H145    1.112   1_565 S
C294   H324    1.111   .     S
C294   H149    1.111   1_565 S
C294   H150    1.110   1_565 S
C295   N334    1.362   .     A
C295   H312    1.081   .     S
C295   C299    1.410   .     A
C296   C300    1.409   .     A
C296   N333    1.361   .     A
C296   H323    1.082   .     S
C297   H327    1.081   .     S
C297   N334    1.362   .     A
C298   O339    1.381   .     S
C299   O340    1.381   .     S
C300   O341    1.381   .     S
H302   O336    0.988   .     S
H303   O337    0.988   .     S
H304   O338    0.988   .     S
H305   C110    1.111   1_565 S
H308   C640    1.108   .     S
H316   C115    1.111   1_565 S
H319   C996    1.108   1_554 S
H332   O350    0.988   .     S
N333   Zn352   2.008   .     S
N334   Zn351   2.008   .     S
O335   Zn351   1.996   .     S
O343   Zn352   1.996   .     S
O344   Zn351   1.996   .     S
O345   Zn352   1.996   .     S
O346   Zn351   1.954   .     S
O347   Zn352   1.954   .     S
O348   Zn351   1.954   .     S
O349   Zn352   1.954   .     S
C353   C370    1.430   .     S
C353   O423    1.283   .     A
C353   O433    1.284   .     A
C354   C358    1.418   .     A
C354   O430    1.381   .     S
C354   C385    1.410   .     A
C355   O437    1.276   .     A
C355   C359    1.369   .     S
C355   O434    1.276   .     A
C356   C360    1.369   .     S
C356   O436    1.276   .     A
C356   O435    1.276   .     A
C357   C388    1.420   .     A
C357   C386    1.420   .     A
C357   C534    1.517   1_545 S
C358   C387    1.418   .     A
C358   C533    1.517   .     S
C360   C711    1.167   .     S
C361   H416    1.084   .     S
C361   C366    1.382   .     A
C361   C372    1.394   .     A
C362   C373    1.394   .     A
C362   H417    1.084   .     S
C362   C367    1.382   .     A
C363   H418    1.084   .     S
C363   C373    1.394   .     A
C363   C368    1.382   .     A
C364   O431    1.284   .     A
C364   O432    1.283   .     A
C364   C371    1.430   .     S
C365   H419    1.084   .     S
C365   C372    1.394   .     A
C365   C369    1.382   .     A
C366   C370    1.417   .     A
C366   O438    1.384   .     S
C367   C371    1.417   .     A
C367   O424    1.384   .     S
C368   O425    1.384   .     S
C368   C371    1.417   .     A
C369   C370    1.417   .     A
C369   O426    1.384   .     S
C372   C461    1.441   1_455 S
C373   C460    1.441   .     S
C374   O427    1.409   .     S
C374   H394    1.113   .     S
C374   C552    1.519   1_545 S
C374   H569    1.111   1_545 S
C375   N421    1.361   .     A
C375   H389    1.082   .     S
C375   C386    1.409   .     A
C376   H397    1.111   .     S
C376   C550    1.519   .     S
C376   H571    1.110   .     S
C377   H399    1.115   .     S
C377   C378    1.520   .     S
C377   O428    1.409   .     S
C377   H574    1.112   .     S
C378   H401    1.111   .     S
C378   H578    1.110   .     S
C378   H579    1.111   .     S
C379   O429    1.409   .     S
C379   H405    1.113   .     S
C379   C556    1.519   1_545 S
C379   H580    1.111   1_545 S
C380   H408    1.111   .     S
C380   C555    1.519   .     S
C380   H582    1.110   .     S
C380   H759    1.108   .     S
C381   O430    1.409   .     S
C381   C382    1.520   .     S
C381   H410    1.115   .     S
C381   H585    1.112   .     S
C382   H412    1.111   .     S
C382   H589    1.111   .     S
C382   H590    1.110   .     S
C383   N422    1.362   .     A
C383   H400    1.081   .     S
C383   C387    1.410   .     A
C384   C388    1.409   .     A
C384   N421    1.361   .     A
C384   H411    1.082   .     S
C385   H415    1.081   .     S
C385   N422    1.362   .     A
C386   O427    1.381   .     S
C387   O428    1.381   .     S
C388   O429    1.381   .     S
H390   O424    0.988   .     S
H391   O425    0.988   .     S
H392   O426    0.988   .     S
H393   C550    1.111   .     S
H395   C552    1.110   1_545 S
H396   C728    1.108   .     S
H398   C553    1.112   1_545 S
H402   C554    1.110   1_545 S
H403   C554    1.111   1_545 S
H404   C555    1.111   .     S
H406   C556    1.110   1_545 S
H409   C557    1.112   1_545 S
H413   C558    1.111   1_545 S
H414   C558    1.110   1_545 S
H420   O438    0.988   .     S
N421   Zn440   2.008   .     S
N422   Zn439   2.008   .     S
O423   Zn439   1.996   .     S
O431   Zn440   1.996   .     S
O432   Zn439   1.996   .     S
O433   Zn440   1.996   .     S
O434   Zn439   1.954   .     S
O435   Zn440   1.954   .     S
O436   Zn439   1.954   .     S
O437   Zn440   1.954   .     S
C441   C458    1.430   .     S
C441   O511    1.283   .     A
C441   O521    1.284   .     A
C442   C446    1.418   .     A
C442   O518    1.381   .     S
C442   C473    1.410   .     A
C443   O525    1.276   .     A
C443   C447    1.369   .     S
C443   O522    1.276   .     A
C444   C448    1.369   .     S
C444   O524    1.276   .     A
C444   O523    1.276   .     A
C445   C476    1.420   .     A
C445   C474    1.420   .     A
C445   C622    1.517   1_545 S
C446   C475    1.418   .     A
C446   C621    1.517   .     S
C448   C799    1.167   .     S
C449   H504    1.084   .     S
C449   C454    1.382   .     A
C449   C460    1.394   .     A
C450   C461    1.394   .     A
C450   H505    1.084   .     S
C450   C455    1.382   .     A
C451   H506    1.084   .     S
C451   C461    1.394   .     A
C451   C456    1.382   .     A
C452   O519    1.284   .     A
C452   O520    1.283   .     A
C452   C459    1.430   .     S
C453   H507    1.084   .     S
C453   C460    1.394   .     A
C453   C457    1.382   .     A
C454   C458    1.417   .     A
C454   O526    1.384   .     S
C455   C459    1.417   .     A
C455   O512    1.384   .     S
C456   O513    1.384   .     S
C456   C459    1.417   .     A
C457   C458    1.417   .     A
C457   O514    1.384   .     S
C461   C372    1.441   1_655 S
C462   O515    1.409   .     S
C462   H482    1.113   .     S
C462   C640    1.519   1_545 S
C462   H657    1.111   1_545 S
C463   N509    1.361   .     A
C463   H477    1.082   .     S
C463   C474    1.409   .     A
C464   H485    1.111   .     S
C464   C638    1.519   .     S
C464   H659    1.110   .     S
C465   H487    1.115   .     S
C465   C466    1.520   .     S
C465   O516    1.409   .     S
C465   H662    1.112   .     S
C466   H489    1.111   .     S
C466   H666    1.110   .     S
C466   H667    1.111   .     S
C467   O517    1.409   .     S
C467   H493    1.113   .     S
C467   C644    1.519   1_545 S
C467   H668    1.111   1_545 S
C468   H496    1.111   .     S
C468   C643    1.519   .     S
C468   H670    1.110   .     S
C468   H847    1.108   .     S
C469   O518    1.409   .     S
C469   C470    1.520   .     S
C469   H498    1.115   .     S
C469   H673    1.112   .     S
C470   H500    1.111   .     S
C470   H677    1.111   .     S
C470   H678    1.110   .     S
C471   N510    1.362   .     A
C471   H488    1.081   .     S
C471   C475    1.410   .     A
C472   C476    1.409   .     A
C472   N509    1.361   .     A
C472   H499    1.082   .     S
C473   H503    1.081   .     S
C473   N510    1.362   .     A
C474   O515    1.381   .     S
C475   O516    1.381   .     S
C476   O517    1.381   .     S
H478   O512    0.988   .     S
H479   O513    0.988   .     S
H480   O514    0.988   .     S
H481   C638    1.111   .     S
H483   C640    1.110   1_545 S
H484   C816    1.108   .     S
H486   C641    1.112   1_545 S
H490   C642    1.110   1_545 S
H491   C642    1.111   1_545 S
H492   C643    1.111   .     S
H494   C644    1.110   1_545 S
H497   C645    1.112   1_545 S
H501   C646    1.111   1_545 S
H502   C646    1.110   1_545 S
H508   O526    0.988   .     S
N509   Zn528   2.008   .     S
N510   Zn527   2.008   .     S
O511   Zn527   1.996   .     S
O519   Zn528   1.996   .     S
O520   Zn527   1.996   .     S
O521   Zn528   1.996   .     S
O522   Zn527   1.954   .     S
O523   Zn528   1.954   .     S
O524   Zn527   1.954   .     S
O525   Zn528   1.954   .     S
C529   C546    1.430   .     S
C529   O599    1.283   .     A
C529   O609    1.284   .     A
C530   C534    1.418   .     A
C530   O606    1.381   .     S
C530   C561    1.410   .     A
C531   O613    1.276   .     A
C531   C535    1.369   .     S
C531   O610    1.276   .     A
C532   C536    1.369   .     S
C532   O612    1.276   .     A
C532   O611    1.276   .     A
C533   C564    1.420   .     A
C533   C562    1.420   .     A
C534   C563    1.418   .     A
C534   C357    1.517   1_565 S
C536   C887    1.167   .     S
C537   H592    1.084   .     S
C537   C542    1.382   .     A
C537   C548    1.394   .     A
C538   C549    1.394   .     A
C538   H593    1.084   .     S
C538   C543    1.382   .     A
C539   H594    1.084   .     S
C539   C549    1.394   .     A
C539   C544    1.382   .     A
C540   O607    1.284   .     A
C540   O608    1.283   .     A
C540   C547    1.430   .     S
C541   H595    1.084   .     S
C541   C548    1.394   .     A
C541   C545    1.382   .     A
C542   C546    1.417   .     A
C542   O614    1.384   .     S
C543   C547    1.417   .     A
C543   O600    1.384   .     S
C544   O601    1.384   .     S
C544   C547    1.417   .     A
C545   C546    1.417   .     A
C545   O602    1.384   .     S
C548   C637    1.441   1_455 S
C549   C636    1.441   .     S
C550   O603    1.409   .     S
C550   H570    1.113   .     S
C551   N597    1.361   .     A
C551   H565    1.082   .     S
C551   C562    1.409   .     A
C552   H573    1.111   .     S
C552   C374    1.519   1_565 S
C552   H395    1.110   1_565 S
C553   H575    1.115   .     S
C553   C554    1.520   .     S
C553   O604    1.409   .     S
C553   H398    1.112   1_565 S
C554   H577    1.111   .     S
C554   H402    1.110   1_565 S
C554   H403    1.111   1_565 S
C555   O605    1.409   .     S
C555   H581    1.113   .     S
C556   H584    1.111   .     S
C556   C379    1.519   1_565 S
C556   H406    1.110   1_565 S
C556   H935    1.108   .     S
C557   O606    1.409   .     S
C557   C558    1.520   .     S
C557   H586    1.115   .     S
C557   H409    1.112   1_565 S
C558   H588    1.111   .     S
C558   H413    1.111   1_565 S
C558   H414    1.110   1_565 S
C559   N598    1.362   .     A
C559   H576    1.081   .     S
C559   C563    1.410   .     A
C560   C564    1.409   .     A
C560   N597    1.361   .     A
C560   H587    1.082   .     S
C561   H591    1.081   .     S
C561   N598    1.362   .     A
C562   O603    1.381   .     S
C563   O604    1.381   .     S
C564   O605    1.381   .     S
H566   O600    0.988   .     S
H567   O601    0.988   .     S
H568   O602    0.988   .     S
H569   C374    1.111   1_565 S
H572   C904    1.108   .     S
H580   C379    1.111   1_565 S
H596   O614    0.988   .     S
N597   Zn616   2.008   .     S
N598   Zn615   2.008   .     S
O599   Zn615   1.996   .     S
O607   Zn616   1.996   .     S
O608   Zn615   1.996   .     S
O609   Zn616   1.996   .     S
O610   Zn615   1.954   .     S
O611   Zn616   1.954   .     S
O612   Zn615   1.954   .     S
O613   Zn616   1.954   .     S
C617   C634    1.430   .     S
C617   O687    1.283   .     A
C617   O697    1.284   .     A
C618   C622    1.418   .     A
C618   O694    1.381   .     S
C618   C649    1.410   .     A
C619   O701    1.276   .     A
C619   C623    1.369   .     S
C619   O698    1.276   .     A
C620   C624    1.369   .     S
C620   O700    1.276   .     A
C620   O699    1.276   .     A
C621   C652    1.420   .     A
C621   C650    1.420   .     A
C622   C651    1.418   .     A
C622   C445    1.517   1_565 S
C624   C975    1.167   .     S
C625   H680    1.084   .     S
C625   C630    1.382   .     A
C625   C636    1.394   .     A
C626   C637    1.394   .     A
C626   H681    1.084   .     S
C626   C631    1.382   .     A
C627   H682    1.084   .     S
C627   C637    1.394   .     A
C627   C632    1.382   .     A
C628   O695    1.284   .     A
C628   O696    1.283   .     A
C628   C635    1.430   .     S
C629   H683    1.084   .     S
C629   C636    1.394   .     A
C629   C633    1.382   .     A
C630   C634    1.417   .     A
C630   O702    1.384   .     S
C631   C635    1.417   .     A
C631   O688    1.384   .     S
C632   O689    1.384   .     S
C632   C635    1.417   .     A
C633   C634    1.417   .     A
C633   O690    1.384   .     S
C637   C548    1.441   1_655 S
C638   O691    1.409   .     S
C638   H658    1.113   .     S
C639   N685    1.361   .     A
C639   H653    1.082   .     S
C639   C650    1.409   .     A
C640   H661    1.111   .     S
C640   C462    1.519   1_565 S
C640   H483    1.110   1_565 S
C641   H663    1.115   .     S
C641   C642    1.520   .     S
C641   O692    1.409   .     S
C641   H486    1.112   1_565 S
C642   H665    1.111   .     S
C642   H490    1.110   1_565 S
C642   H491    1.111   1_565 S
C643   O693    1.409   .     S
C643   H669    1.113   .     S
C644   H672    1.111   .     S
C644   C467    1.519   1_565 S
C644   H494    1.110   1_565 S
C644   H1023   1.108   .     S
C645   O694    1.409   .     S
C645   C646    1.520   .     S
C645   H674    1.115   .     S
C645   H497    1.112   1_565 S
C646   H676    1.111   .     S
C646   H501    1.111   1_565 S
C646   H502    1.110   1_565 S
C647   N686    1.362   .     A
C647   H664    1.081   .     S
C647   C651    1.410   .     A
C648   C652    1.409   .     A
C648   N685    1.361   .     A
C648   H675    1.082   .     S
C649   H679    1.081   .     S
C649   N686    1.362   .     A
C650   O691    1.381   .     S
C651   O692    1.381   .     S
C652   O693    1.381   .     S
H654   O688    0.988   .     S
H655   O689    0.988   .     S
H656   O690    0.988   .     S
H657   C462    1.111   1_565 S
H660   C992    1.108   .     S
H668   C467    1.111   1_565 S
H684   O702    0.988   .     S
N685   Zn704   2.008   .     S
N686   Zn703   2.008   .     S
O687   Zn703   1.996   .     S
O695   Zn704   1.996   .     S
O696   Zn703   1.996   .     S
O697   Zn704   1.996   .     S
O698   Zn703   1.954   .     S
O699   Zn704   1.954   .     S
O700   Zn703   1.954   .     S
O701   Zn704   1.954   .     S
C705   C722    1.430   .     S
C705   O775    1.283   .     A
C705   O785    1.284   .     A
C706   C710    1.418   .     A
C706   O782    1.381   .     S
C706   C737    1.410   .     A
C707   O789    1.276   .     A
C707   C711    1.369   .     S
C707   O786    1.276   .     A
C708   C712    1.369   .     S
C708   O788    1.276   .     A
C708   O787    1.276   .     A
C709   C740    1.420   .     A
C709   C738    1.420   .     A
C709   C886    1.517   1_545 S
C710   C739    1.418   .     A
C710   C885    1.517   .     S
C712   C7      1.167   1_556 S
C713   H768    1.084   .     S
C713   C718    1.382   .     A
C713   C724    1.394   .     A
C714   C725    1.394   .     A
C714   H769    1.084   .     S
C714   C719    1.382   .     A
C715   H770    1.084   .     S
C715   C725    1.394   .     A
C715   C720    1.382   .     A
C716   O783    1.284   .     A
C716   O784    1.283   .     A
C716   C723    1.430   .     S
C717   H771    1.084   .     S
C717   C724    1.394   .     A
C717   C721    1.382   .     A
C718   C722    1.417   .     A
C718   O790    1.384   .     S
C719   C723    1.417   .     A
C719   O776    1.384   .     S
C720   O777    1.384   .     S
C720   C723    1.417   .     A
C721   C722    1.417   .     A
C721   O778    1.384   .     S
C724   C813    1.441   1_455 S
C725   C812    1.441   .     S
C726   O779    1.409   .     S
C726   H746    1.113   .     S
C726   C904    1.519   1_545 S
C726   H921    1.111   1_545 S
C727   N773    1.361   .     A
C727   H741    1.082   .     S
C727   C738    1.409   .     A
C728   H749    1.111   .     S
C728   C902    1.519   .     S
C728   H923    1.110   .     S
C729   H751    1.115   .     S
C729   C730    1.520   .     S
C729   O780    1.409   .     S
C729   H926    1.112   .     S
C730   H753    1.111   .     S
C730   H930    1.110   .     S
C730   H931    1.111   .     S
C731   O781    1.409   .     S
C731   H757    1.113   .     S
C731   C908    1.519   1_545 S
C731   H932    1.111   1_545 S
C732   H760    1.111   .     S
C732   C907    1.519   .     S
C732   H934    1.110   .     S
C732   H55     1.108   1_556 S
C733   O782    1.409   .     S
C733   C734    1.520   .     S
C733   H762    1.115   .     S
C733   H937    1.112   .     S
C734   H764    1.111   .     S
C734   H941    1.111   .     S
C734   H942    1.110   .     S
C735   N774    1.362   .     A
C735   H752    1.081   .     S
C735   C739    1.410   .     A
C736   C740    1.409   .     A
C736   N773    1.361   .     A
C736   H763    1.082   .     S
C737   H767    1.081   .     S
C737   N774    1.362   .     A
C738   O779    1.381   .     S
C739   O780    1.381   .     S
C740   O781    1.381   .     S
H742   O776    0.988   .     S
H743   O777    0.988   .     S
H744   O778    0.988   .     S
H745   C902    1.111   .     S
H747   C904    1.110   1_545 S
H748   C24     1.108   1_556 S
H750   C905    1.112   1_545 S
H754   C906    1.110   1_545 S
H755   C906    1.111   1_545 S
H756   C907    1.111   .     S
H758   C908    1.110   1_545 S
H761   C909    1.112   1_545 S
H765   C910    1.111   1_545 S
H766   C910    1.110   1_545 S
H772   O790    0.988   .     S
N773   Zn792   2.008   .     S
N774   Zn791   2.008   .     S
O775   Zn791   1.996   .     S
O783   Zn792   1.996   .     S
O784   Zn791   1.996   .     S
O785   Zn792   1.996   .     S
O786   Zn791   1.954   .     S
O787   Zn792   1.954   .     S
O788   Zn791   1.954   .     S
O789   Zn792   1.954   .     S
C793   C810    1.430   .     S
C793   O863    1.283   .     A
C793   O873    1.284   .     A
C794   C798    1.418   .     A
C794   O870    1.381   .     S
C794   C825    1.410   .     A
C795   O877    1.276   .     A
C795   C799    1.369   .     S
C795   O874    1.276   .     A
C796   C800    1.369   .     S
C796   O876    1.276   .     A
C796   O875    1.276   .     A
C797   C828    1.420   .     A
C797   C826    1.420   .     A
C797   C974    1.517   1_545 S
C798   C827    1.418   .     A
C798   C973    1.517   .     S
C800   C95     1.167   1_556 S
C801   H856    1.084   .     S
C801   C806    1.382   .     A
C801   C812    1.394   .     A
C802   C813    1.394   .     A
C802   H857    1.084   .     S
C802   C807    1.382   .     A
C803   H858    1.084   .     S
C803   C813    1.394   .     A
C803   C808    1.382   .     A
C804   O871    1.284   .     A
C804   O872    1.283   .     A
C804   C811    1.430   .     S
C805   H859    1.084   .     S
C805   C812    1.394   .     A
C805   C809    1.382   .     A
C806   C810    1.417   .     A
C806   O878    1.384   .     S
C807   C811    1.417   .     A
C807   O864    1.384   .     S
C808   O865    1.384   .     S
C808   C811    1.417   .     A
C809   C810    1.417   .     A
C809   O866    1.384   .     S
C813   C724    1.441   1_655 S
C814   O867    1.409   .     S
C814   H834    1.113   .     S
C814   C992    1.519   1_545 S
C814   H1009   1.111   1_545 S
C815   N861    1.361   .     A
C815   H829    1.082   .     S
C815   C826    1.409   .     A
C816   H837    1.111   .     S
C816   C990    1.519   .     S
C816   H1011   1.110   .     S
C817   H839    1.115   .     S
C817   C818    1.520   .     S
C817   O868    1.409   .     S
C817   H1014   1.112   .     S
C818   H841    1.111   .     S
C818   H1018   1.110   .     S
C818   H1019   1.111   .     S
C819   O869    1.409   .     S
C819   H845    1.113   .     S
C819   C996    1.519   1_545 S
C819   H1020   1.111   1_545 S
C820   H848    1.111   .     S
C820   C995    1.519   .     S
C820   H1022   1.110   .     S
C820   H143    1.108   1_556 S
C821   O870    1.409   .     S
C821   C822    1.520   .     S
C821   H850    1.115   .     S
C821   H1025   1.112   .     S
C822   H852    1.111   .     S
C822   H1029   1.111   .     S
C822   H1030   1.110   .     S
C823   N862    1.362   .     A
C823   H840    1.081   .     S
C823   C827    1.410   .     A
C824   C828    1.409   .     A
C824   N861    1.361   .     A
C824   H851    1.082   .     S
C825   H855    1.081   .     S
C825   N862    1.362   .     A
C826   O867    1.381   .     S
C827   O868    1.381   .     S
C828   O869    1.381   .     S
H830   O864    0.988   .     S
H831   O865    0.988   .     S
H832   O866    0.988   .     S
H833   C990    1.111   .     S
H835   C992    1.110   1_545 S
H836   C112    1.108   1_556 S
H838   C993    1.112   1_545 S
H842   C994    1.110   1_545 S
H843   C994    1.111   1_545 S
H844   C995    1.111   .     S
H846   C996    1.110   1_545 S
H849   C997    1.112   1_545 S
H853   C998    1.111   1_545 S
H854   C998    1.110   1_545 S
H860   O878    0.988   .     S
N861   Zn880   2.008   .     S
N862   Zn879   2.008   .     S
O863   Zn879   1.996   .     S
O871   Zn880   1.996   .     S
O872   Zn879   1.996   .     S
O873   Zn880   1.996   .     S
O874   Zn879   1.954   .     S
O875   Zn880   1.954   .     S
O876   Zn879   1.954   .     S
O877   Zn880   1.954   .     S
C881   C898    1.430   .     S
C881   O951    1.283   .     A
C881   O961    1.284   .     A
C882   C886    1.418   .     A
C882   O958    1.381   .     S
C882   C913    1.410   .     A
C883   O965    1.276   .     A
C883   C887    1.369   .     S
C883   O962    1.276   .     A
C884   C888    1.369   .     S
C884   O964    1.276   .     A
C884   O963    1.276   .     A
C885   C916    1.420   .     A
C885   C914    1.420   .     A
C886   C915    1.418   .     A
C886   C709    1.517   1_565 S
C888   C183    1.167   1_556 S
C889   H944    1.084   .     S
C889   C894    1.382   .     A
C889   C900    1.394   .     A
C890   C901    1.394   .     A
C890   H945    1.084   .     S
C890   C895    1.382   .     A
C891   H946    1.084   .     S
C891   C901    1.394   .     A
C891   C896    1.382   .     A
C892   O959    1.284   .     A
C892   O960    1.283   .     A
C892   C899    1.430   .     S
C893   H947    1.084   .     S
C893   C900    1.394   .     A
C893   C897    1.382   .     A
C894   C898    1.417   .     A
C894   O966    1.384   .     S
C895   C899    1.417   .     A
C895   O952    1.384   .     S
C896   O953    1.384   .     S
C896   C899    1.417   .     A
C897   C898    1.417   .     A
C897   O954    1.384   .     S
C900   C989    1.441   1_455 S
C901   C988    1.441   .     S
C902   O955    1.409   .     S
C902   H922    1.113   .     S
C903   N949    1.361   .     A
C903   H917    1.082   .     S
C903   C914    1.409   .     A
C904   H925    1.111   .     S
C904   C726    1.519   1_565 S
C904   H747    1.110   1_565 S
C905   H927    1.115   .     S
C905   C906    1.520   .     S
C905   O956    1.409   .     S
C905   H750    1.112   1_565 S
C906   H929    1.111   .     S
C906   H754    1.110   1_565 S
C906   H755    1.111   1_565 S
C907   O957    1.409   .     S
C907   H933    1.113   .     S
C908   H936    1.111   .     S
C908   C731    1.519   1_565 S
C908   H758    1.110   1_565 S
C908   H231    1.108   1_556 S
C909   O958    1.409   .     S
C909   C910    1.520   .     S
C909   H938    1.115   .     S
C909   H761    1.112   1_565 S
C910   H940    1.111   .     S
C910   H765    1.111   1_565 S
C910   H766    1.110   1_565 S
C911   N950    1.362   .     A
C911   H928    1.081   .     S
C911   C915    1.410   .     A
C912   C916    1.409   .     A
C912   N949    1.361   .     A
C912   H939    1.082   .     S
C913   H943    1.081   .     S
C913   N950    1.362   .     A
C914   O955    1.381   .     S
C915   O956    1.381   .     S
C916   O957    1.381   .     S
H918   O952    0.988   .     S
H919   O953    0.988   .     S
H920   O954    0.988   .     S
H921   C726    1.111   1_565 S
H924   C200    1.108   1_556 S
H932   C731    1.111   1_565 S
H948   O966    0.988   .     S
N949   Zn968   2.008   .     S
N950   Zn967   2.008   .     S
O951   Zn967   1.996   .     S
O959   Zn968   1.996   .     S
O960   Zn967   1.996   .     S
O961   Zn968   1.996   .     S
O962   Zn967   1.954   .     S
O963   Zn968   1.954   .     S
O964   Zn967   1.954   .     S
O965   Zn968   1.954   .     S
C969   C986    1.430   .     S
C969   O1039   1.283   .     A
C969   O1049   1.284   .     A
C970   C974    1.418   .     A
C970   O1046   1.381   .     S
C970   C1001   1.410   .     A
C971   O1053   1.276   .     A
C971   C975    1.369   .     S
C971   O1050   1.276   .     A
C972   C976    1.369   .     S
C972   O1052   1.276   .     A
C972   O1051   1.276   .     A
C973   C1004   1.420   .     A
C973   C1002   1.420   .     A
C974   C1003   1.418   .     A
C974   C797    1.517   1_565 S
C976   C271    1.167   1_556 S
C977   H1032   1.084   .     S
C977   C982    1.382   .     A
C977   C988    1.394   .     A
C978   C989    1.394   .     A
C978   H1033   1.084   .     S
C978   C983    1.382   .     A
C979   H1034   1.084   .     S
C979   C989    1.394   .     A
C979   C984    1.382   .     A
C980   O1047   1.284   .     A
C980   O1048   1.283   .     A
C980   C987    1.430   .     S
C981   H1035   1.084   .     S
C981   C988    1.394   .     A
C981   C985    1.382   .     A
C982   C986    1.417   .     A
C982   O1054   1.384   .     S
C983   C987    1.417   .     A
C983   O1040   1.384   .     S
C984   O1041   1.384   .     S
C984   C987    1.417   .     A
C985   C986    1.417   .     A
C985   O1042   1.384   .     S
C989   C900    1.441   1_655 S
C990   O1043   1.409   .     S
C990   H1010   1.113   .     S
C991   N1037   1.361   .     A
C991   H1005   1.082   .     S
C991   C1002   1.409   .     A
C992   H1013   1.111   .     S
C992   C814    1.519   1_565 S
C992   H835    1.110   1_565 S
C993   H1015   1.115   .     S
C993   C994    1.520   .     S
C993   O1044   1.409   .     S
C993   H838    1.112   1_565 S
C994   H1017   1.111   .     S
C994   H842    1.110   1_565 S
C994   H843    1.111   1_565 S
C995   O1045   1.409   .     S
C995   H1021   1.113   .     S
C996   H1024   1.111   .     S
C996   C819    1.519   1_565 S
C996   H846    1.110   1_565 S
C996   H319    1.108   1_556 S
C997   O1046   1.409   .     S
C997   C998    1.520   .     S
C997   H1026   1.115   .     S
C997   H849    1.112   1_565 S
C998   H1028   1.111   .     S
C998   H853    1.111   1_565 S
C998   H854    1.110   1_565 S
C999   N1038   1.362   .     A
C999   H1016   1.081   .     S
C999   C1003   1.410   .     A
C1000  C1004   1.409   .     A
C1000  N1037   1.361   .     A
C1000  H1027   1.082   .     S
C1001  H1031   1.081   .     S
C1001  N1038   1.362   .     A
C1002  O1043   1.381   .     S
C1003  O1044   1.381   .     S
C1004  O1045   1.381   .     S
H1006  O1040   0.988   .     S
H1007  O1041   0.988   .     S
H1008  O1042   0.988   .     S
H1009  C814    1.111   1_565 S
H1012  C288    1.108   1_556 S
H1020  C819    1.111   1_565 S
H1036  O1054   0.988   .     S
N1037  Zn1056  2.008   .     S
N1038  Zn1055  2.008   .     S
O1039  Zn1055  1.996   .     S
O1047  Zn1056  1.996   .     S
O1048  Zn1055  1.996   .     S
O1049  Zn1056  1.996   .     S
O1050  Zn1055  1.954   .     S
O1051  Zn1056  1.954   .     S
O1052  Zn1055  1.954   .     S
O1053  Zn1056  1.954   .     S
