data_str_m3_o1_o17_pcu_sym.202
_audit_creation_date              2020-01-03
_audit_creation_method            'Materials Studio'
_symmetry_space_group_name_H-M    'P1'
_symmetry_Int_Tables_number       1
_symmetry_cell_setting            triclinic
loop_
_symmetry_equiv_pos_as_xyz
  x,y,z
_cell_length_a                    32.1212
_cell_length_b                    29.4819
_cell_length_c                    29.9598
_cell_angle_alpha                 89.8663
_cell_angle_beta                  90.3299
_cell_angle_gamma                 89.9627
loop_
_atom_site_label
_atom_site_type_symbol
_atom_site_fract_x
_atom_site_fract_y
_atom_site_fract_z
_atom_site_U_iso_or_equiv
_atom_site_adp_type
_atom_site_occupancy
C1     C     0.08662   0.16667   0.25000   0.00000  Uiso   1.00
C2     C     0.24671   0.16666   0.24999   0.00000  Uiso   1.00
C3     C     0.11420   0.10848   0.02616   0.00000  Uiso   1.00
C4     C     0.21912   0.22487   0.47384   0.00000  Uiso   1.00
C5     C     0.02140   0.12679   0.26096   0.00000  Uiso   1.00
C6     C     0.31193   0.20654   0.23897   0.00000  Uiso   1.00
C7     C     0.31209   0.12677   0.26091   0.00000  Uiso   1.00
C8     C     0.02124   0.20656   0.23902   0.00000  Uiso   1.00
C9     C     0.29085   0.16665   0.24994   0.00000  Uiso   1.00
C10    C     0.04248   0.16668   0.25002   0.00000  Uiso   1.00
C11    C     0.19294   0.02391   0.27747   0.00000  Uiso   1.00
C12    C     0.14040   0.30942   0.22253   0.00000  Uiso   1.00
C13    C     0.14042   0.02408   0.22251   0.00000  Uiso   1.00
C14    C     0.19292   0.30925   0.27749   0.00000  Uiso   1.00
C15    C     0.16822   0.16679   0.16350   0.00000  Uiso   1.00
C16    C     0.16511   0.16655   0.33650   0.00000  Uiso   1.00
C17    C     0.18973   0.19552   0.40639   0.00000  Uiso   1.00
C18    C     0.14360   0.13782   0.09362   0.00000  Uiso   1.00
C19    C     0.16277   0.16631   0.38424   0.00000  Uiso   1.00
C20    C     0.17056   0.16703   0.11576   0.00000  Uiso   1.00
C21    C     0.13526   0.13718   0.40737   0.00000  Uiso   1.00
C22    C     0.19806   0.19616   0.09263   0.00000  Uiso   1.00
C23    C     0.13714   0.13696   0.45444   0.00000  Uiso   1.00
C24    C     0.19619   0.19638   0.04556   0.00000  Uiso   1.00
C25    C     0.16545   0.16649   0.47664   0.00000  Uiso   1.00
C26    C     0.16788   0.16685   0.02336   0.00000  Uiso   1.00
C27    C     0.19137   0.19583   0.45225   0.00000  Uiso   1.00
C28    C     0.14196   0.13752   0.04775   0.00000  Uiso   1.00
C29    C     0.11169   0.10817   0.48007   0.00000  Uiso   1.00
C30    C     0.22163   0.22518   0.01993   0.00000  Uiso   1.00
H31    H     0.21036   0.21749   0.38754   0.00000  Uiso   1.00
H32    H     0.12297   0.11585   0.11246   0.00000  Uiso   1.00
H33    H     0.08971   0.08489   0.46533   0.00000  Uiso   1.00
H34    H     0.24361   0.24847   0.03467   0.00000  Uiso   1.00
H35    H     0.09423   0.08594   0.04503   0.00000  Uiso   1.00
H36    H     0.23908   0.24742   0.45497   0.00000  Uiso   1.00
H37    H     0.03774   0.09587   0.26979   0.00000  Uiso   1.00
H38    H     0.29560   0.23747   0.23010   0.00000  Uiso   1.00
H39    H     0.29587   0.09584   0.26976   0.00000  Uiso   1.00
H40    H     0.03746   0.23750   0.23015   0.00000  Uiso   1.00
H41    H     0.21390   0.04207   0.29943   0.00000  Uiso   1.00
H42    H     0.11943   0.29126   0.20057   0.00000  Uiso   1.00
H43    H     0.11944   0.04237   0.20056   0.00000  Uiso   1.00
H44    H     0.21389   0.29096   0.29944   0.00000  Uiso   1.00
N45    N     0.16667   0.28573   0.25000   0.00000  Uiso   1.00
N46    N     0.16667   0.04760   0.25000   0.00000  Uiso   1.00
O47    O     0.10559   0.20487   0.25000   0.00000  Uiso   1.00
O48    O     0.22774   0.12846   0.25001   0.00000  Uiso   1.00
O49    O     0.22774   0.20487   0.25001   0.00000  Uiso   1.00
O50    O     0.10559   0.12846   0.25000   0.00000  Uiso   1.00
O51    O     0.16666   0.20489   0.18393   0.00000  Uiso   1.00
O52    O     0.16667   0.12844   0.31608   0.00000  Uiso   1.00
O53    O     0.16667   0.20489   0.31608   0.00000  Uiso   1.00
O54    O     0.16666   0.12844   0.18393   0.00000  Uiso   1.00
Zn55   Zn    0.16667   0.21771   0.25000   0.00000  Uiso   1.00
Zn56   Zn    0.16667   0.11563   0.25000   0.00000  Uiso   1.00
C57    C     0.10355   0.10830   0.38193   0.00000  Uiso   1.00
C58    C     0.11890   0.05919   0.37660   0.00000  Uiso   1.00
C59    C     0.09084   0.03244   0.34494   0.00000  Uiso   1.00
H60    H     0.05840   0.03189   0.35757   0.00000  Uiso   1.00
H61    H     0.09121   0.04791   0.31112   0.00000  Uiso   1.00
H62    H     0.10233   0.33034   0.34238   0.00000  Uiso   1.00
H63    H     0.15107   0.05879   0.36327   0.00000  Uiso   1.00
H64    H     0.11965   0.04176   0.40946   0.00000  Uiso   1.00
H65    H     0.07283   0.10901   0.39870   0.00000  Uiso   1.00
H66    H     0.09662   0.12316   0.34864   0.00000  Uiso   1.00
C67    C     0.22978   0.22505   0.11807   0.00000  Uiso   1.00
C68    C     0.21441   0.27416   0.12340   0.00000  Uiso   1.00
C69    C     0.24246   0.30092   0.15505   0.00000  Uiso   1.00
H70    H     0.24209   0.28547   0.18888   0.00000  Uiso   1.00
H71    H     0.27490   0.30146   0.14243   0.00000  Uiso   1.00
H72    H     0.23098   0.00302   0.15760   0.00000  Uiso   1.00
H73    H     0.21365   0.29159   0.09054   0.00000  Uiso   1.00
H74    H     0.18223   0.27454   0.13674   0.00000  Uiso   1.00
H75    H     0.23670   0.21020   0.15136   0.00000  Uiso   1.00
H76    H     0.26049   0.22435   0.10130   0.00000  Uiso   1.00
C77    C     0.41995   0.16667   0.25000   0.00000  Uiso   1.00
C78    C     0.58005   0.16666   0.24999   0.00000  Uiso   1.00
C79    C     0.44753   0.10848   0.02616   0.00000  Uiso   1.00
C80    C     0.55245   0.22487   0.47384   0.00000  Uiso   1.00
C81    C     0.35474   0.12679   0.26096   0.00000  Uiso   1.00
C82    C     0.64526   0.20654   0.23897   0.00000  Uiso   1.00
C83    C     0.64542   0.12677   0.26091   0.00000  Uiso   1.00
C84    C     0.35457   0.20656   0.23902   0.00000  Uiso   1.00
C85    C     0.62418   0.16665   0.24994   0.00000  Uiso   1.00
C86    C     0.37582   0.16668   0.25002   0.00000  Uiso   1.00
C87    C     0.52627   0.02391   0.27747   0.00000  Uiso   1.00
C88    C     0.47373   0.30942   0.22253   0.00000  Uiso   1.00
C89    C     0.47375   0.02408   0.22251   0.00000  Uiso   1.00
C90    C     0.52625   0.30925   0.27749   0.00000  Uiso   1.00
C91    C     0.50156   0.16679   0.16350   0.00000  Uiso   1.00
C92    C     0.49844   0.16655   0.33650   0.00000  Uiso   1.00
C93    C     0.52306   0.19552   0.40639   0.00000  Uiso   1.00
C94    C     0.47693   0.13782   0.09362   0.00000  Uiso   1.00
C95    C     0.49610   0.16631   0.38424   0.00000  Uiso   1.00
C96    C     0.50389   0.16703   0.11576   0.00000  Uiso   1.00
C97    C     0.46860   0.13718   0.40737   0.00000  Uiso   1.00
C98    C     0.53140   0.19616   0.09263   0.00000  Uiso   1.00
C99    C     0.47047   0.13696   0.45444   0.00000  Uiso   1.00
C100   C     0.52952   0.19638   0.04556   0.00000  Uiso   1.00
C101   C     0.49878   0.16649   0.47664   0.00000  Uiso   1.00
C102   C     0.50121   0.16685   0.02336   0.00000  Uiso   1.00
C103   C     0.52470   0.19583   0.45225   0.00000  Uiso   1.00
C104   C     0.47529   0.13752   0.04775   0.00000  Uiso   1.00
C105   C     0.44503   0.10817   0.48007   0.00000  Uiso   1.00
C106   C     0.55496   0.22518   0.01993   0.00000  Uiso   1.00
H107   H     0.54369   0.21749   0.38754   0.00000  Uiso   1.00
H108   H     0.45630   0.11585   0.11246   0.00000  Uiso   1.00
H109   H     0.42304   0.08489   0.46533   0.00000  Uiso   1.00
H110   H     0.57694   0.24847   0.03467   0.00000  Uiso   1.00
H111   H     0.42756   0.08594   0.04503   0.00000  Uiso   1.00
H112   H     0.57242   0.24742   0.45497   0.00000  Uiso   1.00
H113   H     0.37107   0.09587   0.26979   0.00000  Uiso   1.00
H114   H     0.62893   0.23747   0.23010   0.00000  Uiso   1.00
H115   H     0.62921   0.09584   0.26976   0.00000  Uiso   1.00
H116   H     0.37079   0.23750   0.23015   0.00000  Uiso   1.00
H117   H     0.54724   0.04207   0.29943   0.00000  Uiso   1.00
H118   H     0.45276   0.29126   0.20057   0.00000  Uiso   1.00
H119   H     0.45277   0.04237   0.20056   0.00000  Uiso   1.00
H120   H     0.54723   0.29096   0.29944   0.00000  Uiso   1.00
N121   N     0.50000   0.28573   0.25000   0.00000  Uiso   1.00
N122   N     0.50000   0.04760   0.25000   0.00000  Uiso   1.00
O123   O     0.43892   0.20487   0.25000   0.00000  Uiso   1.00
O124   O     0.56108   0.12846   0.25001   0.00000  Uiso   1.00
O125   O     0.56108   0.20487   0.25001   0.00000  Uiso   1.00
O126   O     0.43892   0.12846   0.25000   0.00000  Uiso   1.00
O127   O     0.49999   0.20489   0.18393   0.00000  Uiso   1.00
O128   O     0.50001   0.12844   0.31608   0.00000  Uiso   1.00
O129   O     0.50001   0.20489   0.31608   0.00000  Uiso   1.00
O130   O     0.49999   0.12844   0.18393   0.00000  Uiso   1.00
Zn131  Zn    0.50000   0.21771   0.25000   0.00000  Uiso   1.00
Zn132  Zn    0.50000   0.11563   0.25000   0.00000  Uiso   1.00
C133   C     0.43688   0.10830   0.38193   0.00000  Uiso   1.00
C134   C     0.45223   0.05919   0.37660   0.00000  Uiso   1.00
C135   C     0.42417   0.03244   0.34494   0.00000  Uiso   1.00
H136   H     0.39173   0.03189   0.35757   0.00000  Uiso   1.00
H137   H     0.42455   0.04791   0.31112   0.00000  Uiso   1.00
H138   H     0.43566   0.33034   0.34238   0.00000  Uiso   1.00
H139   H     0.48441   0.05879   0.36327   0.00000  Uiso   1.00
H140   H     0.45298   0.04176   0.40946   0.00000  Uiso   1.00
H141   H     0.40617   0.10901   0.39870   0.00000  Uiso   1.00
H142   H     0.42996   0.12316   0.34864   0.00000  Uiso   1.00
C143   C     0.56311   0.22505   0.11807   0.00000  Uiso   1.00
C144   C     0.54774   0.27416   0.12340   0.00000  Uiso   1.00
C145   C     0.57580   0.30092   0.15505   0.00000  Uiso   1.00
H146   H     0.57542   0.28547   0.18888   0.00000  Uiso   1.00
H147   H     0.60824   0.30146   0.14243   0.00000  Uiso   1.00
H148   H     0.56431   0.00302   0.15760   0.00000  Uiso   1.00
H149   H     0.54698   0.29159   0.09054   0.00000  Uiso   1.00
H150   H     0.51556   0.27454   0.13674   0.00000  Uiso   1.00
H151   H     0.57004   0.21020   0.15136   0.00000  Uiso   1.00
H152   H     0.59382   0.22435   0.10130   0.00000  Uiso   1.00
C153   C     0.75328   0.16667   0.25000   0.00000  Uiso   1.00
C154   C     0.91338   0.16666   0.24999   0.00000  Uiso   1.00
C155   C     0.78086   0.10848   0.02616   0.00000  Uiso   1.00
C156   C     0.88579   0.22487   0.47384   0.00000  Uiso   1.00
C157   C     0.68807   0.12679   0.26096   0.00000  Uiso   1.00
C158   C     0.97860   0.20654   0.23897   0.00000  Uiso   1.00
C159   C     0.97876   0.12677   0.26091   0.00000  Uiso   1.00
C160   C     0.68791   0.20656   0.23902   0.00000  Uiso   1.00
C161   C     0.95752   0.16665   0.24994   0.00000  Uiso   1.00
C162   C     0.70915   0.16668   0.25002   0.00000  Uiso   1.00
C163   C     0.85960   0.02391   0.27747   0.00000  Uiso   1.00
C164   C     0.80706   0.30942   0.22253   0.00000  Uiso   1.00
C165   C     0.80708   0.02408   0.22251   0.00000  Uiso   1.00
C166   C     0.85958   0.30925   0.27749   0.00000  Uiso   1.00
C167   C     0.83489   0.16679   0.16350   0.00000  Uiso   1.00
C168   C     0.83178   0.16655   0.33650   0.00000  Uiso   1.00
C169   C     0.85640   0.19552   0.40639   0.00000  Uiso   1.00
C170   C     0.81026   0.13782   0.09362   0.00000  Uiso   1.00
C171   C     0.82944   0.16631   0.38424   0.00000  Uiso   1.00
C172   C     0.83723   0.16703   0.11576   0.00000  Uiso   1.00
C173   C     0.80193   0.13718   0.40737   0.00000  Uiso   1.00
C174   C     0.86473   0.19616   0.09263   0.00000  Uiso   1.00
C175   C     0.80380   0.13696   0.45444   0.00000  Uiso   1.00
C176   C     0.86285   0.19638   0.04556   0.00000  Uiso   1.00
C177   C     0.83212   0.16649   0.47664   0.00000  Uiso   1.00
C178   C     0.83454   0.16685   0.02336   0.00000  Uiso   1.00
C179   C     0.85803   0.19583   0.45225   0.00000  Uiso   1.00
C180   C     0.80863   0.13752   0.04775   0.00000  Uiso   1.00
C181   C     0.77836   0.10817   0.48007   0.00000  Uiso   1.00
C182   C     0.88829   0.22518   0.01993   0.00000  Uiso   1.00
H183   H     0.87702   0.21749   0.38754   0.00000  Uiso   1.00
H184   H     0.78964   0.11585   0.11246   0.00000  Uiso   1.00
H185   H     0.75637   0.08489   0.46533   0.00000  Uiso   1.00
H186   H     0.91028   0.24847   0.03467   0.00000  Uiso   1.00
H187   H     0.76089   0.08594   0.04503   0.00000  Uiso   1.00
H188   H     0.90575   0.24742   0.45497   0.00000  Uiso   1.00
H189   H     0.70440   0.09587   0.26979   0.00000  Uiso   1.00
H190   H     0.96226   0.23747   0.23010   0.00000  Uiso   1.00
H191   H     0.96254   0.09584   0.26976   0.00000  Uiso   1.00
H192   H     0.70413   0.23750   0.23015   0.00000  Uiso   1.00
H193   H     0.88057   0.04207   0.29943   0.00000  Uiso   1.00
H194   H     0.78610   0.29126   0.20057   0.00000  Uiso   1.00
H195   H     0.78611   0.04237   0.20056   0.00000  Uiso   1.00
H196   H     0.88056   0.29096   0.29944   0.00000  Uiso   1.00
N197   N     0.83333   0.28573   0.25000   0.00000  Uiso   1.00
N198   N     0.83333   0.04760   0.25000   0.00000  Uiso   1.00
O199   O     0.77226   0.20487   0.25000   0.00000  Uiso   1.00
O200   O     0.89441   0.12846   0.25001   0.00000  Uiso   1.00
O201   O     0.89441   0.20487   0.25001   0.00000  Uiso   1.00
O202   O     0.77226   0.12846   0.25000   0.00000  Uiso   1.00
O203   O     0.83333   0.20489   0.18393   0.00000  Uiso   1.00
O204   O     0.83334   0.12844   0.31608   0.00000  Uiso   1.00
O205   O     0.83334   0.20489   0.31608   0.00000  Uiso   1.00
O206   O     0.83333   0.12844   0.18393   0.00000  Uiso   1.00
Zn207  Zn    0.83333   0.21771   0.25000   0.00000  Uiso   1.00
Zn208  Zn    0.83333   0.11563   0.25000   0.00000  Uiso   1.00
C209   C     0.77021   0.10830   0.38193   0.00000  Uiso   1.00
C210   C     0.78556   0.05919   0.37660   0.00000  Uiso   1.00
C211   C     0.75751   0.03244   0.34494   0.00000  Uiso   1.00
H212   H     0.72507   0.03189   0.35757   0.00000  Uiso   1.00
H213   H     0.75788   0.04791   0.31112   0.00000  Uiso   1.00
H214   H     0.76900   0.33034   0.34238   0.00000  Uiso   1.00
H215   H     0.81774   0.05879   0.36327   0.00000  Uiso   1.00
H216   H     0.78631   0.04176   0.40946   0.00000  Uiso   1.00
H217   H     0.73950   0.10901   0.39870   0.00000  Uiso   1.00
H218   H     0.76329   0.12316   0.34864   0.00000  Uiso   1.00
C219   C     0.89644   0.22505   0.11807   0.00000  Uiso   1.00
C220   C     0.88108   0.27416   0.12340   0.00000  Uiso   1.00
C221   C     0.90913   0.30092   0.15505   0.00000  Uiso   1.00
H222   H     0.90875   0.28547   0.18888   0.00000  Uiso   1.00
H223   H     0.94157   0.30146   0.14243   0.00000  Uiso   1.00
H224   H     0.89764   0.00302   0.15760   0.00000  Uiso   1.00
H225   H     0.88032   0.29159   0.09054   0.00000  Uiso   1.00
H226   H     0.84890   0.27454   0.13674   0.00000  Uiso   1.00
H227   H     0.90337   0.21020   0.15136   0.00000  Uiso   1.00
H228   H     0.92716   0.22435   0.10130   0.00000  Uiso   1.00
C229   C     0.08662   0.50001   0.25000   0.00000  Uiso   1.00
C230   C     0.24671   0.49999   0.24999   0.00000  Uiso   1.00
C231   C     0.11420   0.44182   0.02616   0.00000  Uiso   1.00
C232   C     0.21912   0.55820   0.47384   0.00000  Uiso   1.00
C233   C     0.02140   0.46013   0.26096   0.00000  Uiso   1.00
C234   C     0.31193   0.53988   0.23897   0.00000  Uiso   1.00
C235   C     0.31209   0.46011   0.26091   0.00000  Uiso   1.00
C236   C     0.02124   0.53990   0.23902   0.00000  Uiso   1.00
C237   C     0.29085   0.49998   0.24994   0.00000  Uiso   1.00
C238   C     0.04248   0.50002   0.25002   0.00000  Uiso   1.00
C239   C     0.19294   0.35725   0.27747   0.00000  Uiso   1.00
C240   C     0.14040   0.64275   0.22253   0.00000  Uiso   1.00
C241   C     0.14042   0.35741   0.22251   0.00000  Uiso   1.00
C242   C     0.19292   0.64259   0.27749   0.00000  Uiso   1.00
C243   C     0.16822   0.50012   0.16350   0.00000  Uiso   1.00
C244   C     0.16511   0.49988   0.33650   0.00000  Uiso   1.00
C245   C     0.18973   0.52885   0.40639   0.00000  Uiso   1.00
C246   C     0.14360   0.47116   0.09362   0.00000  Uiso   1.00
C247   C     0.16277   0.49964   0.38424   0.00000  Uiso   1.00
C248   C     0.17056   0.50036   0.11576   0.00000  Uiso   1.00
C249   C     0.13526   0.47052   0.40737   0.00000  Uiso   1.00
C250   C     0.19806   0.52949   0.09263   0.00000  Uiso   1.00
C251   C     0.13714   0.47029   0.45444   0.00000  Uiso   1.00
C252   C     0.19619   0.52971   0.04556   0.00000  Uiso   1.00
C253   C     0.16545   0.49983   0.47664   0.00000  Uiso   1.00
C254   C     0.16788   0.50018   0.02336   0.00000  Uiso   1.00
C255   C     0.19137   0.52916   0.45225   0.00000  Uiso   1.00
C256   C     0.14196   0.47085   0.04775   0.00000  Uiso   1.00
C257   C     0.11169   0.44151   0.48007   0.00000  Uiso   1.00
C258   C     0.22163   0.55851   0.01993   0.00000  Uiso   1.00
H259   H     0.21036   0.55083   0.38754   0.00000  Uiso   1.00
H260   H     0.12297   0.44918   0.11246   0.00000  Uiso   1.00
H261   H     0.08971   0.41822   0.46533   0.00000  Uiso   1.00
H262   H     0.24361   0.58181   0.03467   0.00000  Uiso   1.00
H263   H     0.09423   0.41927   0.04503   0.00000  Uiso   1.00
H264   H     0.23908   0.58076   0.45497   0.00000  Uiso   1.00
H265   H     0.03774   0.42921   0.26979   0.00000  Uiso   1.00
H266   H     0.29560   0.57080   0.23010   0.00000  Uiso   1.00
H267   H     0.29587   0.42917   0.26976   0.00000  Uiso   1.00
H268   H     0.03746   0.57083   0.23015   0.00000  Uiso   1.00
H269   H     0.21390   0.37540   0.29943   0.00000  Uiso   1.00
H270   H     0.11943   0.62460   0.20057   0.00000  Uiso   1.00
H271   H     0.11944   0.37570   0.20056   0.00000  Uiso   1.00
H272   H     0.21389   0.62430   0.29944   0.00000  Uiso   1.00
N273   N     0.16667   0.61907   0.25000   0.00000  Uiso   1.00
N274   N     0.16667   0.38093   0.25000   0.00000  Uiso   1.00
O275   O     0.10559   0.53821   0.25000   0.00000  Uiso   1.00
O276   O     0.22774   0.46179   0.25001   0.00000  Uiso   1.00
O277   O     0.22774   0.53821   0.25001   0.00000  Uiso   1.00
O278   O     0.10559   0.46179   0.25000   0.00000  Uiso   1.00
O279   O     0.16666   0.53823   0.18393   0.00000  Uiso   1.00
O280   O     0.16667   0.46177   0.31608   0.00000  Uiso   1.00
O281   O     0.16667   0.53823   0.31608   0.00000  Uiso   1.00
O282   O     0.16666   0.46177   0.18393   0.00000  Uiso   1.00
Zn283  Zn    0.16667   0.55104   0.25000   0.00000  Uiso   1.00
Zn284  Zn    0.16667   0.44896   0.25000   0.00000  Uiso   1.00
C285   C     0.10355   0.44164   0.38193   0.00000  Uiso   1.00
C286   C     0.11890   0.39252   0.37660   0.00000  Uiso   1.00
C287   C     0.09084   0.36577   0.34494   0.00000  Uiso   1.00
H288   H     0.05840   0.36523   0.35757   0.00000  Uiso   1.00
H289   H     0.09121   0.38124   0.31112   0.00000  Uiso   1.00
H290   H     0.10233   0.66367   0.34238   0.00000  Uiso   1.00
H291   H     0.15107   0.39213   0.36327   0.00000  Uiso   1.00
H292   H     0.11965   0.37510   0.40946   0.00000  Uiso   1.00
H293   H     0.07283   0.44235   0.39870   0.00000  Uiso   1.00
H294   H     0.09662   0.45649   0.34864   0.00000  Uiso   1.00
C295   C     0.22978   0.55838   0.11807   0.00000  Uiso   1.00
C296   C     0.21441   0.60749   0.12340   0.00000  Uiso   1.00
C297   C     0.24246   0.63425   0.15505   0.00000  Uiso   1.00
H298   H     0.24209   0.61880   0.18888   0.00000  Uiso   1.00
H299   H     0.27490   0.63479   0.14243   0.00000  Uiso   1.00
H300   H     0.23098   0.33636   0.15760   0.00000  Uiso   1.00
H301   H     0.21365   0.62492   0.09054   0.00000  Uiso   1.00
H302   H     0.18223   0.60788   0.13674   0.00000  Uiso   1.00
H303   H     0.23670   0.54353   0.15136   0.00000  Uiso   1.00
H304   H     0.26049   0.55768   0.10130   0.00000  Uiso   1.00
C305   C     0.41995   0.50001   0.25000   0.00000  Uiso   1.00
C306   C     0.58005   0.49999   0.24999   0.00000  Uiso   1.00
C307   C     0.44753   0.44182   0.02616   0.00000  Uiso   1.00
C308   C     0.55245   0.55820   0.47384   0.00000  Uiso   1.00
C309   C     0.35474   0.46013   0.26096   0.00000  Uiso   1.00
C310   C     0.64526   0.53988   0.23897   0.00000  Uiso   1.00
C311   C     0.64542   0.46011   0.26091   0.00000  Uiso   1.00
C312   C     0.35457   0.53990   0.23902   0.00000  Uiso   1.00
C313   C     0.62418   0.49998   0.24994   0.00000  Uiso   1.00
C314   C     0.37582   0.50002   0.25002   0.00000  Uiso   1.00
C315   C     0.52627   0.35725   0.27747   0.00000  Uiso   1.00
C316   C     0.47373   0.64275   0.22253   0.00000  Uiso   1.00
C317   C     0.47375   0.35741   0.22251   0.00000  Uiso   1.00
C318   C     0.52625   0.64259   0.27749   0.00000  Uiso   1.00
C319   C     0.50156   0.50012   0.16350   0.00000  Uiso   1.00
C320   C     0.49844   0.49988   0.33650   0.00000  Uiso   1.00
C321   C     0.52306   0.52885   0.40639   0.00000  Uiso   1.00
C322   C     0.47693   0.47116   0.09362   0.00000  Uiso   1.00
C323   C     0.49610   0.49964   0.38424   0.00000  Uiso   1.00
C324   C     0.50389   0.50036   0.11576   0.00000  Uiso   1.00
C325   C     0.46860   0.47052   0.40737   0.00000  Uiso   1.00
C326   C     0.53140   0.52949   0.09263   0.00000  Uiso   1.00
C327   C     0.47047   0.47029   0.45444   0.00000  Uiso   1.00
C328   C     0.52952   0.52971   0.04556   0.00000  Uiso   1.00
C329   C     0.49878   0.49983   0.47664   0.00000  Uiso   1.00
C330   C     0.50121   0.50018   0.02336   0.00000  Uiso   1.00
C331   C     0.52470   0.52916   0.45225   0.00000  Uiso   1.00
C332   C     0.47529   0.47085   0.04775   0.00000  Uiso   1.00
C333   C     0.44503   0.44151   0.48007   0.00000  Uiso   1.00
C334   C     0.55496   0.55851   0.01993   0.00000  Uiso   1.00
H335   H     0.54369   0.55083   0.38754   0.00000  Uiso   1.00
H336   H     0.45630   0.44918   0.11246   0.00000  Uiso   1.00
H337   H     0.42304   0.41822   0.46533   0.00000  Uiso   1.00
H338   H     0.57694   0.58181   0.03467   0.00000  Uiso   1.00
H339   H     0.42756   0.41927   0.04503   0.00000  Uiso   1.00
H340   H     0.57242   0.58076   0.45497   0.00000  Uiso   1.00
H341   H     0.37107   0.42921   0.26979   0.00000  Uiso   1.00
H342   H     0.62893   0.57080   0.23010   0.00000  Uiso   1.00
H343   H     0.62921   0.42917   0.26976   0.00000  Uiso   1.00
H344   H     0.37079   0.57083   0.23015   0.00000  Uiso   1.00
H345   H     0.54724   0.37540   0.29943   0.00000  Uiso   1.00
H346   H     0.45276   0.62460   0.20057   0.00000  Uiso   1.00
H347   H     0.45277   0.37570   0.20056   0.00000  Uiso   1.00
H348   H     0.54723   0.62430   0.29944   0.00000  Uiso   1.00
N349   N     0.50000   0.61907   0.25000   0.00000  Uiso   1.00
N350   N     0.50000   0.38093   0.25000   0.00000  Uiso   1.00
O351   O     0.43892   0.53821   0.25000   0.00000  Uiso   1.00
O352   O     0.56108   0.46179   0.25001   0.00000  Uiso   1.00
O353   O     0.56108   0.53821   0.25001   0.00000  Uiso   1.00
O354   O     0.43892   0.46179   0.25000   0.00000  Uiso   1.00
O355   O     0.49999   0.53823   0.18393   0.00000  Uiso   1.00
O356   O     0.50001   0.46177   0.31608   0.00000  Uiso   1.00
O357   O     0.50001   0.53823   0.31608   0.00000  Uiso   1.00
O358   O     0.49999   0.46177   0.18393   0.00000  Uiso   1.00
Zn359  Zn    0.50000   0.55104   0.25000   0.00000  Uiso   1.00
Zn360  Zn    0.50000   0.44896   0.25000   0.00000  Uiso   1.00
C361   C     0.43688   0.44164   0.38193   0.00000  Uiso   1.00
C362   C     0.45223   0.39252   0.37660   0.00000  Uiso   1.00
C363   C     0.42417   0.36577   0.34494   0.00000  Uiso   1.00
H364   H     0.39173   0.36523   0.35757   0.00000  Uiso   1.00
H365   H     0.42455   0.38124   0.31112   0.00000  Uiso   1.00
H366   H     0.43566   0.66367   0.34238   0.00000  Uiso   1.00
H367   H     0.48441   0.39213   0.36327   0.00000  Uiso   1.00
H368   H     0.45298   0.37510   0.40946   0.00000  Uiso   1.00
H369   H     0.40617   0.44235   0.39870   0.00000  Uiso   1.00
H370   H     0.42996   0.45649   0.34864   0.00000  Uiso   1.00
C371   C     0.56311   0.55838   0.11807   0.00000  Uiso   1.00
C372   C     0.54774   0.60749   0.12340   0.00000  Uiso   1.00
C373   C     0.57580   0.63425   0.15505   0.00000  Uiso   1.00
H374   H     0.57542   0.61880   0.18888   0.00000  Uiso   1.00
H375   H     0.60824   0.63479   0.14243   0.00000  Uiso   1.00
H376   H     0.56431   0.33636   0.15760   0.00000  Uiso   1.00
H377   H     0.54698   0.62492   0.09054   0.00000  Uiso   1.00
H378   H     0.51556   0.60788   0.13674   0.00000  Uiso   1.00
H379   H     0.57004   0.54353   0.15136   0.00000  Uiso   1.00
H380   H     0.59382   0.55768   0.10130   0.00000  Uiso   1.00
C381   C     0.75328   0.50001   0.25000   0.00000  Uiso   1.00
C382   C     0.91338   0.49999   0.24999   0.00000  Uiso   1.00
C383   C     0.78086   0.44182   0.02616   0.00000  Uiso   1.00
C384   C     0.88579   0.55820   0.47384   0.00000  Uiso   1.00
C385   C     0.68807   0.46013   0.26096   0.00000  Uiso   1.00
C386   C     0.97860   0.53988   0.23897   0.00000  Uiso   1.00
C387   C     0.97876   0.46011   0.26091   0.00000  Uiso   1.00
C388   C     0.68791   0.53990   0.23902   0.00000  Uiso   1.00
C389   C     0.95752   0.49998   0.24994   0.00000  Uiso   1.00
C390   C     0.70915   0.50002   0.25002   0.00000  Uiso   1.00
C391   C     0.85960   0.35725   0.27747   0.00000  Uiso   1.00
C392   C     0.80706   0.64275   0.22253   0.00000  Uiso   1.00
C393   C     0.80708   0.35741   0.22251   0.00000  Uiso   1.00
C394   C     0.85958   0.64259   0.27749   0.00000  Uiso   1.00
C395   C     0.83489   0.50012   0.16350   0.00000  Uiso   1.00
C396   C     0.83178   0.49988   0.33650   0.00000  Uiso   1.00
C397   C     0.85640   0.52885   0.40639   0.00000  Uiso   1.00
C398   C     0.81026   0.47116   0.09362   0.00000  Uiso   1.00
C399   C     0.82944   0.49964   0.38424   0.00000  Uiso   1.00
C400   C     0.83723   0.50036   0.11576   0.00000  Uiso   1.00
C401   C     0.80193   0.47052   0.40737   0.00000  Uiso   1.00
C402   C     0.86473   0.52949   0.09263   0.00000  Uiso   1.00
C403   C     0.80380   0.47029   0.45444   0.00000  Uiso   1.00
C404   C     0.86285   0.52971   0.04556   0.00000  Uiso   1.00
C405   C     0.83212   0.49983   0.47664   0.00000  Uiso   1.00
C406   C     0.83454   0.50018   0.02336   0.00000  Uiso   1.00
C407   C     0.85803   0.52916   0.45225   0.00000  Uiso   1.00
C408   C     0.80863   0.47085   0.04775   0.00000  Uiso   1.00
C409   C     0.77836   0.44151   0.48007   0.00000  Uiso   1.00
C410   C     0.88829   0.55851   0.01993   0.00000  Uiso   1.00
H411   H     0.87702   0.55083   0.38754   0.00000  Uiso   1.00
H412   H     0.78964   0.44918   0.11246   0.00000  Uiso   1.00
H413   H     0.75637   0.41822   0.46533   0.00000  Uiso   1.00
H414   H     0.91028   0.58181   0.03467   0.00000  Uiso   1.00
H415   H     0.76089   0.41927   0.04503   0.00000  Uiso   1.00
H416   H     0.90575   0.58076   0.45497   0.00000  Uiso   1.00
H417   H     0.70440   0.42921   0.26979   0.00000  Uiso   1.00
H418   H     0.96226   0.57080   0.23010   0.00000  Uiso   1.00
H419   H     0.96254   0.42917   0.26976   0.00000  Uiso   1.00
H420   H     0.70413   0.57083   0.23015   0.00000  Uiso   1.00
H421   H     0.88057   0.37540   0.29943   0.00000  Uiso   1.00
H422   H     0.78610   0.62460   0.20057   0.00000  Uiso   1.00
H423   H     0.78611   0.37570   0.20056   0.00000  Uiso   1.00
H424   H     0.88056   0.62430   0.29944   0.00000  Uiso   1.00
N425   N     0.83333   0.61907   0.25000   0.00000  Uiso   1.00
N426   N     0.83333   0.38093   0.25000   0.00000  Uiso   1.00
O427   O     0.77226   0.53821   0.25000   0.00000  Uiso   1.00
O428   O     0.89441   0.46179   0.25001   0.00000  Uiso   1.00
O429   O     0.89441   0.53821   0.25001   0.00000  Uiso   1.00
O430   O     0.77226   0.46179   0.25000   0.00000  Uiso   1.00
O431   O     0.83333   0.53823   0.18393   0.00000  Uiso   1.00
O432   O     0.83334   0.46177   0.31608   0.00000  Uiso   1.00
O433   O     0.83334   0.53823   0.31608   0.00000  Uiso   1.00
O434   O     0.83333   0.46177   0.18393   0.00000  Uiso   1.00
Zn435  Zn    0.83333   0.55104   0.25000   0.00000  Uiso   1.00
Zn436  Zn    0.83333   0.44896   0.25000   0.00000  Uiso   1.00
C437   C     0.77021   0.44164   0.38193   0.00000  Uiso   1.00
C438   C     0.78556   0.39252   0.37660   0.00000  Uiso   1.00
C439   C     0.75751   0.36577   0.34494   0.00000  Uiso   1.00
H440   H     0.72507   0.36523   0.35757   0.00000  Uiso   1.00
H441   H     0.75788   0.38124   0.31112   0.00000  Uiso   1.00
H442   H     0.76900   0.66367   0.34238   0.00000  Uiso   1.00
H443   H     0.81774   0.39213   0.36327   0.00000  Uiso   1.00
H444   H     0.78631   0.37510   0.40946   0.00000  Uiso   1.00
H445   H     0.73950   0.44235   0.39870   0.00000  Uiso   1.00
H446   H     0.76329   0.45649   0.34864   0.00000  Uiso   1.00
C447   C     0.89644   0.55838   0.11807   0.00000  Uiso   1.00
C448   C     0.88108   0.60749   0.12340   0.00000  Uiso   1.00
C449   C     0.90913   0.63425   0.15505   0.00000  Uiso   1.00
H450   H     0.90875   0.61880   0.18888   0.00000  Uiso   1.00
H451   H     0.94157   0.63479   0.14243   0.00000  Uiso   1.00
H452   H     0.89764   0.33636   0.15760   0.00000  Uiso   1.00
H453   H     0.88032   0.62492   0.09054   0.00000  Uiso   1.00
H454   H     0.84890   0.60788   0.13674   0.00000  Uiso   1.00
H455   H     0.90337   0.54353   0.15136   0.00000  Uiso   1.00
H456   H     0.92716   0.55768   0.10130   0.00000  Uiso   1.00
C457   C     0.08662   0.83334   0.25000   0.00000  Uiso   1.00
C458   C     0.24671   0.83333   0.24999   0.00000  Uiso   1.00
C459   C     0.11420   0.77515   0.02616   0.00000  Uiso   1.00
C460   C     0.21912   0.89153   0.47384   0.00000  Uiso   1.00
C461   C     0.02140   0.79346   0.26096   0.00000  Uiso   1.00
C462   C     0.31193   0.87321   0.23897   0.00000  Uiso   1.00
C463   C     0.31209   0.79344   0.26091   0.00000  Uiso   1.00
C464   C     0.02124   0.87323   0.23902   0.00000  Uiso   1.00
C465   C     0.29085   0.83332   0.24994   0.00000  Uiso   1.00
C466   C     0.04248   0.83335   0.25002   0.00000  Uiso   1.00
C467   C     0.19294   0.69058   0.27747   0.00000  Uiso   1.00
C468   C     0.14040   0.97609   0.22253   0.00000  Uiso   1.00
C469   C     0.14042   0.69075   0.22251   0.00000  Uiso   1.00
C470   C     0.19292   0.97592   0.27749   0.00000  Uiso   1.00
C471   C     0.16822   0.83345   0.16350   0.00000  Uiso   1.00
C472   C     0.16511   0.83321   0.33650   0.00000  Uiso   1.00
C473   C     0.18973   0.86218   0.40639   0.00000  Uiso   1.00
C474   C     0.14360   0.80449   0.09362   0.00000  Uiso   1.00
C475   C     0.16277   0.83297   0.38424   0.00000  Uiso   1.00
C476   C     0.17056   0.83370   0.11576   0.00000  Uiso   1.00
C477   C     0.13526   0.80385   0.40737   0.00000  Uiso   1.00
C478   C     0.19806   0.86282   0.09263   0.00000  Uiso   1.00
C479   C     0.13714   0.80363   0.45444   0.00000  Uiso   1.00
C480   C     0.19619   0.86305   0.04556   0.00000  Uiso   1.00
C481   C     0.16545   0.83316   0.47664   0.00000  Uiso   1.00
C482   C     0.16788   0.83351   0.02336   0.00000  Uiso   1.00
C483   C     0.19137   0.86249   0.45225   0.00000  Uiso   1.00
C484   C     0.14196   0.80418   0.04775   0.00000  Uiso   1.00
C485   C     0.11169   0.77484   0.48007   0.00000  Uiso   1.00
C486   C     0.22163   0.89185   0.01993   0.00000  Uiso   1.00
H487   H     0.21036   0.88416   0.38754   0.00000  Uiso   1.00
H488   H     0.12297   0.78252   0.11246   0.00000  Uiso   1.00
H489   H     0.08971   0.75155   0.46533   0.00000  Uiso   1.00
H490   H     0.24361   0.91514   0.03467   0.00000  Uiso   1.00
H491   H     0.09423   0.75260   0.04503   0.00000  Uiso   1.00
H492   H     0.23908   0.91409   0.45497   0.00000  Uiso   1.00
H493   H     0.03774   0.76254   0.26979   0.00000  Uiso   1.00
H494   H     0.29560   0.90413   0.23010   0.00000  Uiso   1.00
H495   H     0.29587   0.76250   0.26976   0.00000  Uiso   1.00
H496   H     0.03746   0.90417   0.23015   0.00000  Uiso   1.00
H497   H     0.21390   0.70874   0.29943   0.00000  Uiso   1.00
H498   H     0.11943   0.95793   0.20057   0.00000  Uiso   1.00
H499   H     0.11944   0.70904   0.20056   0.00000  Uiso   1.00
H500   H     0.21389   0.95763   0.29944   0.00000  Uiso   1.00
N501   N     0.16667   0.95240   0.25000   0.00000  Uiso   1.00
N502   N     0.16667   0.71427   0.25000   0.00000  Uiso   1.00
O503   O     0.10559   0.87154   0.25000   0.00000  Uiso   1.00
O504   O     0.22774   0.79513   0.25001   0.00000  Uiso   1.00
O505   O     0.22774   0.87154   0.25001   0.00000  Uiso   1.00
O506   O     0.10559   0.79513   0.25000   0.00000  Uiso   1.00
O507   O     0.16666   0.87156   0.18393   0.00000  Uiso   1.00
O508   O     0.16667   0.79511   0.31608   0.00000  Uiso   1.00
O509   O     0.16667   0.87156   0.31608   0.00000  Uiso   1.00
O510   O     0.16666   0.79511   0.18393   0.00000  Uiso   1.00
Zn511  Zn    0.16667   0.88437   0.25000   0.00000  Uiso   1.00
Zn512  Zn    0.16667   0.78229   0.25000   0.00000  Uiso   1.00
C513   C     0.10355   0.77497   0.38193   0.00000  Uiso   1.00
C514   C     0.11890   0.72585   0.37660   0.00000  Uiso   1.00
C515   C     0.09084   0.69911   0.34494   0.00000  Uiso   1.00
H516   H     0.05840   0.69856   0.35757   0.00000  Uiso   1.00
H517   H     0.09121   0.71457   0.31112   0.00000  Uiso   1.00
H518   H     0.10233   0.99701   0.34238   0.00000  Uiso   1.00
H519   H     0.15107   0.72546   0.36327   0.00000  Uiso   1.00
H520   H     0.11965   0.70843   0.40946   0.00000  Uiso   1.00
H521   H     0.07283   0.77568   0.39870   0.00000  Uiso   1.00
H522   H     0.09662   0.78982   0.34864   0.00000  Uiso   1.00
C523   C     0.22978   0.89171   0.11807   0.00000  Uiso   1.00
C524   C     0.21441   0.94083   0.12340   0.00000  Uiso   1.00
C525   C     0.24246   0.96759   0.15505   0.00000  Uiso   1.00
H526   H     0.24209   0.95214   0.18888   0.00000  Uiso   1.00
H527   H     0.27490   0.96813   0.14243   0.00000  Uiso   1.00
H528   H     0.23098   0.66969   0.15760   0.00000  Uiso   1.00
H529   H     0.21365   0.95825   0.09054   0.00000  Uiso   1.00
H530   H     0.18223   0.94121   0.13674   0.00000  Uiso   1.00
H531   H     0.23670   0.87686   0.15136   0.00000  Uiso   1.00
H532   H     0.26049   0.89102   0.10130   0.00000  Uiso   1.00
C533   C     0.41995   0.83334   0.25000   0.00000  Uiso   1.00
C534   C     0.58005   0.83333   0.24999   0.00000  Uiso   1.00
C535   C     0.44753   0.77515   0.02616   0.00000  Uiso   1.00
C536   C     0.55245   0.89153   0.47384   0.00000  Uiso   1.00
C537   C     0.35474   0.79346   0.26096   0.00000  Uiso   1.00
C538   C     0.64526   0.87321   0.23897   0.00000  Uiso   1.00
C539   C     0.64542   0.79344   0.26091   0.00000  Uiso   1.00
C540   C     0.35457   0.87323   0.23902   0.00000  Uiso   1.00
C541   C     0.62418   0.83332   0.24994   0.00000  Uiso   1.00
C542   C     0.37582   0.83335   0.25002   0.00000  Uiso   1.00
C543   C     0.52627   0.69058   0.27747   0.00000  Uiso   1.00
C544   C     0.47373   0.97609   0.22253   0.00000  Uiso   1.00
C545   C     0.47375   0.69075   0.22251   0.00000  Uiso   1.00
C546   C     0.52625   0.97592   0.27749   0.00000  Uiso   1.00
C547   C     0.50156   0.83345   0.16350   0.00000  Uiso   1.00
C548   C     0.49844   0.83321   0.33650   0.00000  Uiso   1.00
C549   C     0.52306   0.86218   0.40639   0.00000  Uiso   1.00
C550   C     0.47693   0.80449   0.09362   0.00000  Uiso   1.00
C551   C     0.49610   0.83297   0.38424   0.00000  Uiso   1.00
C552   C     0.50389   0.83370   0.11576   0.00000  Uiso   1.00
C553   C     0.46860   0.80385   0.40737   0.00000  Uiso   1.00
C554   C     0.53140   0.86282   0.09263   0.00000  Uiso   1.00
C555   C     0.47047   0.80363   0.45444   0.00000  Uiso   1.00
C556   C     0.52952   0.86305   0.04556   0.00000  Uiso   1.00
C557   C     0.49878   0.83316   0.47664   0.00000  Uiso   1.00
C558   C     0.50121   0.83351   0.02336   0.00000  Uiso   1.00
C559   C     0.52470   0.86249   0.45225   0.00000  Uiso   1.00
C560   C     0.47529   0.80418   0.04775   0.00000  Uiso   1.00
C561   C     0.44503   0.77484   0.48007   0.00000  Uiso   1.00
C562   C     0.55496   0.89185   0.01993   0.00000  Uiso   1.00
H563   H     0.54369   0.88416   0.38754   0.00000  Uiso   1.00
H564   H     0.45630   0.78252   0.11246   0.00000  Uiso   1.00
H565   H     0.42304   0.75155   0.46533   0.00000  Uiso   1.00
H566   H     0.57694   0.91514   0.03467   0.00000  Uiso   1.00
H567   H     0.42756   0.75260   0.04503   0.00000  Uiso   1.00
H568   H     0.57242   0.91409   0.45497   0.00000  Uiso   1.00
H569   H     0.37107   0.76254   0.26979   0.00000  Uiso   1.00
H570   H     0.62893   0.90413   0.23010   0.00000  Uiso   1.00
H571   H     0.62921   0.76250   0.26976   0.00000  Uiso   1.00
H572   H     0.37079   0.90417   0.23015   0.00000  Uiso   1.00
H573   H     0.54724   0.70874   0.29943   0.00000  Uiso   1.00
H574   H     0.45276   0.95793   0.20057   0.00000  Uiso   1.00
H575   H     0.45277   0.70904   0.20056   0.00000  Uiso   1.00
H576   H     0.54723   0.95763   0.29944   0.00000  Uiso   1.00
N577   N     0.50000   0.95240   0.25000   0.00000  Uiso   1.00
N578   N     0.50000   0.71427   0.25000   0.00000  Uiso   1.00
O579   O     0.43892   0.87154   0.25000   0.00000  Uiso   1.00
O580   O     0.56108   0.79513   0.25001   0.00000  Uiso   1.00
O581   O     0.56108   0.87154   0.25001   0.00000  Uiso   1.00
O582   O     0.43892   0.79513   0.25000   0.00000  Uiso   1.00
O583   O     0.49999   0.87156   0.18393   0.00000  Uiso   1.00
O584   O     0.50001   0.79511   0.31608   0.00000  Uiso   1.00
O585   O     0.50001   0.87156   0.31608   0.00000  Uiso   1.00
O586   O     0.49999   0.79511   0.18393   0.00000  Uiso   1.00
Zn587  Zn    0.50000   0.88437   0.25000   0.00000  Uiso   1.00
Zn588  Zn    0.50000   0.78229   0.25000   0.00000  Uiso   1.00
C589   C     0.43688   0.77497   0.38193   0.00000  Uiso   1.00
C590   C     0.45223   0.72585   0.37660   0.00000  Uiso   1.00
C591   C     0.42417   0.69911   0.34494   0.00000  Uiso   1.00
H592   H     0.39173   0.69856   0.35757   0.00000  Uiso   1.00
H593   H     0.42455   0.71457   0.31112   0.00000  Uiso   1.00
H594   H     0.43566   0.99701   0.34238   0.00000  Uiso   1.00
H595   H     0.48441   0.72546   0.36327   0.00000  Uiso   1.00
H596   H     0.45298   0.70843   0.40946   0.00000  Uiso   1.00
H597   H     0.40617   0.77568   0.39870   0.00000  Uiso   1.00
H598   H     0.42996   0.78982   0.34864   0.00000  Uiso   1.00
C599   C     0.56311   0.89171   0.11807   0.00000  Uiso   1.00
C600   C     0.54774   0.94083   0.12340   0.00000  Uiso   1.00
C601   C     0.57580   0.96759   0.15505   0.00000  Uiso   1.00
H602   H     0.57542   0.95214   0.18888   0.00000  Uiso   1.00
H603   H     0.60824   0.96813   0.14243   0.00000  Uiso   1.00
H604   H     0.56431   0.66969   0.15760   0.00000  Uiso   1.00
H605   H     0.54698   0.95825   0.09054   0.00000  Uiso   1.00
H606   H     0.51556   0.94121   0.13674   0.00000  Uiso   1.00
H607   H     0.57004   0.87686   0.15136   0.00000  Uiso   1.00
H608   H     0.59382   0.89102   0.10130   0.00000  Uiso   1.00
C609   C     0.75328   0.83334   0.25000   0.00000  Uiso   1.00
C610   C     0.91338   0.83333   0.24999   0.00000  Uiso   1.00
C611   C     0.78086   0.77515   0.02616   0.00000  Uiso   1.00
C612   C     0.88579   0.89153   0.47384   0.00000  Uiso   1.00
C613   C     0.68807   0.79346   0.26096   0.00000  Uiso   1.00
C614   C     0.97860   0.87321   0.23897   0.00000  Uiso   1.00
C615   C     0.97876   0.79344   0.26091   0.00000  Uiso   1.00
C616   C     0.68791   0.87323   0.23902   0.00000  Uiso   1.00
C617   C     0.95752   0.83332   0.24994   0.00000  Uiso   1.00
C618   C     0.70915   0.83335   0.25002   0.00000  Uiso   1.00
C619   C     0.85960   0.69058   0.27747   0.00000  Uiso   1.00
C620   C     0.80706   0.97609   0.22253   0.00000  Uiso   1.00
C621   C     0.80708   0.69075   0.22251   0.00000  Uiso   1.00
C622   C     0.85958   0.97592   0.27749   0.00000  Uiso   1.00
C623   C     0.83489   0.83345   0.16350   0.00000  Uiso   1.00
C624   C     0.83178   0.83321   0.33650   0.00000  Uiso   1.00
C625   C     0.85640   0.86218   0.40639   0.00000  Uiso   1.00
C626   C     0.81026   0.80449   0.09362   0.00000  Uiso   1.00
C627   C     0.82944   0.83297   0.38424   0.00000  Uiso   1.00
C628   C     0.83723   0.83370   0.11576   0.00000  Uiso   1.00
C629   C     0.80193   0.80385   0.40737   0.00000  Uiso   1.00
C630   C     0.86473   0.86282   0.09263   0.00000  Uiso   1.00
C631   C     0.80380   0.80363   0.45444   0.00000  Uiso   1.00
C632   C     0.86285   0.86305   0.04556   0.00000  Uiso   1.00
C633   C     0.83212   0.83316   0.47664   0.00000  Uiso   1.00
C634   C     0.83454   0.83351   0.02336   0.00000  Uiso   1.00
C635   C     0.85803   0.86249   0.45225   0.00000  Uiso   1.00
C636   C     0.80863   0.80418   0.04775   0.00000  Uiso   1.00
C637   C     0.77836   0.77484   0.48007   0.00000  Uiso   1.00
C638   C     0.88829   0.89185   0.01993   0.00000  Uiso   1.00
H639   H     0.87702   0.88416   0.38754   0.00000  Uiso   1.00
H640   H     0.78964   0.78252   0.11246   0.00000  Uiso   1.00
H641   H     0.75637   0.75155   0.46533   0.00000  Uiso   1.00
H642   H     0.91028   0.91514   0.03467   0.00000  Uiso   1.00
H643   H     0.76089   0.75260   0.04503   0.00000  Uiso   1.00
H644   H     0.90575   0.91409   0.45497   0.00000  Uiso   1.00
H645   H     0.70440   0.76254   0.26979   0.00000  Uiso   1.00
H646   H     0.96226   0.90413   0.23010   0.00000  Uiso   1.00
H647   H     0.96254   0.76250   0.26976   0.00000  Uiso   1.00
H648   H     0.70413   0.90417   0.23015   0.00000  Uiso   1.00
H649   H     0.88057   0.70874   0.29943   0.00000  Uiso   1.00
H650   H     0.78610   0.95793   0.20057   0.00000  Uiso   1.00
H651   H     0.78611   0.70904   0.20056   0.00000  Uiso   1.00
H652   H     0.88056   0.95763   0.29944   0.00000  Uiso   1.00
N653   N     0.83333   0.95240   0.25000   0.00000  Uiso   1.00
N654   N     0.83333   0.71427   0.25000   0.00000  Uiso   1.00
O655   O     0.77226   0.87154   0.25000   0.00000  Uiso   1.00
O656   O     0.89441   0.79513   0.25001   0.00000  Uiso   1.00
O657   O     0.89441   0.87154   0.25001   0.00000  Uiso   1.00
O658   O     0.77226   0.79513   0.25000   0.00000  Uiso   1.00
O659   O     0.83333   0.87156   0.18393   0.00000  Uiso   1.00
O660   O     0.83334   0.79511   0.31608   0.00000  Uiso   1.00
O661   O     0.83334   0.87156   0.31608   0.00000  Uiso   1.00
O662   O     0.83333   0.79511   0.18393   0.00000  Uiso   1.00
Zn663  Zn    0.83333   0.88437   0.25000   0.00000  Uiso   1.00
Zn664  Zn    0.83333   0.78229   0.25000   0.00000  Uiso   1.00
C665   C     0.77021   0.77497   0.38193   0.00000  Uiso   1.00
C666   C     0.78556   0.72585   0.37660   0.00000  Uiso   1.00
C667   C     0.75751   0.69911   0.34494   0.00000  Uiso   1.00
H668   H     0.72507   0.69856   0.35757   0.00000  Uiso   1.00
H669   H     0.75788   0.71457   0.31112   0.00000  Uiso   1.00
H670   H     0.76900   0.99701   0.34238   0.00000  Uiso   1.00
H671   H     0.81774   0.72546   0.36327   0.00000  Uiso   1.00
H672   H     0.78631   0.70843   0.40946   0.00000  Uiso   1.00
H673   H     0.73950   0.77568   0.39870   0.00000  Uiso   1.00
H674   H     0.76329   0.78982   0.34864   0.00000  Uiso   1.00
C675   C     0.89644   0.89171   0.11807   0.00000  Uiso   1.00
C676   C     0.88108   0.94083   0.12340   0.00000  Uiso   1.00
C677   C     0.90913   0.96759   0.15505   0.00000  Uiso   1.00
H678   H     0.90875   0.95214   0.18888   0.00000  Uiso   1.00
H679   H     0.94157   0.96813   0.14243   0.00000  Uiso   1.00
H680   H     0.89764   0.66969   0.15760   0.00000  Uiso   1.00
H681   H     0.88032   0.95825   0.09054   0.00000  Uiso   1.00
H682   H     0.84890   0.94121   0.13674   0.00000  Uiso   1.00
H683   H     0.90337   0.87686   0.15136   0.00000  Uiso   1.00
H684   H     0.92716   0.89102   0.10130   0.00000  Uiso   1.00
C685   C     0.08662   0.16667   0.75000   0.00000  Uiso   1.00
C686   C     0.24671   0.16666   0.74999   0.00000  Uiso   1.00
C687   C     0.11420   0.10848   0.52616   0.00000  Uiso   1.00
C688   C     0.21912   0.22487   0.97384   0.00000  Uiso   1.00
C689   C     0.02140   0.12679   0.76096   0.00000  Uiso   1.00
C690   C     0.31193   0.20654   0.73897   0.00000  Uiso   1.00
C691   C     0.31209   0.12677   0.76091   0.00000  Uiso   1.00
C692   C     0.02124   0.20656   0.73902   0.00000  Uiso   1.00
C693   C     0.29085   0.16665   0.74994   0.00000  Uiso   1.00
C694   C     0.04248   0.16668   0.75002   0.00000  Uiso   1.00
C695   C     0.19294   0.02391   0.77747   0.00000  Uiso   1.00
C696   C     0.14040   0.30942   0.72253   0.00000  Uiso   1.00
C697   C     0.14042   0.02408   0.72251   0.00000  Uiso   1.00
C698   C     0.19292   0.30925   0.77749   0.00000  Uiso   1.00
C699   C     0.16822   0.16679   0.66350   0.00000  Uiso   1.00
C700   C     0.16511   0.16655   0.83650   0.00000  Uiso   1.00
C701   C     0.18973   0.19552   0.90639   0.00000  Uiso   1.00
C702   C     0.14360   0.13782   0.59362   0.00000  Uiso   1.00
C703   C     0.16277   0.16631   0.88424   0.00000  Uiso   1.00
C704   C     0.17056   0.16703   0.61576   0.00000  Uiso   1.00
C705   C     0.13526   0.13718   0.90737   0.00000  Uiso   1.00
C706   C     0.19806   0.19616   0.59263   0.00000  Uiso   1.00
C707   C     0.13714   0.13696   0.95444   0.00000  Uiso   1.00
C708   C     0.19619   0.19638   0.54556   0.00000  Uiso   1.00
C709   C     0.16545   0.16649   0.97664   0.00000  Uiso   1.00
C710   C     0.16788   0.16685   0.52336   0.00000  Uiso   1.00
C711   C     0.19137   0.19583   0.95225   0.00000  Uiso   1.00
C712   C     0.14196   0.13752   0.54775   0.00000  Uiso   1.00
C713   C     0.11169   0.10817   0.98007   0.00000  Uiso   1.00
C714   C     0.22163   0.22518   0.51993   0.00000  Uiso   1.00
H715   H     0.21036   0.21749   0.88754   0.00000  Uiso   1.00
H716   H     0.12297   0.11585   0.61246   0.00000  Uiso   1.00
H717   H     0.08971   0.08489   0.96533   0.00000  Uiso   1.00
H718   H     0.24361   0.24847   0.53467   0.00000  Uiso   1.00
H719   H     0.09423   0.08594   0.54503   0.00000  Uiso   1.00
H720   H     0.23908   0.24742   0.95497   0.00000  Uiso   1.00
H721   H     0.03774   0.09587   0.76979   0.00000  Uiso   1.00
H722   H     0.29560   0.23747   0.73010   0.00000  Uiso   1.00
H723   H     0.29587   0.09584   0.76976   0.00000  Uiso   1.00
H724   H     0.03746   0.23750   0.73015   0.00000  Uiso   1.00
H725   H     0.21390   0.04207   0.79943   0.00000  Uiso   1.00
H726   H     0.11943   0.29126   0.70057   0.00000  Uiso   1.00
H727   H     0.11944   0.04237   0.70056   0.00000  Uiso   1.00
H728   H     0.21389   0.29096   0.79944   0.00000  Uiso   1.00
N729   N     0.16667   0.28573   0.75000   0.00000  Uiso   1.00
N730   N     0.16667   0.04760   0.75000   0.00000  Uiso   1.00
O731   O     0.10559   0.20487   0.75000   0.00000  Uiso   1.00
O732   O     0.22774   0.12846   0.75001   0.00000  Uiso   1.00
O733   O     0.22774   0.20487   0.75001   0.00000  Uiso   1.00
O734   O     0.10559   0.12846   0.75000   0.00000  Uiso   1.00
O735   O     0.16666   0.20489   0.68393   0.00000  Uiso   1.00
O736   O     0.16667   0.12844   0.81608   0.00000  Uiso   1.00
O737   O     0.16667   0.20489   0.81608   0.00000  Uiso   1.00
O738   O     0.16666   0.12844   0.68393   0.00000  Uiso   1.00
Zn739  Zn    0.16667   0.21771   0.75000   0.00000  Uiso   1.00
Zn740  Zn    0.16667   0.11563   0.75000   0.00000  Uiso   1.00
C741   C     0.10355   0.10830   0.88193   0.00000  Uiso   1.00
C742   C     0.11890   0.05919   0.87660   0.00000  Uiso   1.00
C743   C     0.09084   0.03244   0.84494   0.00000  Uiso   1.00
H744   H     0.05840   0.03189   0.85757   0.00000  Uiso   1.00
H745   H     0.09121   0.04791   0.81112   0.00000  Uiso   1.00
H746   H     0.10233   0.33034   0.84238   0.00000  Uiso   1.00
H747   H     0.15107   0.05879   0.86327   0.00000  Uiso   1.00
H748   H     0.11965   0.04176   0.90946   0.00000  Uiso   1.00
H749   H     0.07283   0.10901   0.89870   0.00000  Uiso   1.00
H750   H     0.09662   0.12316   0.84864   0.00000  Uiso   1.00
C751   C     0.22978   0.22505   0.61807   0.00000  Uiso   1.00
C752   C     0.21441   0.27416   0.62340   0.00000  Uiso   1.00
C753   C     0.24246   0.30092   0.65505   0.00000  Uiso   1.00
H754   H     0.24209   0.28547   0.68888   0.00000  Uiso   1.00
H755   H     0.27490   0.30146   0.64243   0.00000  Uiso   1.00
H756   H     0.23098   0.00302   0.65760   0.00000  Uiso   1.00
H757   H     0.21365   0.29159   0.59054   0.00000  Uiso   1.00
H758   H     0.18223   0.27454   0.63674   0.00000  Uiso   1.00
H759   H     0.23670   0.21020   0.65136   0.00000  Uiso   1.00
H760   H     0.26049   0.22435   0.60130   0.00000  Uiso   1.00
C761   C     0.41995   0.16667   0.75000   0.00000  Uiso   1.00
C762   C     0.58005   0.16666   0.74999   0.00000  Uiso   1.00
C763   C     0.44753   0.10848   0.52616   0.00000  Uiso   1.00
C764   C     0.55245   0.22487   0.97384   0.00000  Uiso   1.00
C765   C     0.35474   0.12679   0.76096   0.00000  Uiso   1.00
C766   C     0.64526   0.20654   0.73897   0.00000  Uiso   1.00
C767   C     0.64542   0.12677   0.76091   0.00000  Uiso   1.00
C768   C     0.35457   0.20656   0.73902   0.00000  Uiso   1.00
C769   C     0.62418   0.16665   0.74994   0.00000  Uiso   1.00
C770   C     0.37582   0.16668   0.75002   0.00000  Uiso   1.00
C771   C     0.52627   0.02391   0.77747   0.00000  Uiso   1.00
C772   C     0.47373   0.30942   0.72253   0.00000  Uiso   1.00
C773   C     0.47375   0.02408   0.72251   0.00000  Uiso   1.00
C774   C     0.52625   0.30925   0.77749   0.00000  Uiso   1.00
C775   C     0.50156   0.16679   0.66350   0.00000  Uiso   1.00
C776   C     0.49844   0.16655   0.83650   0.00000  Uiso   1.00
C777   C     0.52306   0.19552   0.90639   0.00000  Uiso   1.00
C778   C     0.47693   0.13782   0.59362   0.00000  Uiso   1.00
C779   C     0.49610   0.16631   0.88424   0.00000  Uiso   1.00
C780   C     0.50389   0.16703   0.61576   0.00000  Uiso   1.00
C781   C     0.46860   0.13718   0.90737   0.00000  Uiso   1.00
C782   C     0.53140   0.19616   0.59263   0.00000  Uiso   1.00
C783   C     0.47047   0.13696   0.95444   0.00000  Uiso   1.00
C784   C     0.52952   0.19638   0.54556   0.00000  Uiso   1.00
C785   C     0.49878   0.16649   0.97664   0.00000  Uiso   1.00
C786   C     0.50121   0.16685   0.52336   0.00000  Uiso   1.00
C787   C     0.52470   0.19583   0.95225   0.00000  Uiso   1.00
C788   C     0.47529   0.13752   0.54775   0.00000  Uiso   1.00
C789   C     0.44503   0.10817   0.98007   0.00000  Uiso   1.00
C790   C     0.55496   0.22518   0.51993   0.00000  Uiso   1.00
H791   H     0.54369   0.21749   0.88754   0.00000  Uiso   1.00
H792   H     0.45630   0.11585   0.61246   0.00000  Uiso   1.00
H793   H     0.42304   0.08489   0.96533   0.00000  Uiso   1.00
H794   H     0.57694   0.24847   0.53467   0.00000  Uiso   1.00
H795   H     0.42756   0.08594   0.54503   0.00000  Uiso   1.00
H796   H     0.57242   0.24742   0.95497   0.00000  Uiso   1.00
H797   H     0.37107   0.09587   0.76979   0.00000  Uiso   1.00
H798   H     0.62893   0.23747   0.73010   0.00000  Uiso   1.00
H799   H     0.62921   0.09584   0.76976   0.00000  Uiso   1.00
H800   H     0.37079   0.23750   0.73015   0.00000  Uiso   1.00
H801   H     0.54724   0.04207   0.79943   0.00000  Uiso   1.00
H802   H     0.45276   0.29126   0.70057   0.00000  Uiso   1.00
H803   H     0.45277   0.04237   0.70056   0.00000  Uiso   1.00
H804   H     0.54723   0.29096   0.79944   0.00000  Uiso   1.00
N805   N     0.50000   0.28573   0.75000   0.00000  Uiso   1.00
N806   N     0.50000   0.04760   0.75000   0.00000  Uiso   1.00
O807   O     0.43892   0.20487   0.75000   0.00000  Uiso   1.00
O808   O     0.56108   0.12846   0.75001   0.00000  Uiso   1.00
O809   O     0.56108   0.20487   0.75001   0.00000  Uiso   1.00
O810   O     0.43892   0.12846   0.75000   0.00000  Uiso   1.00
O811   O     0.49999   0.20489   0.68393   0.00000  Uiso   1.00
O812   O     0.50001   0.12844   0.81608   0.00000  Uiso   1.00
O813   O     0.50001   0.20489   0.81608   0.00000  Uiso   1.00
O814   O     0.49999   0.12844   0.68393   0.00000  Uiso   1.00
Zn815  Zn    0.50000   0.21771   0.75000   0.00000  Uiso   1.00
Zn816  Zn    0.50000   0.11563   0.75000   0.00000  Uiso   1.00
C817   C     0.43688   0.10830   0.88193   0.00000  Uiso   1.00
C818   C     0.45223   0.05919   0.87660   0.00000  Uiso   1.00
C819   C     0.42417   0.03244   0.84494   0.00000  Uiso   1.00
H820   H     0.39173   0.03189   0.85757   0.00000  Uiso   1.00
H821   H     0.42455   0.04791   0.81112   0.00000  Uiso   1.00
H822   H     0.43566   0.33034   0.84238   0.00000  Uiso   1.00
H823   H     0.48441   0.05879   0.86327   0.00000  Uiso   1.00
H824   H     0.45298   0.04176   0.90946   0.00000  Uiso   1.00
H825   H     0.40617   0.10901   0.89870   0.00000  Uiso   1.00
H826   H     0.42996   0.12316   0.84864   0.00000  Uiso   1.00
C827   C     0.56311   0.22505   0.61807   0.00000  Uiso   1.00
C828   C     0.54774   0.27416   0.62340   0.00000  Uiso   1.00
C829   C     0.57580   0.30092   0.65505   0.00000  Uiso   1.00
H830   H     0.57542   0.28547   0.68888   0.00000  Uiso   1.00
H831   H     0.60824   0.30146   0.64243   0.00000  Uiso   1.00
H832   H     0.56431   0.00302   0.65760   0.00000  Uiso   1.00
H833   H     0.54698   0.29159   0.59054   0.00000  Uiso   1.00
H834   H     0.51556   0.27454   0.63674   0.00000  Uiso   1.00
H835   H     0.57004   0.21020   0.65136   0.00000  Uiso   1.00
H836   H     0.59382   0.22435   0.60130   0.00000  Uiso   1.00
C837   C     0.75328   0.16667   0.75000   0.00000  Uiso   1.00
C838   C     0.91338   0.16666   0.74999   0.00000  Uiso   1.00
C839   C     0.78086   0.10848   0.52616   0.00000  Uiso   1.00
C840   C     0.88579   0.22487   0.97384   0.00000  Uiso   1.00
C841   C     0.68807   0.12679   0.76096   0.00000  Uiso   1.00
C842   C     0.97860   0.20654   0.73897   0.00000  Uiso   1.00
C843   C     0.97876   0.12677   0.76091   0.00000  Uiso   1.00
C844   C     0.68791   0.20656   0.73902   0.00000  Uiso   1.00
C845   C     0.95752   0.16665   0.74994   0.00000  Uiso   1.00
C846   C     0.70915   0.16668   0.75002   0.00000  Uiso   1.00
C847   C     0.85960   0.02391   0.77747   0.00000  Uiso   1.00
C848   C     0.80706   0.30942   0.72253   0.00000  Uiso   1.00
C849   C     0.80708   0.02408   0.72251   0.00000  Uiso   1.00
C850   C     0.85958   0.30925   0.77749   0.00000  Uiso   1.00
C851   C     0.83489   0.16679   0.66350   0.00000  Uiso   1.00
C852   C     0.83178   0.16655   0.83650   0.00000  Uiso   1.00
C853   C     0.85640   0.19552   0.90639   0.00000  Uiso   1.00
C854   C     0.81026   0.13782   0.59362   0.00000  Uiso   1.00
C855   C     0.82944   0.16631   0.88424   0.00000  Uiso   1.00
C856   C     0.83723   0.16703   0.61576   0.00000  Uiso   1.00
C857   C     0.80193   0.13718   0.90737   0.00000  Uiso   1.00
C858   C     0.86473   0.19616   0.59263   0.00000  Uiso   1.00
C859   C     0.80380   0.13696   0.95444   0.00000  Uiso   1.00
C860   C     0.86285   0.19638   0.54556   0.00000  Uiso   1.00
C861   C     0.83212   0.16649   0.97664   0.00000  Uiso   1.00
C862   C     0.83454   0.16685   0.52336   0.00000  Uiso   1.00
C863   C     0.85803   0.19583   0.95225   0.00000  Uiso   1.00
C864   C     0.80863   0.13752   0.54775   0.00000  Uiso   1.00
C865   C     0.77836   0.10817   0.98007   0.00000  Uiso   1.00
C866   C     0.88829   0.22518   0.51993   0.00000  Uiso   1.00
H867   H     0.87702   0.21749   0.88754   0.00000  Uiso   1.00
H868   H     0.78964   0.11585   0.61246   0.00000  Uiso   1.00
H869   H     0.75637   0.08489   0.96533   0.00000  Uiso   1.00
H870   H     0.91028   0.24847   0.53467   0.00000  Uiso   1.00
H871   H     0.76089   0.08594   0.54503   0.00000  Uiso   1.00
H872   H     0.90575   0.24742   0.95497   0.00000  Uiso   1.00
H873   H     0.70440   0.09587   0.76979   0.00000  Uiso   1.00
H874   H     0.96226   0.23747   0.73010   0.00000  Uiso   1.00
H875   H     0.96254   0.09584   0.76976   0.00000  Uiso   1.00
H876   H     0.70413   0.23750   0.73015   0.00000  Uiso   1.00
H877   H     0.88057   0.04207   0.79943   0.00000  Uiso   1.00
H878   H     0.78610   0.29126   0.70057   0.00000  Uiso   1.00
H879   H     0.78611   0.04237   0.70056   0.00000  Uiso   1.00
H880   H     0.88056   0.29096   0.79944   0.00000  Uiso   1.00
N881   N     0.83333   0.28573   0.75000   0.00000  Uiso   1.00
N882   N     0.83333   0.04760   0.75000   0.00000  Uiso   1.00
O883   O     0.77226   0.20487   0.75000   0.00000  Uiso   1.00
O884   O     0.89441   0.12846   0.75001   0.00000  Uiso   1.00
O885   O     0.89441   0.20487   0.75001   0.00000  Uiso   1.00
O886   O     0.77226   0.12846   0.75000   0.00000  Uiso   1.00
O887   O     0.83333   0.20489   0.68393   0.00000  Uiso   1.00
O888   O     0.83334   0.12844   0.81608   0.00000  Uiso   1.00
O889   O     0.83334   0.20489   0.81608   0.00000  Uiso   1.00
O890   O     0.83333   0.12844   0.68393   0.00000  Uiso   1.00
Zn891  Zn    0.83333   0.21771   0.75000   0.00000  Uiso   1.00
Zn892  Zn    0.83333   0.11563   0.75000   0.00000  Uiso   1.00
C893   C     0.77021   0.10830   0.88193   0.00000  Uiso   1.00
C894   C     0.78556   0.05919   0.87660   0.00000  Uiso   1.00
C895   C     0.75751   0.03244   0.84494   0.00000  Uiso   1.00
H896   H     0.72507   0.03189   0.85757   0.00000  Uiso   1.00
H897   H     0.75788   0.04791   0.81112   0.00000  Uiso   1.00
H898   H     0.76900   0.33034   0.84238   0.00000  Uiso   1.00
H899   H     0.81774   0.05879   0.86327   0.00000  Uiso   1.00
H900   H     0.78631   0.04176   0.90946   0.00000  Uiso   1.00
H901   H     0.73950   0.10901   0.89870   0.00000  Uiso   1.00
H902   H     0.76329   0.12316   0.84864   0.00000  Uiso   1.00
C903   C     0.89644   0.22505   0.61807   0.00000  Uiso   1.00
C904   C     0.88108   0.27416   0.62340   0.00000  Uiso   1.00
C905   C     0.90913   0.30092   0.65505   0.00000  Uiso   1.00
H906   H     0.90875   0.28547   0.68888   0.00000  Uiso   1.00
H907   H     0.94157   0.30146   0.64243   0.00000  Uiso   1.00
H908   H     0.89764   0.00302   0.65760   0.00000  Uiso   1.00
H909   H     0.88032   0.29159   0.59054   0.00000  Uiso   1.00
H910   H     0.84890   0.27454   0.63674   0.00000  Uiso   1.00
H911   H     0.90337   0.21020   0.65136   0.00000  Uiso   1.00
H912   H     0.92716   0.22435   0.60130   0.00000  Uiso   1.00
C913   C     0.08662   0.50001   0.75000   0.00000  Uiso   1.00
C914   C     0.24671   0.49999   0.74999   0.00000  Uiso   1.00
C915   C     0.11420   0.44182   0.52616   0.00000  Uiso   1.00
C916   C     0.21912   0.55820   0.97384   0.00000  Uiso   1.00
C917   C     0.02140   0.46013   0.76096   0.00000  Uiso   1.00
C918   C     0.31193   0.53988   0.73897   0.00000  Uiso   1.00
C919   C     0.31209   0.46011   0.76091   0.00000  Uiso   1.00
C920   C     0.02124   0.53990   0.73902   0.00000  Uiso   1.00
C921   C     0.29085   0.49998   0.74994   0.00000  Uiso   1.00
C922   C     0.04248   0.50002   0.75002   0.00000  Uiso   1.00
C923   C     0.19294   0.35725   0.77747   0.00000  Uiso   1.00
C924   C     0.14040   0.64275   0.72253   0.00000  Uiso   1.00
C925   C     0.14042   0.35741   0.72251   0.00000  Uiso   1.00
C926   C     0.19292   0.64259   0.77749   0.00000  Uiso   1.00
C927   C     0.16822   0.50012   0.66350   0.00000  Uiso   1.00
C928   C     0.16511   0.49988   0.83650   0.00000  Uiso   1.00
C929   C     0.18973   0.52885   0.90639   0.00000  Uiso   1.00
C930   C     0.14360   0.47116   0.59362   0.00000  Uiso   1.00
C931   C     0.16277   0.49964   0.88424   0.00000  Uiso   1.00
C932   C     0.17056   0.50036   0.61576   0.00000  Uiso   1.00
C933   C     0.13526   0.47052   0.90737   0.00000  Uiso   1.00
C934   C     0.19806   0.52949   0.59263   0.00000  Uiso   1.00
C935   C     0.13714   0.47029   0.95444   0.00000  Uiso   1.00
C936   C     0.19619   0.52971   0.54556   0.00000  Uiso   1.00
C937   C     0.16545   0.49983   0.97664   0.00000  Uiso   1.00
C938   C     0.16788   0.50018   0.52336   0.00000  Uiso   1.00
C939   C     0.19137   0.52916   0.95225   0.00000  Uiso   1.00
C940   C     0.14196   0.47085   0.54775   0.00000  Uiso   1.00
C941   C     0.11169   0.44151   0.98007   0.00000  Uiso   1.00
C942   C     0.22163   0.55851   0.51993   0.00000  Uiso   1.00
H943   H     0.21036   0.55083   0.88754   0.00000  Uiso   1.00
H944   H     0.12297   0.44918   0.61246   0.00000  Uiso   1.00
H945   H     0.08971   0.41822   0.96533   0.00000  Uiso   1.00
H946   H     0.24361   0.58181   0.53467   0.00000  Uiso   1.00
H947   H     0.09423   0.41927   0.54503   0.00000  Uiso   1.00
H948   H     0.23908   0.58076   0.95497   0.00000  Uiso   1.00
H949   H     0.03774   0.42921   0.76979   0.00000  Uiso   1.00
H950   H     0.29560   0.57080   0.73010   0.00000  Uiso   1.00
H951   H     0.29587   0.42917   0.76976   0.00000  Uiso   1.00
H952   H     0.03746   0.57083   0.73015   0.00000  Uiso   1.00
H953   H     0.21390   0.37540   0.79943   0.00000  Uiso   1.00
H954   H     0.11943   0.62460   0.70057   0.00000  Uiso   1.00
H955   H     0.11944   0.37570   0.70056   0.00000  Uiso   1.00
H956   H     0.21389   0.62430   0.79944   0.00000  Uiso   1.00
N957   N     0.16667   0.61907   0.75000   0.00000  Uiso   1.00
N958   N     0.16667   0.38093   0.75000   0.00000  Uiso   1.00
O959   O     0.10559   0.53821   0.75000   0.00000  Uiso   1.00
O960   O     0.22774   0.46179   0.75001   0.00000  Uiso   1.00
O961   O     0.22774   0.53821   0.75001   0.00000  Uiso   1.00
O962   O     0.10559   0.46179   0.75000   0.00000  Uiso   1.00
O963   O     0.16666   0.53823   0.68393   0.00000  Uiso   1.00
O964   O     0.16667   0.46177   0.81608   0.00000  Uiso   1.00
O965   O     0.16667   0.53823   0.81608   0.00000  Uiso   1.00
O966   O     0.16666   0.46177   0.68393   0.00000  Uiso   1.00
Zn967  Zn    0.16667   0.55104   0.75000   0.00000  Uiso   1.00
Zn968  Zn    0.16667   0.44896   0.75000   0.00000  Uiso   1.00
C969   C     0.10355   0.44164   0.88193   0.00000  Uiso   1.00
C970   C     0.11890   0.39252   0.87660   0.00000  Uiso   1.00
C971   C     0.09084   0.36577   0.84494   0.00000  Uiso   1.00
H972   H     0.05840   0.36523   0.85757   0.00000  Uiso   1.00
H973   H     0.09121   0.38124   0.81112   0.00000  Uiso   1.00
H974   H     0.10233   0.66367   0.84238   0.00000  Uiso   1.00
H975   H     0.15107   0.39213   0.86327   0.00000  Uiso   1.00
H976   H     0.11965   0.37510   0.90946   0.00000  Uiso   1.00
H977   H     0.07283   0.44235   0.89870   0.00000  Uiso   1.00
H978   H     0.09662   0.45649   0.84864   0.00000  Uiso   1.00
C979   C     0.22978   0.55838   0.61807   0.00000  Uiso   1.00
C980   C     0.21441   0.60749   0.62340   0.00000  Uiso   1.00
C981   C     0.24246   0.63425   0.65505   0.00000  Uiso   1.00
H982   H     0.24209   0.61880   0.68888   0.00000  Uiso   1.00
H983   H     0.27490   0.63479   0.64243   0.00000  Uiso   1.00
H984   H     0.23098   0.33636   0.65760   0.00000  Uiso   1.00
H985   H     0.21365   0.62492   0.59054   0.00000  Uiso   1.00
H986   H     0.18223   0.60788   0.63674   0.00000  Uiso   1.00
H987   H     0.23670   0.54353   0.65136   0.00000  Uiso   1.00
H988   H     0.26049   0.55768   0.60130   0.00000  Uiso   1.00
C989   C     0.41995   0.50001   0.75000   0.00000  Uiso   1.00
C990   C     0.58005   0.49999   0.74999   0.00000  Uiso   1.00
C991   C     0.44753   0.44182   0.52616   0.00000  Uiso   1.00
C992   C     0.55245   0.55820   0.97384   0.00000  Uiso   1.00
C993   C     0.35474   0.46013   0.76096   0.00000  Uiso   1.00
C994   C     0.64526   0.53988   0.73897   0.00000  Uiso   1.00
C995   C     0.64542   0.46011   0.76091   0.00000  Uiso   1.00
C996   C     0.35457   0.53990   0.73902   0.00000  Uiso   1.00
C997   C     0.62418   0.49998   0.74994   0.00000  Uiso   1.00
C998   C     0.37582   0.50002   0.75002   0.00000  Uiso   1.00
C999   C     0.52627   0.35725   0.77747   0.00000  Uiso   1.00
C1000  C     0.47373   0.64275   0.72253   0.00000  Uiso   1.00
C1001  C     0.47375   0.35741   0.72251   0.00000  Uiso   1.00
C1002  C     0.52625   0.64259   0.77749   0.00000  Uiso   1.00
C1003  C     0.50156   0.50012   0.66350   0.00000  Uiso   1.00
C1004  C     0.49844   0.49988   0.83650   0.00000  Uiso   1.00
C1005  C     0.52306   0.52885   0.90639   0.00000  Uiso   1.00
C1006  C     0.47693   0.47116   0.59362   0.00000  Uiso   1.00
C1007  C     0.49610   0.49964   0.88424   0.00000  Uiso   1.00
C1008  C     0.50389   0.50036   0.61576   0.00000  Uiso   1.00
C1009  C     0.46860   0.47052   0.90737   0.00000  Uiso   1.00
C1010  C     0.53140   0.52949   0.59263   0.00000  Uiso   1.00
C1011  C     0.47047   0.47029   0.95444   0.00000  Uiso   1.00
C1012  C     0.52952   0.52971   0.54556   0.00000  Uiso   1.00
C1013  C     0.49878   0.49983   0.97664   0.00000  Uiso   1.00
C1014  C     0.50121   0.50018   0.52336   0.00000  Uiso   1.00
C1015  C     0.52470   0.52916   0.95225   0.00000  Uiso   1.00
C1016  C     0.47529   0.47085   0.54775   0.00000  Uiso   1.00
C1017  C     0.44503   0.44151   0.98007   0.00000  Uiso   1.00
C1018  C     0.55496   0.55851   0.51993   0.00000  Uiso   1.00
H1019  H     0.54369   0.55083   0.88754   0.00000  Uiso   1.00
H1020  H     0.45630   0.44918   0.61246   0.00000  Uiso   1.00
H1021  H     0.42304   0.41822   0.96533   0.00000  Uiso   1.00
H1022  H     0.57694   0.58181   0.53467   0.00000  Uiso   1.00
H1023  H     0.42756   0.41927   0.54503   0.00000  Uiso   1.00
H1024  H     0.57242   0.58076   0.95497   0.00000  Uiso   1.00
H1025  H     0.37107   0.42921   0.76979   0.00000  Uiso   1.00
H1026  H     0.62893   0.57080   0.73010   0.00000  Uiso   1.00
H1027  H     0.62921   0.42917   0.76976   0.00000  Uiso   1.00
H1028  H     0.37079   0.57083   0.73015   0.00000  Uiso   1.00
H1029  H     0.54724   0.37540   0.79943   0.00000  Uiso   1.00
H1030  H     0.45276   0.62460   0.70057   0.00000  Uiso   1.00
H1031  H     0.45277   0.37570   0.70056   0.00000  Uiso   1.00
H1032  H     0.54723   0.62430   0.79944   0.00000  Uiso   1.00
N1033  N     0.50000   0.61907   0.75000   0.00000  Uiso   1.00
N1034  N     0.50000   0.38093   0.75000   0.00000  Uiso   1.00
O1035  O     0.43892   0.53821   0.75000   0.00000  Uiso   1.00
O1036  O     0.56108   0.46179   0.75001   0.00000  Uiso   1.00
O1037  O     0.56108   0.53821   0.75001   0.00000  Uiso   1.00
O1038  O     0.43892   0.46179   0.75000   0.00000  Uiso   1.00
O1039  O     0.49999   0.53823   0.68393   0.00000  Uiso   1.00
O1040  O     0.50001   0.46177   0.81608   0.00000  Uiso   1.00
O1041  O     0.50001   0.53823   0.81608   0.00000  Uiso   1.00
O1042  O     0.49999   0.46177   0.68393   0.00000  Uiso   1.00
Zn1043 Zn    0.50000   0.55104   0.75000   0.00000  Uiso   1.00
Zn1044 Zn    0.50000   0.44896   0.75000   0.00000  Uiso   1.00
C1045  C     0.43688   0.44164   0.88193   0.00000  Uiso   1.00
C1046  C     0.45223   0.39252   0.87660   0.00000  Uiso   1.00
C1047  C     0.42417   0.36577   0.84494   0.00000  Uiso   1.00
H1048  H     0.39173   0.36523   0.85757   0.00000  Uiso   1.00
H1049  H     0.42455   0.38124   0.81112   0.00000  Uiso   1.00
H1050  H     0.43566   0.66367   0.84238   0.00000  Uiso   1.00
H1051  H     0.48441   0.39213   0.86327   0.00000  Uiso   1.00
H1052  H     0.45298   0.37510   0.90946   0.00000  Uiso   1.00
H1053  H     0.40617   0.44235   0.89870   0.00000  Uiso   1.00
H1054  H     0.42996   0.45649   0.84864   0.00000  Uiso   1.00
C1055  C     0.56311   0.55838   0.61807   0.00000  Uiso   1.00
C1056  C     0.54774   0.60749   0.62340   0.00000  Uiso   1.00
C1057  C     0.57580   0.63425   0.65505   0.00000  Uiso   1.00
H1058  H     0.57542   0.61880   0.68888   0.00000  Uiso   1.00
H1059  H     0.60824   0.63479   0.64243   0.00000  Uiso   1.00
H1060  H     0.56431   0.33636   0.65760   0.00000  Uiso   1.00
H1061  H     0.54698   0.62492   0.59054   0.00000  Uiso   1.00
H1062  H     0.51556   0.60788   0.63674   0.00000  Uiso   1.00
H1063  H     0.57004   0.54353   0.65136   0.00000  Uiso   1.00
H1064  H     0.59382   0.55768   0.60130   0.00000  Uiso   1.00
C1065  C     0.75328   0.50001   0.75000   0.00000  Uiso   1.00
C1066  C     0.91338   0.49999   0.74999   0.00000  Uiso   1.00
C1067  C     0.78086   0.44182   0.52616   0.00000  Uiso   1.00
C1068  C     0.88579   0.55820   0.97384   0.00000  Uiso   1.00
C1069  C     0.68807   0.46013   0.76096   0.00000  Uiso   1.00
C1070  C     0.97860   0.53988   0.73897   0.00000  Uiso   1.00
C1071  C     0.97876   0.46011   0.76091   0.00000  Uiso   1.00
C1072  C     0.68791   0.53990   0.73902   0.00000  Uiso   1.00
C1073  C     0.95752   0.49998   0.74994   0.00000  Uiso   1.00
C1074  C     0.70915   0.50002   0.75002   0.00000  Uiso   1.00
C1075  C     0.85960   0.35725   0.77747   0.00000  Uiso   1.00
C1076  C     0.80706   0.64275   0.72253   0.00000  Uiso   1.00
C1077  C     0.80708   0.35741   0.72251   0.00000  Uiso   1.00
C1078  C     0.85958   0.64259   0.77749   0.00000  Uiso   1.00
C1079  C     0.83489   0.50012   0.66350   0.00000  Uiso   1.00
C1080  C     0.83178   0.49988   0.83650   0.00000  Uiso   1.00
C1081  C     0.85640   0.52885   0.90639   0.00000  Uiso   1.00
C1082  C     0.81026   0.47116   0.59362   0.00000  Uiso   1.00
C1083  C     0.82944   0.49964   0.88424   0.00000  Uiso   1.00
C1084  C     0.83723   0.50036   0.61576   0.00000  Uiso   1.00
C1085  C     0.80193   0.47052   0.90737   0.00000  Uiso   1.00
C1086  C     0.86473   0.52949   0.59263   0.00000  Uiso   1.00
C1087  C     0.80380   0.47029   0.95444   0.00000  Uiso   1.00
C1088  C     0.86285   0.52971   0.54556   0.00000  Uiso   1.00
C1089  C     0.83212   0.49983   0.97664   0.00000  Uiso   1.00
C1090  C     0.83454   0.50018   0.52336   0.00000  Uiso   1.00
C1091  C     0.85803   0.52916   0.95225   0.00000  Uiso   1.00
C1092  C     0.80863   0.47085   0.54775   0.00000  Uiso   1.00
C1093  C     0.77836   0.44151   0.98007   0.00000  Uiso   1.00
C1094  C     0.88829   0.55851   0.51993   0.00000  Uiso   1.00
H1095  H     0.87702   0.55083   0.88754   0.00000  Uiso   1.00
H1096  H     0.78964   0.44918   0.61246   0.00000  Uiso   1.00
H1097  H     0.75637   0.41822   0.96533   0.00000  Uiso   1.00
H1098  H     0.91028   0.58181   0.53467   0.00000  Uiso   1.00
H1099  H     0.76089   0.41927   0.54503   0.00000  Uiso   1.00
H1100  H     0.90575   0.58076   0.95497   0.00000  Uiso   1.00
H1101  H     0.70440   0.42921   0.76979   0.00000  Uiso   1.00
H1102  H     0.96226   0.57080   0.73010   0.00000  Uiso   1.00
H1103  H     0.96254   0.42917   0.76976   0.00000  Uiso   1.00
H1104  H     0.70413   0.57083   0.73015   0.00000  Uiso   1.00
H1105  H     0.88057   0.37540   0.79943   0.00000  Uiso   1.00
H1106  H     0.78610   0.62460   0.70057   0.00000  Uiso   1.00
H1107  H     0.78611   0.37570   0.70056   0.00000  Uiso   1.00
H1108  H     0.88056   0.62430   0.79944   0.00000  Uiso   1.00
N1109  N     0.83333   0.61907   0.75000   0.00000  Uiso   1.00
N1110  N     0.83333   0.38093   0.75000   0.00000  Uiso   1.00
O1111  O     0.77226   0.53821   0.75000   0.00000  Uiso   1.00
O1112  O     0.89441   0.46179   0.75001   0.00000  Uiso   1.00
O1113  O     0.89441   0.53821   0.75001   0.00000  Uiso   1.00
O1114  O     0.77226   0.46179   0.75000   0.00000  Uiso   1.00
O1115  O     0.83333   0.53823   0.68393   0.00000  Uiso   1.00
O1116  O     0.83334   0.46177   0.81608   0.00000  Uiso   1.00
O1117  O     0.83334   0.53823   0.81608   0.00000  Uiso   1.00
O1118  O     0.83333   0.46177   0.68393   0.00000  Uiso   1.00
Zn1119 Zn    0.83333   0.55104   0.75000   0.00000  Uiso   1.00
Zn1120 Zn    0.83333   0.44896   0.75000   0.00000  Uiso   1.00
C1121  C     0.77021   0.44164   0.88193   0.00000  Uiso   1.00
C1122  C     0.78556   0.39252   0.87660   0.00000  Uiso   1.00
C1123  C     0.75751   0.36577   0.84494   0.00000  Uiso   1.00
H1124  H     0.72507   0.36523   0.85757   0.00000  Uiso   1.00
H1125  H     0.75788   0.38124   0.81112   0.00000  Uiso   1.00
H1126  H     0.76900   0.66367   0.84238   0.00000  Uiso   1.00
H1127  H     0.81774   0.39213   0.86327   0.00000  Uiso   1.00
H1128  H     0.78631   0.37510   0.90946   0.00000  Uiso   1.00
H1129  H     0.73950   0.44235   0.89870   0.00000  Uiso   1.00
H1130  H     0.76329   0.45649   0.84864   0.00000  Uiso   1.00
C1131  C     0.89644   0.55838   0.61807   0.00000  Uiso   1.00
C1132  C     0.88108   0.60749   0.62340   0.00000  Uiso   1.00
C1133  C     0.90913   0.63425   0.65505   0.00000  Uiso   1.00
H1134  H     0.90875   0.61880   0.68888   0.00000  Uiso   1.00
H1135  H     0.94157   0.63479   0.64243   0.00000  Uiso   1.00
H1136  H     0.89764   0.33636   0.65760   0.00000  Uiso   1.00
H1137  H     0.88032   0.62492   0.59054   0.00000  Uiso   1.00
H1138  H     0.84890   0.60788   0.63674   0.00000  Uiso   1.00
H1139  H     0.90337   0.54353   0.65136   0.00000  Uiso   1.00
H1140  H     0.92716   0.55768   0.60130   0.00000  Uiso   1.00
C1141  C     0.08662   0.83334   0.75000   0.00000  Uiso   1.00
C1142  C     0.24671   0.83333   0.74999   0.00000  Uiso   1.00
C1143  C     0.11420   0.77515   0.52616   0.00000  Uiso   1.00
C1144  C     0.21912   0.89153   0.97384   0.00000  Uiso   1.00
C1145  C     0.02140   0.79346   0.76096   0.00000  Uiso   1.00
C1146  C     0.31193   0.87321   0.73897   0.00000  Uiso   1.00
C1147  C     0.31209   0.79344   0.76091   0.00000  Uiso   1.00
C1148  C     0.02124   0.87323   0.73902   0.00000  Uiso   1.00
C1149  C     0.29085   0.83332   0.74994   0.00000  Uiso   1.00
C1150  C     0.04248   0.83335   0.75002   0.00000  Uiso   1.00
C1151  C     0.19294   0.69058   0.77747   0.00000  Uiso   1.00
C1152  C     0.14040   0.97609   0.72253   0.00000  Uiso   1.00
C1153  C     0.14042   0.69075   0.72251   0.00000  Uiso   1.00
C1154  C     0.19292   0.97592   0.77749   0.00000  Uiso   1.00
C1155  C     0.16822   0.83345   0.66350   0.00000  Uiso   1.00
C1156  C     0.16511   0.83321   0.83650   0.00000  Uiso   1.00
C1157  C     0.18973   0.86218   0.90639   0.00000  Uiso   1.00
C1158  C     0.14360   0.80449   0.59362   0.00000  Uiso   1.00
C1159  C     0.16277   0.83297   0.88424   0.00000  Uiso   1.00
C1160  C     0.17056   0.83370   0.61576   0.00000  Uiso   1.00
C1161  C     0.13526   0.80385   0.90737   0.00000  Uiso   1.00
C1162  C     0.19806   0.86282   0.59263   0.00000  Uiso   1.00
C1163  C     0.13714   0.80363   0.95444   0.00000  Uiso   1.00
C1164  C     0.19619   0.86305   0.54556   0.00000  Uiso   1.00
C1165  C     0.16545   0.83316   0.97664   0.00000  Uiso   1.00
C1166  C     0.16788   0.83351   0.52336   0.00000  Uiso   1.00
C1167  C     0.19137   0.86249   0.95225   0.00000  Uiso   1.00
C1168  C     0.14196   0.80418   0.54775   0.00000  Uiso   1.00
C1169  C     0.11169   0.77484   0.98007   0.00000  Uiso   1.00
C1170  C     0.22163   0.89185   0.51993   0.00000  Uiso   1.00
H1171  H     0.21036   0.88416   0.88754   0.00000  Uiso   1.00
H1172  H     0.12297   0.78252   0.61246   0.00000  Uiso   1.00
H1173  H     0.08971   0.75155   0.96533   0.00000  Uiso   1.00
H1174  H     0.24361   0.91514   0.53467   0.00000  Uiso   1.00
H1175  H     0.09423   0.75260   0.54503   0.00000  Uiso   1.00
H1176  H     0.23908   0.91409   0.95497   0.00000  Uiso   1.00
H1177  H     0.03774   0.76254   0.76979   0.00000  Uiso   1.00
H1178  H     0.29560   0.90413   0.73010   0.00000  Uiso   1.00
H1179  H     0.29587   0.76250   0.76976   0.00000  Uiso   1.00
H1180  H     0.03746   0.90417   0.73015   0.00000  Uiso   1.00
H1181  H     0.21390   0.70874   0.79943   0.00000  Uiso   1.00
H1182  H     0.11943   0.95793   0.70057   0.00000  Uiso   1.00
H1183  H     0.11944   0.70904   0.70056   0.00000  Uiso   1.00
H1184  H     0.21389   0.95763   0.79944   0.00000  Uiso   1.00
N1185  N     0.16667   0.95240   0.75000   0.00000  Uiso   1.00
N1186  N     0.16667   0.71427   0.75000   0.00000  Uiso   1.00
O1187  O     0.10559   0.87154   0.75000   0.00000  Uiso   1.00
O1188  O     0.22774   0.79513   0.75001   0.00000  Uiso   1.00
O1189  O     0.22774   0.87154   0.75001   0.00000  Uiso   1.00
O1190  O     0.10559   0.79513   0.75000   0.00000  Uiso   1.00
O1191  O     0.16666   0.87156   0.68393   0.00000  Uiso   1.00
O1192  O     0.16667   0.79511   0.81608   0.00000  Uiso   1.00
O1193  O     0.16667   0.87156   0.81608   0.00000  Uiso   1.00
O1194  O     0.16666   0.79511   0.68393   0.00000  Uiso   1.00
Zn1195 Zn    0.16667   0.88437   0.75000   0.00000  Uiso   1.00
Zn1196 Zn    0.16667   0.78229   0.75000   0.00000  Uiso   1.00
C1197  C     0.10355   0.77497   0.88193   0.00000  Uiso   1.00
C1198  C     0.11890   0.72585   0.87660   0.00000  Uiso   1.00
C1199  C     0.09084   0.69911   0.84494   0.00000  Uiso   1.00
H1200  H     0.05840   0.69856   0.85757   0.00000  Uiso   1.00
H1201  H     0.09121   0.71457   0.81112   0.00000  Uiso   1.00
H1202  H     0.10233   0.99701   0.84238   0.00000  Uiso   1.00
H1203  H     0.15107   0.72546   0.86327   0.00000  Uiso   1.00
H1204  H     0.11965   0.70843   0.90946   0.00000  Uiso   1.00
H1205  H     0.07283   0.77568   0.89870   0.00000  Uiso   1.00
H1206  H     0.09662   0.78982   0.84864   0.00000  Uiso   1.00
C1207  C     0.22978   0.89171   0.61807   0.00000  Uiso   1.00
C1208  C     0.21441   0.94083   0.62340   0.00000  Uiso   1.00
C1209  C     0.24246   0.96759   0.65505   0.00000  Uiso   1.00
H1210  H     0.24209   0.95214   0.68888   0.00000  Uiso   1.00
H1211  H     0.27490   0.96813   0.64243   0.00000  Uiso   1.00
H1212  H     0.23098   0.66969   0.65760   0.00000  Uiso   1.00
H1213  H     0.21365   0.95825   0.59054   0.00000  Uiso   1.00
H1214  H     0.18223   0.94121   0.63674   0.00000  Uiso   1.00
H1215  H     0.23670   0.87686   0.65136   0.00000  Uiso   1.00
H1216  H     0.26049   0.89102   0.60130   0.00000  Uiso   1.00
C1217  C     0.41995   0.83334   0.75000   0.00000  Uiso   1.00
C1218  C     0.58005   0.83333   0.74999   0.00000  Uiso   1.00
C1219  C     0.44753   0.77515   0.52616   0.00000  Uiso   1.00
C1220  C     0.55245   0.89153   0.97384   0.00000  Uiso   1.00
C1221  C     0.35474   0.79346   0.76096   0.00000  Uiso   1.00
C1222  C     0.64526   0.87321   0.73897   0.00000  Uiso   1.00
C1223  C     0.64542   0.79344   0.76091   0.00000  Uiso   1.00
C1224  C     0.35457   0.87323   0.73902   0.00000  Uiso   1.00
C1225  C     0.62418   0.83332   0.74994   0.00000  Uiso   1.00
C1226  C     0.37582   0.83335   0.75002   0.00000  Uiso   1.00
C1227  C     0.52627   0.69058   0.77747   0.00000  Uiso   1.00
C1228  C     0.47373   0.97609   0.72253   0.00000  Uiso   1.00
C1229  C     0.47375   0.69075   0.72251   0.00000  Uiso   1.00
C1230  C     0.52625   0.97592   0.77749   0.00000  Uiso   1.00
C1231  C     0.50156   0.83345   0.66350   0.00000  Uiso   1.00
C1232  C     0.49844   0.83321   0.83650   0.00000  Uiso   1.00
C1233  C     0.52306   0.86218   0.90639   0.00000  Uiso   1.00
C1234  C     0.47693   0.80449   0.59362   0.00000  Uiso   1.00
C1235  C     0.49610   0.83297   0.88424   0.00000  Uiso   1.00
C1236  C     0.50389   0.83370   0.61576   0.00000  Uiso   1.00
C1237  C     0.46860   0.80385   0.90737   0.00000  Uiso   1.00
C1238  C     0.53140   0.86282   0.59263   0.00000  Uiso   1.00
C1239  C     0.47047   0.80363   0.95444   0.00000  Uiso   1.00
C1240  C     0.52952   0.86305   0.54556   0.00000  Uiso   1.00
C1241  C     0.49878   0.83316   0.97664   0.00000  Uiso   1.00
C1242  C     0.50121   0.83351   0.52336   0.00000  Uiso   1.00
C1243  C     0.52470   0.86249   0.95225   0.00000  Uiso   1.00
C1244  C     0.47529   0.80418   0.54775   0.00000  Uiso   1.00
C1245  C     0.44503   0.77484   0.98007   0.00000  Uiso   1.00
C1246  C     0.55496   0.89185   0.51993   0.00000  Uiso   1.00
H1247  H     0.54369   0.88416   0.88754   0.00000  Uiso   1.00
H1248  H     0.45630   0.78252   0.61246   0.00000  Uiso   1.00
H1249  H     0.42304   0.75155   0.96533   0.00000  Uiso   1.00
H1250  H     0.57694   0.91514   0.53467   0.00000  Uiso   1.00
H1251  H     0.42756   0.75260   0.54503   0.00000  Uiso   1.00
H1252  H     0.57242   0.91409   0.95497   0.00000  Uiso   1.00
H1253  H     0.37107   0.76254   0.76979   0.00000  Uiso   1.00
H1254  H     0.62893   0.90413   0.73010   0.00000  Uiso   1.00
H1255  H     0.62921   0.76250   0.76976   0.00000  Uiso   1.00
H1256  H     0.37079   0.90417   0.73015   0.00000  Uiso   1.00
H1257  H     0.54724   0.70874   0.79943   0.00000  Uiso   1.00
H1258  H     0.45276   0.95793   0.70057   0.00000  Uiso   1.00
H1259  H     0.45277   0.70904   0.70056   0.00000  Uiso   1.00
H1260  H     0.54723   0.95763   0.79944   0.00000  Uiso   1.00
N1261  N     0.50000   0.95240   0.75000   0.00000  Uiso   1.00
N1262  N     0.50000   0.71427   0.75000   0.00000  Uiso   1.00
O1263  O     0.43892   0.87154   0.75000   0.00000  Uiso   1.00
O1264  O     0.56108   0.79513   0.75001   0.00000  Uiso   1.00
O1265  O     0.56108   0.87154   0.75001   0.00000  Uiso   1.00
O1266  O     0.43892   0.79513   0.75000   0.00000  Uiso   1.00
O1267  O     0.49999   0.87156   0.68393   0.00000  Uiso   1.00
O1268  O     0.50001   0.79511   0.81608   0.00000  Uiso   1.00
O1269  O     0.50001   0.87156   0.81608   0.00000  Uiso   1.00
O1270  O     0.49999   0.79511   0.68393   0.00000  Uiso   1.00
Zn1271 Zn    0.50000   0.88437   0.75000   0.00000  Uiso   1.00
Zn1272 Zn    0.50000   0.78229   0.75000   0.00000  Uiso   1.00
C1273  C     0.43688   0.77497   0.88193   0.00000  Uiso   1.00
C1274  C     0.45223   0.72585   0.87660   0.00000  Uiso   1.00
C1275  C     0.42417   0.69911   0.84494   0.00000  Uiso   1.00
H1276  H     0.39173   0.69856   0.85757   0.00000  Uiso   1.00
H1277  H     0.42455   0.71457   0.81112   0.00000  Uiso   1.00
H1278  H     0.43566   0.99701   0.84238   0.00000  Uiso   1.00
H1279  H     0.48441   0.72546   0.86327   0.00000  Uiso   1.00
H1280  H     0.45298   0.70843   0.90946   0.00000  Uiso   1.00
H1281  H     0.40617   0.77568   0.89870   0.00000  Uiso   1.00
H1282  H     0.42996   0.78982   0.84864   0.00000  Uiso   1.00
C1283  C     0.56311   0.89171   0.61807   0.00000  Uiso   1.00
C1284  C     0.54774   0.94083   0.62340   0.00000  Uiso   1.00
C1285  C     0.57580   0.96759   0.65505   0.00000  Uiso   1.00
H1286  H     0.57542   0.95214   0.68888   0.00000  Uiso   1.00
H1287  H     0.60824   0.96813   0.64243   0.00000  Uiso   1.00
H1288  H     0.56431   0.66969   0.65760   0.00000  Uiso   1.00
H1289  H     0.54698   0.95825   0.59054   0.00000  Uiso   1.00
H1290  H     0.51556   0.94121   0.63674   0.00000  Uiso   1.00
H1291  H     0.57004   0.87686   0.65136   0.00000  Uiso   1.00
H1292  H     0.59382   0.89102   0.60130   0.00000  Uiso   1.00
C1293  C     0.75328   0.83334   0.75000   0.00000  Uiso   1.00
C1294  C     0.91338   0.83333   0.74999   0.00000  Uiso   1.00
C1295  C     0.78086   0.77515   0.52616   0.00000  Uiso   1.00
C1296  C     0.88579   0.89153   0.97384   0.00000  Uiso   1.00
C1297  C     0.68807   0.79346   0.76096   0.00000  Uiso   1.00
C1298  C     0.97860   0.87321   0.73897   0.00000  Uiso   1.00
C1299  C     0.97876   0.79344   0.76091   0.00000  Uiso   1.00
C1300  C     0.68791   0.87323   0.73902   0.00000  Uiso   1.00
C1301  C     0.95752   0.83332   0.74994   0.00000  Uiso   1.00
C1302  C     0.70915   0.83335   0.75002   0.00000  Uiso   1.00
C1303  C     0.85960   0.69058   0.77747   0.00000  Uiso   1.00
C1304  C     0.80706   0.97609   0.72253   0.00000  Uiso   1.00
C1305  C     0.80708   0.69075   0.72251   0.00000  Uiso   1.00
C1306  C     0.85958   0.97592   0.77749   0.00000  Uiso   1.00
C1307  C     0.83489   0.83345   0.66350   0.00000  Uiso   1.00
C1308  C     0.83178   0.83321   0.83650   0.00000  Uiso   1.00
C1309  C     0.85640   0.86218   0.90639   0.00000  Uiso   1.00
C1310  C     0.81026   0.80449   0.59362   0.00000  Uiso   1.00
C1311  C     0.82944   0.83297   0.88424   0.00000  Uiso   1.00
C1312  C     0.83723   0.83370   0.61576   0.00000  Uiso   1.00
C1313  C     0.80193   0.80385   0.90737   0.00000  Uiso   1.00
C1314  C     0.86473   0.86282   0.59263   0.00000  Uiso   1.00
C1315  C     0.80380   0.80363   0.95444   0.00000  Uiso   1.00
C1316  C     0.86285   0.86305   0.54556   0.00000  Uiso   1.00
C1317  C     0.83212   0.83316   0.97664   0.00000  Uiso   1.00
C1318  C     0.83454   0.83351   0.52336   0.00000  Uiso   1.00
C1319  C     0.85803   0.86249   0.95225   0.00000  Uiso   1.00
C1320  C     0.80863   0.80418   0.54775   0.00000  Uiso   1.00
C1321  C     0.77836   0.77484   0.98007   0.00000  Uiso   1.00
C1322  C     0.88829   0.89185   0.51993   0.00000  Uiso   1.00
H1323  H     0.87702   0.88416   0.88754   0.00000  Uiso   1.00
H1324  H     0.78964   0.78252   0.61246   0.00000  Uiso   1.00
H1325  H     0.75637   0.75155   0.96533   0.00000  Uiso   1.00
H1326  H     0.91028   0.91514   0.53467   0.00000  Uiso   1.00
H1327  H     0.76089   0.75260   0.54503   0.00000  Uiso   1.00
H1328  H     0.90575   0.91409   0.95497   0.00000  Uiso   1.00
H1329  H     0.70440   0.76254   0.76979   0.00000  Uiso   1.00
H1330  H     0.96226   0.90413   0.73010   0.00000  Uiso   1.00
H1331  H     0.96254   0.76250   0.76976   0.00000  Uiso   1.00
H1332  H     0.70413   0.90417   0.73015   0.00000  Uiso   1.00
H1333  H     0.88057   0.70874   0.79943   0.00000  Uiso   1.00
H1334  H     0.78610   0.95793   0.70057   0.00000  Uiso   1.00
H1335  H     0.78611   0.70904   0.70056   0.00000  Uiso   1.00
H1336  H     0.88056   0.95763   0.79944   0.00000  Uiso   1.00
N1337  N     0.83333   0.95240   0.75000   0.00000  Uiso   1.00
N1338  N     0.83333   0.71427   0.75000   0.00000  Uiso   1.00
O1339  O     0.77226   0.87154   0.75000   0.00000  Uiso   1.00
O1340  O     0.89441   0.79513   0.75001   0.00000  Uiso   1.00
O1341  O     0.89441   0.87154   0.75001   0.00000  Uiso   1.00
O1342  O     0.77226   0.79513   0.75000   0.00000  Uiso   1.00
O1343  O     0.83333   0.87156   0.68393   0.00000  Uiso   1.00
O1344  O     0.83334   0.79511   0.81608   0.00000  Uiso   1.00
O1345  O     0.83334   0.87156   0.81608   0.00000  Uiso   1.00
O1346  O     0.83333   0.79511   0.68393   0.00000  Uiso   1.00
Zn1347 Zn    0.83333   0.88437   0.75000   0.00000  Uiso   1.00
Zn1348 Zn    0.83333   0.78229   0.75000   0.00000  Uiso   1.00
C1349  C     0.77021   0.77497   0.88193   0.00000  Uiso   1.00
C1350  C     0.78556   0.72585   0.87660   0.00000  Uiso   1.00
C1351  C     0.75751   0.69911   0.84494   0.00000  Uiso   1.00
H1352  H     0.72507   0.69856   0.85757   0.00000  Uiso   1.00
H1353  H     0.75788   0.71457   0.81112   0.00000  Uiso   1.00
H1354  H     0.76900   0.99701   0.84238   0.00000  Uiso   1.00
H1355  H     0.81774   0.72546   0.86327   0.00000  Uiso   1.00
H1356  H     0.78631   0.70843   0.90946   0.00000  Uiso   1.00
H1357  H     0.73950   0.77568   0.89870   0.00000  Uiso   1.00
H1358  H     0.76329   0.78982   0.84864   0.00000  Uiso   1.00
C1359  C     0.89644   0.89171   0.61807   0.00000  Uiso   1.00
C1360  C     0.88108   0.94083   0.62340   0.00000  Uiso   1.00
C1361  C     0.90913   0.96759   0.65505   0.00000  Uiso   1.00
H1362  H     0.90875   0.95214   0.68888   0.00000  Uiso   1.00
H1363  H     0.94157   0.96813   0.64243   0.00000  Uiso   1.00
H1364  H     0.89764   0.66969   0.65760   0.00000  Uiso   1.00
H1365  H     0.88032   0.95825   0.59054   0.00000  Uiso   1.00
H1366  H     0.84890   0.94121   0.63674   0.00000  Uiso   1.00
H1367  H     0.90337   0.87686   0.65136   0.00000  Uiso   1.00
H1368  H     0.92716   0.89102   0.60130   0.00000  Uiso   1.00
loop_
_geom_bond_atom_site_label_1
_geom_bond_atom_site_label_2
_geom_bond_distance
_geom_bond_site_symmetry_2
_ccdc_geom_bond_type
C1     O50     1.281   .     A
C1     O47     1.281   .     A
C1     C10     1.418   .     S
C2     O48     1.281   .     A
C2     O49     1.281   .     A
C2     C9      1.418   .     S
C3     C28     1.394   .     A
C3     H35     1.084   .     S
C3     C713    1.383   1_554 S
C4     H36     1.084   .     S
C4     C27     1.394   .     A
C4     C714    1.383   .     S
C5     H37     1.083   .     S
C5     C10     1.397   .     A
C5     C159    1.370   1_455 S
C6     C9      1.397   .     A
C6     H38     1.083   .     S
C6     C84     1.370   .     S
C7     C9      1.397   .     A
C7     H39     1.084   .     S
C7     C81     1.370   .     S
C8     C10     1.397   .     A
C8     H40     1.084   .     S
C8     C158    1.370   1_455 S
C11    H41     1.082   .     S
C11    N46     1.366   .     A
C11    C470    1.415   1_545 S
C12    H42     1.082   .     S
C12    N45     1.366   .     A
C12    C241    1.415   .     S
C13    N46     1.366   .     A
C13    H43     1.082   .     S
C13    C468    1.415   1_545 S
C14    N45     1.366   .     A
C14    H44     1.082   .     S
C14    C239    1.415   .     S
C15    O51     1.282   .     A
C15    C20     1.433   .     S
C15    O54     1.285   .     A
C16    O53     1.285   .     A
C16    O52     1.282   .     A
C16    C19     1.433   .     S
C17    C27     1.375   .     A
C17    H31     1.087   .     S
C17    C19     1.389   .     A
C18    C20     1.389   .     A
C18    C28     1.375   .     A
C18    H32     1.087   .     S
C19    C21     1.415   .     A
C20    C22     1.415   .     A
C21    C57     1.529   .     S
C21    C23     1.411   .     A
C22    C24     1.411   .     A
C22    C67     1.529   .     S
C23    C29     1.408   .     A
C23    C25     1.423   .     A
C24    C26     1.423   .     A
C24    C30     1.408   .     A
C25    C27     1.407   .     A
C25    C710    1.401   .     S
C26    C28     1.407   .     A
C26    C709    1.401   1_554 S
C29    H33     1.079   .     S
C29    C687    1.383   .     S
C30    H34     1.079   .     S
C30    C688    1.383   1_554 S
N45    Zn55    2.006   .     S
N46    Zn56    2.006   .     S
O47    Zn55    1.998   .     S
O48    Zn56    1.998   .     S
O49    Zn55    1.998   .     S
O50    Zn56    1.998   .     S
O51    Zn55    2.016   .     S
O52    Zn56    2.016   .     S
O53    Zn55    2.014   .     S
O54    Zn56    2.014   .     S
C57    H66     1.110   .     S
C57    H65     1.110   .     S
C57    C58     1.538   .     S
C58    H64     1.110   .     S
C58    C59     1.526   .     S
C58    H63     1.110   .     S
C59    H60     1.111   .     S
C59    H61     1.110   .     S
C59    H518    1.111   1_545 S
H62    C287    1.111   .     S
C67    C68     1.539   .     S
C67    H75     1.110   .     S
C67    H76     1.110   .     S
C68    H74     1.110   .     S
C68    C69     1.526   .     S
C68    H73     1.110   .     S
C69    H71     1.111   .     S
C69    H70     1.110   .     S
C69    H300    1.111   .     S
H72    C525    1.111   1_545 S
C77    O126    1.281   .     A
C77    O123    1.281   .     A
C77    C86     1.418   .     S
C78    O124    1.281   .     A
C78    O125    1.281   .     A
C78    C85     1.418   .     S
C79    C104    1.394   .     A
C79    H111    1.084   .     S
C79    C789    1.383   1_554 S
C80    H112    1.084   .     S
C80    C103    1.394   .     A
C80    C790    1.383   .     S
C81    H113    1.083   .     S
C81    C86     1.397   .     A
C82    C85     1.397   .     A
C82    H114    1.083   .     S
C82    C160    1.370   .     S
C83    C85     1.397   .     A
C83    H115    1.084   .     S
C83    C157    1.370   .     S
C84    C86     1.397   .     A
C84    H116    1.084   .     S
C87    H117    1.082   .     S
C87    N122    1.366   .     A
C87    C546    1.415   1_545 S
C88    H118    1.082   .     S
C88    N121    1.366   .     A
C88    C317    1.415   .     S
C89    N122    1.366   .     A
C89    H119    1.082   .     S
C89    C544    1.415   1_545 S
C90    N121    1.366   .     A
C90    H120    1.082   .     S
C90    C315    1.415   .     S
C91    O127    1.282   .     A
C91    C96     1.433   .     S
C91    O130    1.285   .     A
C92    O129    1.285   .     A
C92    O128    1.282   .     A
C92    C95     1.433   .     S
C93    C103    1.375   .     A
C93    H107    1.087   .     S
C93    C95     1.389   .     A
C94    C96     1.389   .     A
C94    C104    1.375   .     A
C94    H108    1.087   .     S
C95    C97     1.415   .     A
C96    C98     1.415   .     A
C97    C133    1.529   .     S
C97    C99     1.411   .     A
C98    C100    1.411   .     A
C98    C143    1.529   .     S
C99    C105    1.408   .     A
C99    C101    1.423   .     A
C100   C102    1.423   .     A
C100   C106    1.408   .     A
C101   C103    1.407   .     A
C101   C786    1.401   .     S
C102   C104    1.407   .     A
C102   C785    1.401   1_554 S
C105   H109    1.079   .     S
C105   C763    1.383   .     S
C106   H110    1.079   .     S
C106   C764    1.383   1_554 S
N121   Zn131   2.006   .     S
N122   Zn132   2.006   .     S
O123   Zn131   1.998   .     S
O124   Zn132   1.998   .     S
O125   Zn131   1.998   .     S
O126   Zn132   1.998   .     S
O127   Zn131   2.016   .     S
O128   Zn132   2.016   .     S
O129   Zn131   2.014   .     S
O130   Zn132   2.014   .     S
C133   H142    1.110   .     S
C133   H141    1.110   .     S
C133   C134    1.538   .     S
C134   H140    1.110   .     S
C134   C135    1.526   .     S
C134   H139    1.110   .     S
C135   H136    1.111   .     S
C135   H137    1.110   .     S
C135   H594    1.111   1_545 S
H138   C363    1.111   .     S
C143   C144    1.539   .     S
C143   H151    1.110   .     S
C143   H152    1.110   .     S
C144   H150    1.110   .     S
C144   C145    1.526   .     S
C144   H149    1.110   .     S
C145   H147    1.111   .     S
C145   H146    1.110   .     S
C145   H376    1.111   .     S
H148   C601    1.111   1_545 S
C153   O202    1.281   .     A
C153   O199    1.281   .     A
C153   C162    1.418   .     S
C154   O200    1.281   .     A
C154   O201    1.281   .     A
C154   C161    1.418   .     S
C155   C180    1.394   .     A
C155   H187    1.084   .     S
C155   C865    1.383   1_554 S
C156   H188    1.084   .     S
C156   C179    1.394   .     A
C156   C866    1.383   .     S
C157   H189    1.083   .     S
C157   C162    1.397   .     A
C158   C161    1.397   .     A
C158   H190    1.083   .     S
C158   C8      1.370   1_655 S
C159   C161    1.397   .     A
C159   H191    1.084   .     S
C159   C5      1.370   1_655 S
C160   C162    1.397   .     A
C160   H192    1.084   .     S
C163   H193    1.082   .     S
C163   N198    1.366   .     A
C163   C622    1.415   1_545 S
C164   H194    1.082   .     S
C164   N197    1.366   .     A
C164   C393    1.415   .     S
C165   N198    1.366   .     A
C165   H195    1.082   .     S
C165   C620    1.415   1_545 S
C166   N197    1.366   .     A
C166   H196    1.082   .     S
C166   C391    1.415   .     S
C167   O203    1.282   .     A
C167   C172    1.433   .     S
C167   O206    1.285   .     A
C168   O205    1.285   .     A
C168   O204    1.282   .     A
C168   C171    1.433   .     S
C169   C179    1.375   .     A
C169   H183    1.087   .     S
C169   C171    1.389   .     A
C170   C172    1.389   .     A
C170   C180    1.375   .     A
C170   H184    1.087   .     S
C171   C173    1.415   .     A
C172   C174    1.415   .     A
C173   C209    1.529   .     S
C173   C175    1.411   .     A
C174   C176    1.411   .     A
C174   C219    1.529   .     S
C175   C181    1.408   .     A
C175   C177    1.423   .     A
C176   C178    1.423   .     A
C176   C182    1.408   .     A
C177   C179    1.407   .     A
C177   C862    1.401   .     S
C178   C180    1.407   .     A
C178   C861    1.401   1_554 S
C181   H185    1.079   .     S
C181   C839    1.383   .     S
C182   H186    1.079   .     S
C182   C840    1.383   1_554 S
N197   Zn207   2.006   .     S
N198   Zn208   2.006   .     S
O199   Zn207   1.998   .     S
O200   Zn208   1.998   .     S
O201   Zn207   1.998   .     S
O202   Zn208   1.998   .     S
O203   Zn207   2.016   .     S
O204   Zn208   2.016   .     S
O205   Zn207   2.014   .     S
O206   Zn208   2.014   .     S
C209   H218    1.110   .     S
C209   H217    1.110   .     S
C209   C210    1.538   .     S
C210   H216    1.110   .     S
C210   C211    1.526   .     S
C210   H215    1.110   .     S
C211   H212    1.111   .     S
C211   H213    1.110   .     S
C211   H670    1.111   1_545 S
H214   C439    1.111   .     S
C219   C220    1.539   .     S
C219   H227    1.110   .     S
C219   H228    1.110   .     S
C220   H226    1.110   .     S
C220   C221    1.526   .     S
C220   H225    1.110   .     S
C221   H223    1.111   .     S
C221   H222    1.110   .     S
C221   H452    1.111   .     S
H224   C677    1.111   1_545 S
C229   O278    1.281   .     A
C229   O275    1.281   .     A
C229   C238    1.418   .     S
C230   O276    1.281   .     A
C230   O277    1.281   .     A
C230   C237    1.418   .     S
C231   C256    1.394   .     A
C231   H263    1.084   .     S
C231   C941    1.383   1_554 S
C232   H264    1.084   .     S
C232   C255    1.394   .     A
C232   C942    1.383   .     S
C233   H265    1.083   .     S
C233   C238    1.397   .     A
C233   C387    1.370   1_455 S
C234   C237    1.397   .     A
C234   H266    1.083   .     S
C234   C312    1.370   .     S
C235   C237    1.397   .     A
C235   H267    1.084   .     S
C235   C309    1.370   .     S
C236   C238    1.397   .     A
C236   H268    1.084   .     S
C236   C386    1.370   1_455 S
C239   H269    1.082   .     S
C239   N274    1.366   .     A
C240   H270    1.082   .     S
C240   N273    1.366   .     A
C240   C469    1.415   .     S
C241   N274    1.366   .     A
C241   H271    1.082   .     S
C242   N273    1.366   .     A
C242   H272    1.082   .     S
C242   C467    1.415   .     S
C243   O279    1.282   .     A
C243   C248    1.433   .     S
C243   O282    1.285   .     A
C244   O281    1.285   .     A
C244   O280    1.282   .     A
C244   C247    1.433   .     S
C245   C255    1.375   .     A
C245   H259    1.087   .     S
C245   C247    1.389   .     A
C246   C248    1.389   .     A
C246   C256    1.375   .     A
C246   H260    1.087   .     S
C247   C249    1.415   .     A
C248   C250    1.415   .     A
C249   C285    1.529   .     S
C249   C251    1.411   .     A
C250   C252    1.411   .     A
C250   C295    1.529   .     S
C251   C257    1.408   .     A
C251   C253    1.423   .     A
C252   C254    1.423   .     A
C252   C258    1.408   .     A
C253   C255    1.407   .     A
C253   C938    1.401   .     S
C254   C256    1.407   .     A
C254   C937    1.401   1_554 S
C257   H261    1.079   .     S
C257   C915    1.383   .     S
C258   H262    1.079   .     S
C258   C916    1.383   1_554 S
N273   Zn283   2.006   .     S
N274   Zn284   2.006   .     S
O275   Zn283   1.998   .     S
O276   Zn284   1.998   .     S
O277   Zn283   1.998   .     S
O278   Zn284   1.998   .     S
O279   Zn283   2.016   .     S
O280   Zn284   2.016   .     S
O281   Zn283   2.014   .     S
O282   Zn284   2.014   .     S
C285   H294    1.110   .     S
C285   H293    1.110   .     S
C285   C286    1.538   .     S
C286   H292    1.110   .     S
C286   C287    1.526   .     S
C286   H291    1.110   .     S
C287   H288    1.111   .     S
C287   H289    1.110   .     S
H290   C515    1.111   .     S
C295   C296    1.539   .     S
C295   H303    1.110   .     S
C295   H304    1.110   .     S
C296   H302    1.110   .     S
C296   C297    1.526   .     S
C296   H301    1.110   .     S
C297   H299    1.111   .     S
C297   H298    1.110   .     S
C297   H528    1.111   .     S
C305   O354    1.281   .     A
C305   O351    1.281   .     A
C305   C314    1.418   .     S
C306   O352    1.281   .     A
C306   O353    1.281   .     A
C306   C313    1.418   .     S
C307   C332    1.394   .     A
C307   H339    1.084   .     S
C307   C1017   1.383   1_554 S
C308   H340    1.084   .     S
C308   C331    1.394   .     A
C308   C1018   1.383   .     S
C309   H341    1.083   .     S
C309   C314    1.397   .     A
C310   C313    1.397   .     A
C310   H342    1.083   .     S
C310   C388    1.370   .     S
C311   C313    1.397   .     A
C311   H343    1.084   .     S
C311   C385    1.370   .     S
C312   C314    1.397   .     A
C312   H344    1.084   .     S
C315   H345    1.082   .     S
C315   N350    1.366   .     A
C316   H346    1.082   .     S
C316   N349    1.366   .     A
C316   C545    1.415   .     S
C317   N350    1.366   .     A
C317   H347    1.082   .     S
C318   N349    1.366   .     A
C318   H348    1.082   .     S
C318   C543    1.415   .     S
C319   O355    1.282   .     A
C319   C324    1.433   .     S
C319   O358    1.285   .     A
C320   O357    1.285   .     A
C320   O356    1.282   .     A
C320   C323    1.433   .     S
C321   C331    1.375   .     A
C321   H335    1.087   .     S
C321   C323    1.389   .     A
C322   C324    1.389   .     A
C322   C332    1.375   .     A
C322   H336    1.087   .     S
C323   C325    1.415   .     A
C324   C326    1.415   .     A
C325   C361    1.529   .     S
C325   C327    1.411   .     A
C326   C328    1.411   .     A
C326   C371    1.529   .     S
C327   C333    1.408   .     A
C327   C329    1.423   .     A
C328   C330    1.423   .     A
C328   C334    1.408   .     A
C329   C331    1.407   .     A
C329   C1014   1.401   .     S
C330   C332    1.407   .     A
C330   C1013   1.401   1_554 S
C333   H337    1.079   .     S
C333   C991    1.383   .     S
C334   H338    1.079   .     S
C334   C992    1.383   1_554 S
N349   Zn359   2.006   .     S
N350   Zn360   2.006   .     S
O351   Zn359   1.998   .     S
O352   Zn360   1.998   .     S
O353   Zn359   1.998   .     S
O354   Zn360   1.998   .     S
O355   Zn359   2.016   .     S
O356   Zn360   2.016   .     S
O357   Zn359   2.014   .     S
O358   Zn360   2.014   .     S
C361   H370    1.110   .     S
C361   H369    1.110   .     S
C361   C362    1.538   .     S
C362   H368    1.110   .     S
C362   C363    1.526   .     S
C362   H367    1.110   .     S
C363   H364    1.111   .     S
C363   H365    1.110   .     S
H366   C591    1.111   .     S
C371   C372    1.539   .     S
C371   H379    1.110   .     S
C371   H380    1.110   .     S
C372   H378    1.110   .     S
C372   C373    1.526   .     S
C372   H377    1.110   .     S
C373   H375    1.111   .     S
C373   H374    1.110   .     S
C373   H604    1.111   .     S
C381   O430    1.281   .     A
C381   O427    1.281   .     A
C381   C390    1.418   .     S
C382   O428    1.281   .     A
C382   O429    1.281   .     A
C382   C389    1.418   .     S
C383   C408    1.394   .     A
C383   H415    1.084   .     S
C383   C1093   1.383   1_554 S
C384   H416    1.084   .     S
C384   C407    1.394   .     A
C384   C1094   1.383   .     S
C385   H417    1.083   .     S
C385   C390    1.397   .     A
C386   C389    1.397   .     A
C386   H418    1.083   .     S
C386   C236    1.370   1_655 S
C387   C389    1.397   .     A
C387   H419    1.084   .     S
C387   C233    1.370   1_655 S
C388   C390    1.397   .     A
C388   H420    1.084   .     S
C391   H421    1.082   .     S
C391   N426    1.366   .     A
C392   H422    1.082   .     S
C392   N425    1.366   .     A
C392   C621    1.415   .     S
C393   N426    1.366   .     A
C393   H423    1.082   .     S
C394   N425    1.366   .     A
C394   H424    1.082   .     S
C394   C619    1.415   .     S
C395   O431    1.282   .     A
C395   C400    1.433   .     S
C395   O434    1.285   .     A
C396   O433    1.285   .     A
C396   O432    1.282   .     A
C396   C399    1.433   .     S
C397   C407    1.375   .     A
C397   H411    1.087   .     S
C397   C399    1.389   .     A
C398   C400    1.389   .     A
C398   C408    1.375   .     A
C398   H412    1.087   .     S
C399   C401    1.415   .     A
C400   C402    1.415   .     A
C401   C437    1.529   .     S
C401   C403    1.411   .     A
C402   C404    1.411   .     A
C402   C447    1.529   .     S
C403   C409    1.408   .     A
C403   C405    1.423   .     A
C404   C406    1.423   .     A
C404   C410    1.408   .     A
C405   C407    1.407   .     A
C405   C1090   1.401   .     S
C406   C408    1.407   .     A
C406   C1089   1.401   1_554 S
C409   H413    1.079   .     S
C409   C1067   1.383   .     S
C410   H414    1.079   .     S
C410   C1068   1.383   1_554 S
N425   Zn435   2.006   .     S
N426   Zn436   2.006   .     S
O427   Zn435   1.998   .     S
O428   Zn436   1.998   .     S
O429   Zn435   1.998   .     S
O430   Zn436   1.998   .     S
O431   Zn435   2.016   .     S
O432   Zn436   2.016   .     S
O433   Zn435   2.014   .     S
O434   Zn436   2.014   .     S
C437   H446    1.110   .     S
C437   H445    1.110   .     S
C437   C438    1.538   .     S
C438   H444    1.110   .     S
C438   C439    1.526   .     S
C438   H443    1.110   .     S
C439   H440    1.111   .     S
C439   H441    1.110   .     S
H442   C667    1.111   .     S
C447   C448    1.539   .     S
C447   H455    1.110   .     S
C447   H456    1.110   .     S
C448   H454    1.110   .     S
C448   C449    1.526   .     S
C448   H453    1.110   .     S
C449   H451    1.111   .     S
C449   H450    1.110   .     S
C449   H680    1.111   .     S
C457   O506    1.281   .     A
C457   O503    1.281   .     A
C457   C466    1.418   .     S
C458   O504    1.281   .     A
C458   O505    1.281   .     A
C458   C465    1.418   .     S
C459   C484    1.394   .     A
C459   H491    1.084   .     S
C459   C1169   1.383   1_554 S
C460   H492    1.084   .     S
C460   C483    1.394   .     A
C460   C1170   1.383   .     S
C461   H493    1.083   .     S
C461   C466    1.397   .     A
C461   C615    1.370   1_455 S
C462   C465    1.397   .     A
C462   H494    1.083   .     S
C462   C540    1.370   .     S
C463   C465    1.397   .     A
C463   H495    1.084   .     S
C463   C537    1.370   .     S
C464   C466    1.397   .     A
C464   H496    1.084   .     S
C464   C614    1.370   1_455 S
C467   H497    1.082   .     S
C467   N502    1.366   .     A
C468   H498    1.082   .     S
C468   N501    1.366   .     A
C468   C13     1.415   1_565 S
C469   N502    1.366   .     A
C469   H499    1.082   .     S
C470   N501    1.366   .     A
C470   H500    1.082   .     S
C470   C11     1.415   1_565 S
C471   O507    1.282   .     A
C471   C476    1.433   .     S
C471   O510    1.285   .     A
C472   O509    1.285   .     A
C472   O508    1.282   .     A
C472   C475    1.433   .     S
C473   C483    1.375   .     A
C473   H487    1.087   .     S
C473   C475    1.389   .     A
C474   C476    1.389   .     A
C474   C484    1.375   .     A
C474   H488    1.087   .     S
C475   C477    1.415   .     A
C476   C478    1.415   .     A
C477   C513    1.529   .     S
C477   C479    1.411   .     A
C478   C480    1.411   .     A
C478   C523    1.529   .     S
C479   C485    1.408   .     A
C479   C481    1.423   .     A
C480   C482    1.423   .     A
C480   C486    1.408   .     A
C481   C483    1.407   .     A
C481   C1166   1.401   .     S
C482   C484    1.407   .     A
C482   C1165   1.401   1_554 S
C485   H489    1.079   .     S
C485   C1143   1.383   .     S
C486   H490    1.079   .     S
C486   C1144   1.383   1_554 S
N501   Zn511   2.006   .     S
N502   Zn512   2.006   .     S
O503   Zn511   1.998   .     S
O504   Zn512   1.998   .     S
O505   Zn511   1.998   .     S
O506   Zn512   1.998   .     S
O507   Zn511   2.016   .     S
O508   Zn512   2.016   .     S
O509   Zn511   2.014   .     S
O510   Zn512   2.014   .     S
C513   H522    1.110   .     S
C513   H521    1.110   .     S
C513   C514    1.538   .     S
C514   H520    1.110   .     S
C514   C515    1.526   .     S
C514   H519    1.110   .     S
C515   H516    1.111   .     S
C515   H517    1.110   .     S
H518   C59     1.111   1_565 S
C523   C524    1.539   .     S
C523   H531    1.110   .     S
C523   H532    1.110   .     S
C524   H530    1.110   .     S
C524   C525    1.526   .     S
C524   H529    1.110   .     S
C525   H527    1.111   .     S
C525   H526    1.110   .     S
C525   H72     1.111   1_565 S
C533   O582    1.281   .     A
C533   O579    1.281   .     A
C533   C542    1.418   .     S
C534   O580    1.281   .     A
C534   O581    1.281   .     A
C534   C541    1.418   .     S
C535   C560    1.394   .     A
C535   H567    1.084   .     S
C535   C1245   1.383   1_554 S
C536   H568    1.084   .     S
C536   C559    1.394   .     A
C536   C1246   1.383   .     S
C537   H569    1.083   .     S
C537   C542    1.397   .     A
C538   C541    1.397   .     A
C538   H570    1.083   .     S
C538   C616    1.370   .     S
C539   C541    1.397   .     A
C539   H571    1.084   .     S
C539   C613    1.370   .     S
C540   C542    1.397   .     A
C540   H572    1.084   .     S
C543   H573    1.082   .     S
C543   N578    1.366   .     A
C544   H574    1.082   .     S
C544   N577    1.366   .     A
C544   C89     1.415   1_565 S
C545   N578    1.366   .     A
C545   H575    1.082   .     S
C546   N577    1.366   .     A
C546   H576    1.082   .     S
C546   C87     1.415   1_565 S
C547   O583    1.282   .     A
C547   C552    1.433   .     S
C547   O586    1.285   .     A
C548   O585    1.285   .     A
C548   O584    1.282   .     A
C548   C551    1.433   .     S
C549   C559    1.375   .     A
C549   H563    1.087   .     S
C549   C551    1.389   .     A
C550   C552    1.389   .     A
C550   C560    1.375   .     A
C550   H564    1.087   .     S
C551   C553    1.415   .     A
C552   C554    1.415   .     A
C553   C589    1.529   .     S
C553   C555    1.411   .     A
C554   C556    1.411   .     A
C554   C599    1.529   .     S
C555   C561    1.408   .     A
C555   C557    1.423   .     A
C556   C558    1.423   .     A
C556   C562    1.408   .     A
C557   C559    1.407   .     A
C557   C1242   1.401   .     S
C558   C560    1.407   .     A
C558   C1241   1.401   1_554 S
C561   H565    1.079   .     S
C561   C1219   1.383   .     S
C562   H566    1.079   .     S
C562   C1220   1.383   1_554 S
N577   Zn587   2.006   .     S
N578   Zn588   2.006   .     S
O579   Zn587   1.998   .     S
O580   Zn588   1.998   .     S
O581   Zn587   1.998   .     S
O582   Zn588   1.998   .     S
O583   Zn587   2.016   .     S
O584   Zn588   2.016   .     S
O585   Zn587   2.014   .     S
O586   Zn588   2.014   .     S
C589   H598    1.110   .     S
C589   H597    1.110   .     S
C589   C590    1.538   .     S
C590   H596    1.110   .     S
C590   C591    1.526   .     S
C590   H595    1.110   .     S
C591   H592    1.111   .     S
C591   H593    1.110   .     S
H594   C135    1.111   1_565 S
C599   C600    1.539   .     S
C599   H607    1.110   .     S
C599   H608    1.110   .     S
C600   H606    1.110   .     S
C600   C601    1.526   .     S
C600   H605    1.110   .     S
C601   H603    1.111   .     S
C601   H602    1.110   .     S
C601   H148    1.111   1_565 S
C609   O658    1.281   .     A
C609   O655    1.281   .     A
C609   C618    1.418   .     S
C610   O656    1.281   .     A
C610   O657    1.281   .     A
C610   C617    1.418   .     S
C611   C636    1.394   .     A
C611   H643    1.084   .     S
C611   C1321   1.383   1_554 S
C612   H644    1.084   .     S
C612   C635    1.394   .     A
C612   C1322   1.383   .     S
C613   H645    1.083   .     S
C613   C618    1.397   .     A
C614   C617    1.397   .     A
C614   H646    1.083   .     S
C614   C464    1.370   1_655 S
C615   C617    1.397   .     A
C615   H647    1.084   .     S
C615   C461    1.370   1_655 S
C616   C618    1.397   .     A
C616   H648    1.084   .     S
C619   H649    1.082   .     S
C619   N654    1.366   .     A
C620   H650    1.082   .     S
C620   N653    1.366   .     A
C620   C165    1.415   1_565 S
C621   N654    1.366   .     A
C621   H651    1.082   .     S
C622   N653    1.366   .     A
C622   H652    1.082   .     S
C622   C163    1.415   1_565 S
C623   O659    1.282   .     A
C623   C628    1.433   .     S
C623   O662    1.285   .     A
C624   O661    1.285   .     A
C624   O660    1.282   .     A
C624   C627    1.433   .     S
C625   C635    1.375   .     A
C625   H639    1.087   .     S
C625   C627    1.389   .     A
C626   C628    1.389   .     A
C626   C636    1.375   .     A
C626   H640    1.087   .     S
C627   C629    1.415   .     A
C628   C630    1.415   .     A
C629   C665    1.529   .     S
C629   C631    1.411   .     A
C630   C632    1.411   .     A
C630   C675    1.529   .     S
C631   C637    1.408   .     A
C631   C633    1.423   .     A
C632   C634    1.423   .     A
C632   C638    1.408   .     A
C633   C635    1.407   .     A
C633   C1318   1.401   .     S
C634   C636    1.407   .     A
C634   C1317   1.401   1_554 S
C637   H641    1.079   .     S
C637   C1295   1.383   .     S
C638   H642    1.079   .     S
C638   C1296   1.383   1_554 S
N653   Zn663   2.006   .     S
N654   Zn664   2.006   .     S
O655   Zn663   1.998   .     S
O656   Zn664   1.998   .     S
O657   Zn663   1.998   .     S
O658   Zn664   1.998   .     S
O659   Zn663   2.016   .     S
O660   Zn664   2.016   .     S
O661   Zn663   2.014   .     S
O662   Zn664   2.014   .     S
C665   H674    1.110   .     S
C665   H673    1.110   .     S
C665   C666    1.538   .     S
C666   H672    1.110   .     S
C666   C667    1.526   .     S
C666   H671    1.110   .     S
C667   H668    1.111   .     S
C667   H669    1.110   .     S
H670   C211    1.111   1_565 S
C675   C676    1.539   .     S
C675   H683    1.110   .     S
C675   H684    1.110   .     S
C676   H682    1.110   .     S
C676   C677    1.526   .     S
C676   H681    1.110   .     S
C677   H679    1.111   .     S
C677   H678    1.110   .     S
C677   H224    1.111   1_565 S
C685   O734    1.281   .     A
C685   O731    1.281   .     A
C685   C694    1.418   .     S
C686   O732    1.281   .     A
C686   O733    1.281   .     A
C686   C693    1.418   .     S
C687   C712    1.394   .     A
C687   H719    1.084   .     S
C688   H720    1.084   .     S
C688   C711    1.394   .     A
C688   C30     1.383   1_556 S
C689   H721    1.083   .     S
C689   C694    1.397   .     A
C689   C843    1.370   1_455 S
C690   C693    1.397   .     A
C690   H722    1.083   .     S
C690   C768    1.370   .     S
C691   C693    1.397   .     A
C691   H723    1.084   .     S
C691   C765    1.370   .     S
C692   C694    1.397   .     A
C692   H724    1.084   .     S
C692   C842    1.370   1_455 S
C695   H725    1.082   .     S
C695   N730    1.366   .     A
C695   C1154   1.415   1_545 S
C696   H726    1.082   .     S
C696   N729    1.366   .     A
C696   C925    1.415   .     S
C697   N730    1.366   .     A
C697   H727    1.082   .     S
C697   C1152   1.415   1_545 S
C698   N729    1.366   .     A
C698   H728    1.082   .     S
C698   C923    1.415   .     S
C699   O735    1.282   .     A
C699   C704    1.433   .     S
C699   O738    1.285   .     A
C700   O737    1.285   .     A
C700   O736    1.282   .     A
C700   C703    1.433   .     S
C701   C711    1.375   .     A
C701   H715    1.087   .     S
C701   C703    1.389   .     A
C702   C704    1.389   .     A
C702   C712    1.375   .     A
C702   H716    1.087   .     S
C703   C705    1.415   .     A
C704   C706    1.415   .     A
C705   C741    1.529   .     S
C705   C707    1.411   .     A
C706   C708    1.411   .     A
C706   C751    1.529   .     S
C707   C713    1.408   .     A
C707   C709    1.423   .     A
C708   C710    1.423   .     A
C708   C714    1.408   .     A
C709   C711    1.407   .     A
C709   C26     1.401   1_556 S
C710   C712    1.407   .     A
C713   H717    1.079   .     S
C713   C3      1.383   1_556 S
C714   H718    1.079   .     S
N729   Zn739   2.006   .     S
N730   Zn740   2.006   .     S
O731   Zn739   1.998   .     S
O732   Zn740   1.998   .     S
O733   Zn739   1.998   .     S
O734   Zn740   1.998   .     S
O735   Zn739   2.016   .     S
O736   Zn740   2.016   .     S
O737   Zn739   2.014   .     S
O738   Zn740   2.014   .     S
C741   H750    1.110   .     S
C741   H749    1.110   .     S
C741   C742    1.538   .     S
C742   H748    1.110   .     S
C742   C743    1.526   .     S
C742   H747    1.110   .     S
C743   H744    1.111   .     S
C743   H745    1.110   .     S
C743   H1202   1.111   1_545 S
H746   C971    1.111   .     S
C751   C752    1.539   .     S
C751   H759    1.110   .     S
C751   H760    1.110   .     S
C752   H758    1.110   .     S
C752   C753    1.526   .     S
C752   H757    1.110   .     S
C753   H755    1.111   .     S
C753   H754    1.110   .     S
C753   H984    1.111   .     S
H756   C1209   1.111   1_545 S
C761   O810    1.281   .     A
C761   O807    1.281   .     A
C761   C770    1.418   .     S
C762   O808    1.281   .     A
C762   O809    1.281   .     A
C762   C769    1.418   .     S
C763   C788    1.394   .     A
C763   H795    1.084   .     S
C764   H796    1.084   .     S
C764   C787    1.394   .     A
C764   C106    1.383   1_556 S
C765   H797    1.083   .     S
C765   C770    1.397   .     A
C766   C769    1.397   .     A
C766   H798    1.083   .     S
C766   C844    1.370   .     S
C767   C769    1.397   .     A
C767   H799    1.084   .     S
C767   C841    1.370   .     S
C768   C770    1.397   .     A
C768   H800    1.084   .     S
C771   H801    1.082   .     S
C771   N806    1.366   .     A
C771   C1230   1.415   1_545 S
C772   H802    1.082   .     S
C772   N805    1.366   .     A
C772   C1001   1.415   .     S
C773   N806    1.366   .     A
C773   H803    1.082   .     S
C773   C1228   1.415   1_545 S
C774   N805    1.366   .     A
C774   H804    1.082   .     S
C774   C999    1.415   .     S
C775   O811    1.282   .     A
C775   C780    1.433   .     S
C775   O814    1.285   .     A
C776   O813    1.285   .     A
C776   O812    1.282   .     A
C776   C779    1.433   .     S
C777   C787    1.375   .     A
C777   H791    1.087   .     S
C777   C779    1.389   .     A
C778   C780    1.389   .     A
C778   C788    1.375   .     A
C778   H792    1.087   .     S
C779   C781    1.415   .     A
C780   C782    1.415   .     A
C781   C817    1.529   .     S
C781   C783    1.411   .     A
C782   C784    1.411   .     A
C782   C827    1.529   .     S
C783   C789    1.408   .     A
C783   C785    1.423   .     A
C784   C786    1.423   .     A
C784   C790    1.408   .     A
C785   C787    1.407   .     A
C785   C102    1.401   1_556 S
C786   C788    1.407   .     A
C789   H793    1.079   .     S
C789   C79     1.383   1_556 S
C790   H794    1.079   .     S
N805   Zn815   2.006   .     S
N806   Zn816   2.006   .     S
O807   Zn815   1.998   .     S
O808   Zn816   1.998   .     S
O809   Zn815   1.998   .     S
O810   Zn816   1.998   .     S
O811   Zn815   2.016   .     S
O812   Zn816   2.016   .     S
O813   Zn815   2.014   .     S
O814   Zn816   2.014   .     S
C817   H826    1.110   .     S
C817   H825    1.110   .     S
C817   C818    1.538   .     S
C818   H824    1.110   .     S
C818   C819    1.526   .     S
C818   H823    1.110   .     S
C819   H820    1.111   .     S
C819   H821    1.110   .     S
C819   H1278   1.111   1_545 S
H822   C1047   1.111   .     S
C827   C828    1.539   .     S
C827   H835    1.110   .     S
C827   H836    1.110   .     S
C828   H834    1.110   .     S
C828   C829    1.526   .     S
C828   H833    1.110   .     S
C829   H831    1.111   .     S
C829   H830    1.110   .     S
C829   H1060   1.111   .     S
H832   C1285   1.111   1_545 S
C837   O886    1.281   .     A
C837   O883    1.281   .     A
C837   C846    1.418   .     S
C838   O884    1.281   .     A
C838   O885    1.281   .     A
C838   C845    1.418   .     S
C839   C864    1.394   .     A
C839   H871    1.084   .     S
C840   H872    1.084   .     S
C840   C863    1.394   .     A
C840   C182    1.383   1_556 S
C841   H873    1.083   .     S
C841   C846    1.397   .     A
C842   C845    1.397   .     A
C842   H874    1.083   .     S
C842   C692    1.370   1_655 S
C843   C845    1.397   .     A
C843   H875    1.084   .     S
C843   C689    1.370   1_655 S
C844   C846    1.397   .     A
C844   H876    1.084   .     S
C847   H877    1.082   .     S
C847   N882    1.366   .     A
C847   C1306   1.415   1_545 S
C848   H878    1.082   .     S
C848   N881    1.366   .     A
C848   C1077   1.415   .     S
C849   N882    1.366   .     A
C849   H879    1.082   .     S
C849   C1304   1.415   1_545 S
C850   N881    1.366   .     A
C850   H880    1.082   .     S
C850   C1075   1.415   .     S
C851   O887    1.282   .     A
C851   C856    1.433   .     S
C851   O890    1.285   .     A
C852   O889    1.285   .     A
C852   O888    1.282   .     A
C852   C855    1.433   .     S
C853   C863    1.375   .     A
C853   H867    1.087   .     S
C853   C855    1.389   .     A
C854   C856    1.389   .     A
C854   C864    1.375   .     A
C854   H868    1.087   .     S
C855   C857    1.415   .     A
C856   C858    1.415   .     A
C857   C893    1.529   .     S
C857   C859    1.411   .     A
C858   C860    1.411   .     A
C858   C903    1.529   .     S
C859   C865    1.408   .     A
C859   C861    1.423   .     A
C860   C862    1.423   .     A
C860   C866    1.408   .     A
C861   C863    1.407   .     A
C861   C178    1.401   1_556 S
C862   C864    1.407   .     A
C865   H869    1.079   .     S
C865   C155    1.383   1_556 S
C866   H870    1.079   .     S
N881   Zn891   2.006   .     S
N882   Zn892   2.006   .     S
O883   Zn891   1.998   .     S
O884   Zn892   1.998   .     S
O885   Zn891   1.998   .     S
O886   Zn892   1.998   .     S
O887   Zn891   2.016   .     S
O888   Zn892   2.016   .     S
O889   Zn891   2.014   .     S
O890   Zn892   2.014   .     S
C893   H902    1.110   .     S
C893   H901    1.110   .     S
C893   C894    1.538   .     S
C894   H900    1.110   .     S
C894   C895    1.526   .     S
C894   H899    1.110   .     S
C895   H896    1.111   .     S
C895   H897    1.110   .     S
C895   H1354   1.111   1_545 S
H898   C1123   1.111   .     S
C903   C904    1.539   .     S
C903   H911    1.110   .     S
C903   H912    1.110   .     S
C904   H910    1.110   .     S
C904   C905    1.526   .     S
C904   H909    1.110   .     S
C905   H907    1.111   .     S
C905   H906    1.110   .     S
C905   H1136   1.111   .     S
H908   C1361   1.111   1_545 S
C913   O962    1.281   .     A
C913   O959    1.281   .     A
C913   C922    1.418   .     S
C914   O960    1.281   .     A
C914   O961    1.281   .     A
C914   C921    1.418   .     S
C915   C940    1.394   .     A
C915   H947    1.084   .     S
C916   H948    1.084   .     S
C916   C939    1.394   .     A
C916   C258    1.383   1_556 S
C917   H949    1.083   .     S
C917   C922    1.397   .     A
C917   C1071   1.370   1_455 S
C918   C921    1.397   .     A
C918   H950    1.083   .     S
C918   C996    1.370   .     S
C919   C921    1.397   .     A
C919   H951    1.084   .     S
C919   C993    1.370   .     S
C920   C922    1.397   .     A
C920   H952    1.084   .     S
C920   C1070   1.370   1_455 S
C923   H953    1.082   .     S
C923   N958    1.366   .     A
C924   H954    1.082   .     S
C924   N957    1.366   .     A
C924   C1153   1.415   .     S
C925   N958    1.366   .     A
C925   H955    1.082   .     S
C926   N957    1.366   .     A
C926   H956    1.082   .     S
C926   C1151   1.415   .     S
C927   O963    1.282   .     A
C927   C932    1.433   .     S
C927   O966    1.285   .     A
C928   O965    1.285   .     A
C928   O964    1.282   .     A
C928   C931    1.433   .     S
C929   C939    1.375   .     A
C929   H943    1.087   .     S
C929   C931    1.389   .     A
C930   C932    1.389   .     A
C930   C940    1.375   .     A
C930   H944    1.087   .     S
C931   C933    1.415   .     A
C932   C934    1.415   .     A
C933   C969    1.529   .     S
C933   C935    1.411   .     A
C934   C936    1.411   .     A
C934   C979    1.529   .     S
C935   C941    1.408   .     A
C935   C937    1.423   .     A
C936   C938    1.423   .     A
C936   C942    1.408   .     A
C937   C939    1.407   .     A
C937   C254    1.401   1_556 S
C938   C940    1.407   .     A
C941   H945    1.079   .     S
C941   C231    1.383   1_556 S
C942   H946    1.079   .     S
N957   Zn967   2.006   .     S
N958   Zn968   2.006   .     S
O959   Zn967   1.998   .     S
O960   Zn968   1.998   .     S
O961   Zn967   1.998   .     S
O962   Zn968   1.998   .     S
O963   Zn967   2.016   .     S
O964   Zn968   2.016   .     S
O965   Zn967   2.014   .     S
O966   Zn968   2.014   .     S
C969   H978    1.110   .     S
C969   H977    1.110   .     S
C969   C970    1.538   .     S
C970   H976    1.110   .     S
C970   C971    1.526   .     S
C970   H975    1.110   .     S
C971   H972    1.111   .     S
C971   H973    1.110   .     S
H974   C1199   1.111   .     S
C979   C980    1.539   .     S
C979   H987    1.110   .     S
C979   H988    1.110   .     S
C980   H986    1.110   .     S
C980   C981    1.526   .     S
C980   H985    1.110   .     S
C981   H983    1.111   .     S
C981   H982    1.110   .     S
C981   H1212   1.111   .     S
C989   O1038   1.281   .     A
C989   O1035   1.281   .     A
C989   C998    1.418   .     S
C990   O1036   1.281   .     A
C990   O1037   1.281   .     A
C990   C997    1.418   .     S
C991   C1016   1.394   .     A
C991   H1023   1.084   .     S
C992   H1024   1.084   .     S
C992   C1015   1.394   .     A
C992   C334    1.383   1_556 S
C993   H1025   1.083   .     S
C993   C998    1.397   .     A
C994   C997    1.397   .     A
C994   H1026   1.083   .     S
C994   C1072   1.370   .     S
C995   C997    1.397   .     A
C995   H1027   1.084   .     S
C995   C1069   1.370   .     S
C996   C998    1.397   .     A
C996   H1028   1.084   .     S
C999   H1029   1.082   .     S
C999   N1034   1.366   .     A
C1000  H1030   1.082   .     S
C1000  N1033   1.366   .     A
C1000  C1229   1.415   .     S
C1001  N1034   1.366   .     A
C1001  H1031   1.082   .     S
C1002  N1033   1.366   .     A
C1002  H1032   1.082   .     S
C1002  C1227   1.415   .     S
C1003  O1039   1.282   .     A
C1003  C1008   1.433   .     S
C1003  O1042   1.285   .     A
C1004  O1041   1.285   .     A
C1004  O1040   1.282   .     A
C1004  C1007   1.433   .     S
C1005  C1015   1.375   .     A
C1005  H1019   1.087   .     S
C1005  C1007   1.389   .     A
C1006  C1008   1.389   .     A
C1006  C1016   1.375   .     A
C1006  H1020   1.087   .     S
C1007  C1009   1.415   .     A
C1008  C1010   1.415   .     A
C1009  C1045   1.529   .     S
C1009  C1011   1.411   .     A
C1010  C1012   1.411   .     A
C1010  C1055   1.529   .     S
C1011  C1017   1.408   .     A
C1011  C1013   1.423   .     A
C1012  C1014   1.423   .     A
C1012  C1018   1.408   .     A
C1013  C1015   1.407   .     A
C1013  C330    1.401   1_556 S
C1014  C1016   1.407   .     A
C1017  H1021   1.079   .     S
C1017  C307    1.383   1_556 S
C1018  H1022   1.079   .     S
N1033  Zn1043  2.006   .     S
N1034  Zn1044  2.006   .     S
O1035  Zn1043  1.998   .     S
O1036  Zn1044  1.998   .     S
O1037  Zn1043  1.998   .     S
O1038  Zn1044  1.998   .     S
O1039  Zn1043  2.016   .     S
O1040  Zn1044  2.016   .     S
O1041  Zn1043  2.014   .     S
O1042  Zn1044  2.014   .     S
C1045  H1054   1.110   .     S
C1045  H1053   1.110   .     S
C1045  C1046   1.538   .     S
C1046  H1052   1.110   .     S
C1046  C1047   1.526   .     S
C1046  H1051   1.110   .     S
C1047  H1048   1.111   .     S
C1047  H1049   1.110   .     S
H1050  C1275   1.111   .     S
C1055  C1056   1.539   .     S
C1055  H1063   1.110   .     S
C1055  H1064   1.110   .     S
C1056  H1062   1.110   .     S
C1056  C1057   1.526   .     S
C1056  H1061   1.110   .     S
C1057  H1059   1.111   .     S
C1057  H1058   1.110   .     S
C1057  H1288   1.111   .     S
C1065  O1114   1.281   .     A
C1065  O1111   1.281   .     A
C1065  C1074   1.418   .     S
C1066  O1112   1.281   .     A
C1066  O1113   1.281   .     A
C1066  C1073   1.418   .     S
C1067  C1092   1.394   .     A
C1067  H1099   1.084   .     S
C1068  H1100   1.084   .     S
C1068  C1091   1.394   .     A
C1068  C410    1.383   1_556 S
C1069  H1101   1.083   .     S
C1069  C1074   1.397   .     A
C1070  C1073   1.397   .     A
C1070  H1102   1.083   .     S
C1070  C920    1.370   1_655 S
C1071  C1073   1.397   .     A
C1071  H1103   1.084   .     S
C1071  C917    1.370   1_655 S
C1072  C1074   1.397   .     A
C1072  H1104   1.084   .     S
C1075  H1105   1.082   .     S
C1075  N1110   1.366   .     A
C1076  H1106   1.082   .     S
C1076  N1109   1.366   .     A
C1076  C1305   1.415   .     S
C1077  N1110   1.366   .     A
C1077  H1107   1.082   .     S
C1078  N1109   1.366   .     A
C1078  H1108   1.082   .     S
C1078  C1303   1.415   .     S
C1079  O1115   1.282   .     A
C1079  C1084   1.433   .     S
C1079  O1118   1.285   .     A
C1080  O1117   1.285   .     A
C1080  O1116   1.282   .     A
C1080  C1083   1.433   .     S
C1081  C1091   1.375   .     A
C1081  H1095   1.087   .     S
C1081  C1083   1.389   .     A
C1082  C1084   1.389   .     A
C1082  C1092   1.375   .     A
C1082  H1096   1.087   .     S
C1083  C1085   1.415   .     A
C1084  C1086   1.415   .     A
C1085  C1121   1.529   .     S
C1085  C1087   1.411   .     A
C1086  C1088   1.411   .     A
C1086  C1131   1.529   .     S
C1087  C1093   1.408   .     A
C1087  C1089   1.423   .     A
C1088  C1090   1.423   .     A
C1088  C1094   1.408   .     A
C1089  C1091   1.407   .     A
C1089  C406    1.401   1_556 S
C1090  C1092   1.407   .     A
C1093  H1097   1.079   .     S
C1093  C383    1.383   1_556 S
C1094  H1098   1.079   .     S
N1109  Zn1119  2.006   .     S
N1110  Zn1120  2.006   .     S
O1111  Zn1119  1.998   .     S
O1112  Zn1120  1.998   .     S
O1113  Zn1119  1.998   .     S
O1114  Zn1120  1.998   .     S
O1115  Zn1119  2.016   .     S
O1116  Zn1120  2.016   .     S
O1117  Zn1119  2.014   .     S
O1118  Zn1120  2.014   .     S
C1121  H1130   1.110   .     S
C1121  H1129   1.110   .     S
C1121  C1122   1.538   .     S
C1122  H1128   1.110   .     S
C1122  C1123   1.526   .     S
C1122  H1127   1.110   .     S
C1123  H1124   1.111   .     S
C1123  H1125   1.110   .     S
H1126  C1351   1.111   .     S
C1131  C1132   1.539   .     S
C1131  H1139   1.110   .     S
C1131  H1140   1.110   .     S
C1132  H1138   1.110   .     S
C1132  C1133   1.526   .     S
C1132  H1137   1.110   .     S
C1133  H1135   1.111   .     S
C1133  H1134   1.110   .     S
C1133  H1364   1.111   .     S
C1141  O1190   1.281   .     A
C1141  O1187   1.281   .     A
C1141  C1150   1.418   .     S
C1142  O1188   1.281   .     A
C1142  O1189   1.281   .     A
C1142  C1149   1.418   .     S
C1143  C1168   1.394   .     A
C1143  H1175   1.084   .     S
C1144  H1176   1.084   .     S
C1144  C1167   1.394   .     A
C1144  C486    1.383   1_556 S
C1145  H1177   1.083   .     S
C1145  C1150   1.397   .     A
C1145  C1299   1.370   1_455 S
C1146  C1149   1.397   .     A
C1146  H1178   1.083   .     S
C1146  C1224   1.370   .     S
C1147  C1149   1.397   .     A
C1147  H1179   1.084   .     S
C1147  C1221   1.370   .     S
C1148  C1150   1.397   .     A
C1148  H1180   1.084   .     S
C1148  C1298   1.370   1_455 S
C1151  H1181   1.082   .     S
C1151  N1186   1.366   .     A
C1152  H1182   1.082   .     S
C1152  N1185   1.366   .     A
C1152  C697    1.415   1_565 S
C1153  N1186   1.366   .     A
C1153  H1183   1.082   .     S
C1154  N1185   1.366   .     A
C1154  H1184   1.082   .     S
C1154  C695    1.415   1_565 S
C1155  O1191   1.282   .     A
C1155  C1160   1.433   .     S
C1155  O1194   1.285   .     A
C1156  O1193   1.285   .     A
C1156  O1192   1.282   .     A
C1156  C1159   1.433   .     S
C1157  C1167   1.375   .     A
C1157  H1171   1.087   .     S
C1157  C1159   1.389   .     A
C1158  C1160   1.389   .     A
C1158  C1168   1.375   .     A
C1158  H1172   1.087   .     S
C1159  C1161   1.415   .     A
C1160  C1162   1.415   .     A
C1161  C1197   1.529   .     S
C1161  C1163   1.411   .     A
C1162  C1164   1.411   .     A
C1162  C1207   1.529   .     S
C1163  C1169   1.408   .     A
C1163  C1165   1.423   .     A
C1164  C1166   1.423   .     A
C1164  C1170   1.408   .     A
C1165  C1167   1.407   .     A
C1165  C482    1.401   1_556 S
C1166  C1168   1.407   .     A
C1169  H1173   1.079   .     S
C1169  C459    1.383   1_556 S
C1170  H1174   1.079   .     S
N1185  Zn1195  2.006   .     S
N1186  Zn1196  2.006   .     S
O1187  Zn1195  1.998   .     S
O1188  Zn1196  1.998   .     S
O1189  Zn1195  1.998   .     S
O1190  Zn1196  1.998   .     S
O1191  Zn1195  2.016   .     S
O1192  Zn1196  2.016   .     S
O1193  Zn1195  2.014   .     S
O1194  Zn1196  2.014   .     S
C1197  H1206   1.110   .     S
C1197  H1205   1.110   .     S
C1197  C1198   1.538   .     S
C1198  H1204   1.110   .     S
C1198  C1199   1.526   .     S
C1198  H1203   1.110   .     S
C1199  H1200   1.111   .     S
C1199  H1201   1.110   .     S
H1202  C743    1.111   1_565 S
C1207  C1208   1.539   .     S
C1207  H1215   1.110   .     S
C1207  H1216   1.110   .     S
C1208  H1214   1.110   .     S
C1208  C1209   1.526   .     S
C1208  H1213   1.110   .     S
C1209  H1211   1.111   .     S
C1209  H1210   1.110   .     S
C1209  H756    1.111   1_565 S
C1217  O1266   1.281   .     A
C1217  O1263   1.281   .     A
C1217  C1226   1.418   .     S
C1218  O1264   1.281   .     A
C1218  O1265   1.281   .     A
C1218  C1225   1.418   .     S
C1219  C1244   1.394   .     A
C1219  H1251   1.084   .     S
C1220  H1252   1.084   .     S
C1220  C1243   1.394   .     A
C1220  C562    1.383   1_556 S
C1221  H1253   1.083   .     S
C1221  C1226   1.397   .     A
C1222  C1225   1.397   .     A
C1222  H1254   1.083   .     S
C1222  C1300   1.370   .     S
C1223  C1225   1.397   .     A
C1223  H1255   1.084   .     S
C1223  C1297   1.370   .     S
C1224  C1226   1.397   .     A
C1224  H1256   1.084   .     S
C1227  H1257   1.082   .     S
C1227  N1262   1.366   .     A
C1228  H1258   1.082   .     S
C1228  N1261   1.366   .     A
C1228  C773    1.415   1_565 S
C1229  N1262   1.366   .     A
C1229  H1259   1.082   .     S
C1230  N1261   1.366   .     A
C1230  H1260   1.082   .     S
C1230  C771    1.415   1_565 S
C1231  O1267   1.282   .     A
C1231  C1236   1.433   .     S
C1231  O1270   1.285   .     A
C1232  O1269   1.285   .     A
C1232  O1268   1.282   .     A
C1232  C1235   1.433   .     S
C1233  C1243   1.375   .     A
C1233  H1247   1.087   .     S
C1233  C1235   1.389   .     A
C1234  C1236   1.389   .     A
C1234  C1244   1.375   .     A
C1234  H1248   1.087   .     S
C1235  C1237   1.415   .     A
C1236  C1238   1.415   .     A
C1237  C1273   1.529   .     S
C1237  C1239   1.411   .     A
C1238  C1240   1.411   .     A
C1238  C1283   1.529   .     S
C1239  C1245   1.408   .     A
C1239  C1241   1.423   .     A
C1240  C1242   1.423   .     A
C1240  C1246   1.408   .     A
C1241  C1243   1.407   .     A
C1241  C558    1.401   1_556 S
C1242  C1244   1.407   .     A
C1245  H1249   1.079   .     S
C1245  C535    1.383   1_556 S
C1246  H1250   1.079   .     S
N1261  Zn1271  2.006   .     S
N1262  Zn1272  2.006   .     S
O1263  Zn1271  1.998   .     S
O1264  Zn1272  1.998   .     S
O1265  Zn1271  1.998   .     S
O1266  Zn1272  1.998   .     S
O1267  Zn1271  2.016   .     S
O1268  Zn1272  2.016   .     S
O1269  Zn1271  2.014   .     S
O1270  Zn1272  2.014   .     S
C1273  H1282   1.110   .     S
C1273  H1281   1.110   .     S
C1273  C1274   1.538   .     S
C1274  H1280   1.110   .     S
C1274  C1275   1.526   .     S
C1274  H1279   1.110   .     S
C1275  H1276   1.111   .     S
C1275  H1277   1.110   .     S
H1278  C819    1.111   1_565 S
C1283  C1284   1.539   .     S
C1283  H1291   1.110   .     S
C1283  H1292   1.110   .     S
C1284  H1290   1.110   .     S
C1284  C1285   1.526   .     S
C1284  H1289   1.110   .     S
C1285  H1287   1.111   .     S
C1285  H1286   1.110   .     S
C1285  H832    1.111   1_565 S
C1293  O1342   1.281   .     A
C1293  O1339   1.281   .     A
C1293  C1302   1.418   .     S
C1294  O1340   1.281   .     A
C1294  O1341   1.281   .     A
C1294  C1301   1.418   .     S
C1295  C1320   1.394   .     A
C1295  H1327   1.084   .     S
C1296  H1328   1.084   .     S
C1296  C1319   1.394   .     A
C1296  C638    1.383   1_556 S
C1297  H1329   1.083   .     S
C1297  C1302   1.397   .     A
C1298  C1301   1.397   .     A
C1298  H1330   1.083   .     S
C1298  C1148   1.370   1_655 S
C1299  C1301   1.397   .     A
C1299  H1331   1.084   .     S
C1299  C1145   1.370   1_655 S
C1300  C1302   1.397   .     A
C1300  H1332   1.084   .     S
C1303  H1333   1.082   .     S
C1303  N1338   1.366   .     A
C1304  H1334   1.082   .     S
C1304  N1337   1.366   .     A
C1304  C849    1.415   1_565 S
C1305  N1338   1.366   .     A
C1305  H1335   1.082   .     S
C1306  N1337   1.366   .     A
C1306  H1336   1.082   .     S
C1306  C847    1.415   1_565 S
C1307  O1343   1.282   .     A
C1307  C1312   1.433   .     S
C1307  O1346   1.285   .     A
C1308  O1345   1.285   .     A
C1308  O1344   1.282   .     A
C1308  C1311   1.433   .     S
C1309  C1319   1.375   .     A
C1309  H1323   1.087   .     S
C1309  C1311   1.389   .     A
C1310  C1312   1.389   .     A
C1310  C1320   1.375   .     A
C1310  H1324   1.087   .     S
C1311  C1313   1.415   .     A
C1312  C1314   1.415   .     A
C1313  C1349   1.529   .     S
C1313  C1315   1.411   .     A
C1314  C1316   1.411   .     A
C1314  C1359   1.529   .     S
C1315  C1321   1.408   .     A
C1315  C1317   1.423   .     A
C1316  C1318   1.423   .     A
C1316  C1322   1.408   .     A
C1317  C1319   1.407   .     A
C1317  C634    1.401   1_556 S
C1318  C1320   1.407   .     A
C1321  H1325   1.079   .     S
C1321  C611    1.383   1_556 S
C1322  H1326   1.079   .     S
N1337  Zn1347  2.006   .     S
N1338  Zn1348  2.006   .     S
O1339  Zn1347  1.998   .     S
O1340  Zn1348  1.998   .     S
O1341  Zn1347  1.998   .     S
O1342  Zn1348  1.998   .     S
O1343  Zn1347  2.016   .     S
O1344  Zn1348  2.016   .     S
O1345  Zn1347  2.014   .     S
O1346  Zn1348  2.014   .     S
C1349  H1358   1.110   .     S
C1349  H1357   1.110   .     S
C1349  C1350   1.538   .     S
C1350  H1356   1.110   .     S
C1350  C1351   1.526   .     S
C1350  H1355   1.110   .     S
C1351  H1352   1.111   .     S
C1351  H1353   1.110   .     S
H1354  C895    1.111   1_565 S
C1359  C1360   1.539   .     S
C1359  H1367   1.110   .     S
C1359  H1368   1.110   .     S
C1360  H1366   1.110   .     S
C1360  C1361   1.526   .     S
C1360  H1365   1.110   .     S
C1361  H1363   1.111   .     S
C1361  H1362   1.110   .     S
C1361  H908    1.111   1_565 S
