data_str_m3_o1_o2_pcu_sym.57
_audit_creation_date              2020-01-03
_audit_creation_method            'Materials Studio'
_symmetry_space_group_name_H-M    'P1'
_symmetry_Int_Tables_number       1
_symmetry_cell_setting            triclinic
loop_
_symmetry_equiv_pos_as_xyz
  x,y,z
_cell_length_a                    32.0685
_cell_length_b                    29.4850
_cell_length_c                    29.7309
_cell_angle_alpha                 88.9399
_cell_angle_beta                  90.0123
_cell_angle_gamma                 90.6896
loop_
_atom_site_label
_atom_site_type_symbol
_atom_site_fract_x
_atom_site_fract_y
_atom_site_fract_z
_atom_site_U_iso_or_equiv
_atom_site_adp_type
_atom_site_occupancy
C1     C     0.08687   0.16638   0.25035   0.00000  Uiso   1.00
C2     C     0.31227   0.18603   0.21321   0.00000  Uiso   1.00
C3     C     0.31159   0.14999   0.28886   0.00000  Uiso   1.00
C4     C     0.02230   0.18500   0.21262   0.00000  Uiso   1.00
C5     C     0.15992   0.20379   0.04141   0.00000  Uiso   1.00
C6     C     0.15977   0.12854   0.45815   0.00000  Uiso   1.00
C7     C     0.11961   0.19693   0.44840   0.00000  Uiso   1.00
C8     C     0.11960   0.13454   0.05158   0.00000  Uiso   1.00
C9     C     0.16990   0.20429   0.08690   0.00000  Uiso   1.00
C10    C     0.16988   0.12864   0.41267   0.00000  Uiso   1.00
C11    C     0.12718   0.19722   0.40233   0.00000  Uiso   1.00
C12    C     0.24661   0.16702   0.25012   0.00000  Uiso   1.00
C13    C     0.12695   0.13494   0.09769   0.00000  Uiso   1.00
C14    C     0.15453   0.16848   0.11543   0.00000  Uiso   1.00
C15    C     0.15460   0.16435   0.38443   0.00000  Uiso   1.00
C16    C     0.13644   0.16840   0.02392   0.00000  Uiso   1.00
C17    C     0.13630   0.16323   0.47584   0.00000  Uiso   1.00
C18    C     0.29097   0.16818   0.25100   0.00000  Uiso   1.00
C19    C     0.04280   0.16572   0.25009   0.00000  Uiso   1.00
C20    C     0.19783   0.24151   0.10245   0.00000  Uiso   1.00
C21    C     0.19784   0.09214   0.39686   0.00000  Uiso   1.00
C22    C     0.10428   0.23075   0.37391   0.00000  Uiso   1.00
C23    C     0.16473   0.16716   0.16346   0.00000  Uiso   1.00
C24    C     0.10345   0.10163   0.12638   0.00000  Uiso   1.00
C25    C     0.04571   0.13526   0.32980   0.00000  Uiso   1.00
C26    C     0.28875   0.20448   0.17422   0.00000  Uiso   1.00
C27    C     0.28710   0.13223   0.32797   0.00000  Uiso   1.00
C28    C     0.04676   0.20475   0.17396   0.00000  Uiso   1.00
C29    C     0.16469   0.16610   0.33649   0.00000  Uiso   1.00
C30    C     0.19567   0.02393   0.27418   0.00000  Uiso   1.00
C31    C     0.13763   0.30938   0.22588   0.00000  Uiso   1.00
C32    C     0.13756   0.02402   0.22600   0.00000  Uiso   1.00
C33    C     0.19565   0.30927   0.27420   0.00000  Uiso   1.00
C34    C     0.02175   0.14940   0.28882   0.00000  Uiso   1.00
H35    H     0.21885   0.04207   0.29350   0.00000  Uiso   1.00
H36    H     0.21352   0.09453   0.36487   0.00000  Uiso   1.00
H37    H     0.09764   0.22412   0.33892   0.00000  Uiso   1.00
H38    H     0.09660   0.10888   0.16114   0.00000  Uiso   1.00
H39    H     0.07467   0.11702   0.32678   0.00000  Uiso   1.00
H40    H     0.26699   0.23160   0.17939   0.00000  Uiso   1.00
H41    H     0.25966   0.15019   0.33878   0.00000  Uiso   1.00
H42    H     0.07650   0.19048   0.16497   0.00000  Uiso   1.00
H43    H     0.11445   0.29122   0.20657   0.00000  Uiso   1.00
H44    H     0.11417   0.04216   0.20701   0.00000  Uiso   1.00
H45    H     0.21879   0.29100   0.29356   0.00000  Uiso   1.00
H46    H     0.17300   0.22932   0.01857   0.00000  Uiso   1.00
H47    H     0.17278   0.10317   0.48085   0.00000  Uiso   1.00
H48    H     0.10080   0.22302   0.46331   0.00000  Uiso   1.00
H49    H     0.10065   0.10796   0.03686   0.00000  Uiso   1.00
H50    H     0.21338   0.23948   0.13439   0.00000  Uiso   1.00
N51    N     0.16667   0.28573   0.25000   0.00000  Uiso   1.00
N52    N     0.16667   0.04760   0.25000   0.00000  Uiso   1.00
O53    O     0.10559   0.20487   0.24999   0.00000  Uiso   1.00
O54    O     0.20406   0.05828   0.42009   0.00000  Uiso   1.00
O55    O     0.09155   0.26594   0.38969   0.00000  Uiso   1.00
O56    O     0.09043   0.06600   0.11109   0.00000  Uiso   1.00
O57    O     0.03417   0.14559   0.36735   0.00000  Uiso   1.00
O58    O     0.29351   0.18930   0.13666   0.00000  Uiso   1.00
O59    O     0.29656   0.09690   0.34726   0.00000  Uiso   1.00
O60    O     0.03491   0.23823   0.15308   0.00000  Uiso   1.00
O61    O     0.22774   0.12846   0.25000   0.00000  Uiso   1.00
O62    O     0.22774   0.20487   0.25000   0.00000  Uiso   1.00
O63    O     0.10559   0.12846   0.24999   0.00000  Uiso   1.00
O64    O     0.16666   0.20489   0.18453   0.00000  Uiso   1.00
O65    O     0.16667   0.12845   0.31547   0.00000  Uiso   1.00
O66    O     0.16667   0.20489   0.31547   0.00000  Uiso   1.00
O67    O     0.16666   0.12845   0.18453   0.00000  Uiso   1.00
O68    O     0.20411   0.27544   0.07911   0.00000  Uiso   1.00
Zn69   Zn    0.16667   0.21771   0.25000   0.00000  Uiso   1.00
Zn70   Zn    0.16667   0.11563   0.25000   0.00000  Uiso   1.00
C71    C     0.42020   0.16638   0.25035   0.00000  Uiso   1.00
C72    C     0.64560   0.18603   0.21321   0.00000  Uiso   1.00
C73    C     0.64492   0.14999   0.28886   0.00000  Uiso   1.00
C74    C     0.35563   0.18500   0.21262   0.00000  Uiso   1.00
C75    C     0.49326   0.20379   0.04141   0.00000  Uiso   1.00
C76    C     0.49310   0.12854   0.45815   0.00000  Uiso   1.00
C77    C     0.45295   0.19693   0.44840   0.00000  Uiso   1.00
C78    C     0.45293   0.13454   0.05158   0.00000  Uiso   1.00
C79    C     0.50324   0.20429   0.08690   0.00000  Uiso   1.00
C80    C     0.50322   0.12864   0.41267   0.00000  Uiso   1.00
C81    C     0.46051   0.19722   0.40233   0.00000  Uiso   1.00
C82    C     0.57994   0.16702   0.25012   0.00000  Uiso   1.00
C83    C     0.46028   0.13494   0.09769   0.00000  Uiso   1.00
C84    C     0.48786   0.16848   0.11543   0.00000  Uiso   1.00
C85    C     0.48793   0.16435   0.38443   0.00000  Uiso   1.00
C86    C     0.46977   0.16840   0.02392   0.00000  Uiso   1.00
C87    C     0.46964   0.16323   0.47584   0.00000  Uiso   1.00
C88    C     0.62430   0.16818   0.25100   0.00000  Uiso   1.00
C89    C     0.37613   0.16572   0.25009   0.00000  Uiso   1.00
C90    C     0.53116   0.24151   0.10245   0.00000  Uiso   1.00
C91    C     0.53118   0.09214   0.39686   0.00000  Uiso   1.00
C92    C     0.43762   0.23075   0.37391   0.00000  Uiso   1.00
C93    C     0.49806   0.16716   0.16346   0.00000  Uiso   1.00
C94    C     0.43678   0.10163   0.12638   0.00000  Uiso   1.00
C95    C     0.37904   0.13526   0.32980   0.00000  Uiso   1.00
C96    C     0.62209   0.20448   0.17422   0.00000  Uiso   1.00
C97    C     0.62044   0.13223   0.32797   0.00000  Uiso   1.00
C98    C     0.38010   0.20475   0.17396   0.00000  Uiso   1.00
C99    C     0.49802   0.16610   0.33649   0.00000  Uiso   1.00
C100   C     0.52901   0.02393   0.27418   0.00000  Uiso   1.00
C101   C     0.47097   0.30938   0.22588   0.00000  Uiso   1.00
C102   C     0.47089   0.02402   0.22600   0.00000  Uiso   1.00
C103   C     0.52899   0.30927   0.27420   0.00000  Uiso   1.00
C104   C     0.35509   0.14940   0.28882   0.00000  Uiso   1.00
H105   H     0.55218   0.04207   0.29350   0.00000  Uiso   1.00
H106   H     0.54686   0.09453   0.36487   0.00000  Uiso   1.00
H107   H     0.43097   0.22412   0.33892   0.00000  Uiso   1.00
H108   H     0.42993   0.10888   0.16114   0.00000  Uiso   1.00
H109   H     0.40800   0.11702   0.32678   0.00000  Uiso   1.00
H110   H     0.60033   0.23160   0.17939   0.00000  Uiso   1.00
H111   H     0.59299   0.15019   0.33878   0.00000  Uiso   1.00
H112   H     0.40983   0.19048   0.16497   0.00000  Uiso   1.00
H113   H     0.44778   0.29122   0.20657   0.00000  Uiso   1.00
H114   H     0.44750   0.04216   0.20701   0.00000  Uiso   1.00
H115   H     0.55213   0.29100   0.29356   0.00000  Uiso   1.00
H116   H     0.50634   0.22932   0.01857   0.00000  Uiso   1.00
H117   H     0.50611   0.10317   0.48085   0.00000  Uiso   1.00
H118   H     0.43413   0.22302   0.46331   0.00000  Uiso   1.00
H119   H     0.43399   0.10796   0.03686   0.00000  Uiso   1.00
H120   H     0.54672   0.23948   0.13439   0.00000  Uiso   1.00
N121   N     0.50000   0.28573   0.25000   0.00000  Uiso   1.00
N122   N     0.50000   0.04760   0.25000   0.00000  Uiso   1.00
O123   O     0.43892   0.20487   0.24999   0.00000  Uiso   1.00
O124   O     0.53739   0.05828   0.42009   0.00000  Uiso   1.00
O125   O     0.42488   0.26594   0.38969   0.00000  Uiso   1.00
O126   O     0.42377   0.06600   0.11109   0.00000  Uiso   1.00
O127   O     0.36750   0.14559   0.36735   0.00000  Uiso   1.00
O128   O     0.62684   0.18930   0.13666   0.00000  Uiso   1.00
O129   O     0.62990   0.09690   0.34726   0.00000  Uiso   1.00
O130   O     0.36824   0.23823   0.15308   0.00000  Uiso   1.00
O131   O     0.56108   0.12846   0.25000   0.00000  Uiso   1.00
O132   O     0.56108   0.20487   0.25000   0.00000  Uiso   1.00
O133   O     0.43892   0.12846   0.24999   0.00000  Uiso   1.00
O134   O     0.50000   0.20489   0.18453   0.00000  Uiso   1.00
O135   O     0.50000   0.12845   0.31547   0.00000  Uiso   1.00
O136   O     0.50000   0.20489   0.31547   0.00000  Uiso   1.00
O137   O     0.50000   0.12845   0.18453   0.00000  Uiso   1.00
O138   O     0.53745   0.27544   0.07911   0.00000  Uiso   1.00
Zn139  Zn    0.50000   0.21771   0.25000   0.00000  Uiso   1.00
Zn140  Zn    0.50000   0.11563   0.25000   0.00000  Uiso   1.00
C141   C     0.75354   0.16638   0.25035   0.00000  Uiso   1.00
C142   C     0.97893   0.18603   0.21321   0.00000  Uiso   1.00
C143   C     0.97826   0.14999   0.28886   0.00000  Uiso   1.00
C144   C     0.68896   0.18500   0.21262   0.00000  Uiso   1.00
C145   C     0.82659   0.20379   0.04141   0.00000  Uiso   1.00
C146   C     0.82644   0.12854   0.45815   0.00000  Uiso   1.00
C147   C     0.78628   0.19693   0.44840   0.00000  Uiso   1.00
C148   C     0.78626   0.13454   0.05158   0.00000  Uiso   1.00
C149   C     0.83657   0.20429   0.08690   0.00000  Uiso   1.00
C150   C     0.83655   0.12864   0.41267   0.00000  Uiso   1.00
C151   C     0.79384   0.19722   0.40233   0.00000  Uiso   1.00
C152   C     0.91327   0.16702   0.25012   0.00000  Uiso   1.00
C153   C     0.79362   0.13494   0.09769   0.00000  Uiso   1.00
C154   C     0.82120   0.16848   0.11543   0.00000  Uiso   1.00
C155   C     0.82127   0.16435   0.38443   0.00000  Uiso   1.00
C156   C     0.80311   0.16840   0.02392   0.00000  Uiso   1.00
C157   C     0.80297   0.16323   0.47584   0.00000  Uiso   1.00
C158   C     0.95763   0.16818   0.25100   0.00000  Uiso   1.00
C159   C     0.70946   0.16572   0.25009   0.00000  Uiso   1.00
C160   C     0.86450   0.24151   0.10245   0.00000  Uiso   1.00
C161   C     0.86451   0.09214   0.39686   0.00000  Uiso   1.00
C162   C     0.77095   0.23075   0.37391   0.00000  Uiso   1.00
C163   C     0.83139   0.16716   0.16346   0.00000  Uiso   1.00
C164   C     0.77011   0.10163   0.12638   0.00000  Uiso   1.00
C165   C     0.71237   0.13526   0.32980   0.00000  Uiso   1.00
C166   C     0.95542   0.20448   0.17422   0.00000  Uiso   1.00
C167   C     0.95377   0.13223   0.32797   0.00000  Uiso   1.00
C168   C     0.71343   0.20475   0.17396   0.00000  Uiso   1.00
C169   C     0.83136   0.16610   0.33649   0.00000  Uiso   1.00
C170   C     0.86234   0.02393   0.27418   0.00000  Uiso   1.00
C171   C     0.80430   0.30938   0.22588   0.00000  Uiso   1.00
C172   C     0.80423   0.02402   0.22600   0.00000  Uiso   1.00
C173   C     0.86232   0.30927   0.27420   0.00000  Uiso   1.00
C174   C     0.68842   0.14940   0.28882   0.00000  Uiso   1.00
H175   H     0.88552   0.04207   0.29350   0.00000  Uiso   1.00
H176   H     0.88019   0.09453   0.36487   0.00000  Uiso   1.00
H177   H     0.76430   0.22412   0.33892   0.00000  Uiso   1.00
H178   H     0.76327   0.10888   0.16114   0.00000  Uiso   1.00
H179   H     0.74134   0.11702   0.32678   0.00000  Uiso   1.00
H180   H     0.93366   0.23160   0.17939   0.00000  Uiso   1.00
H181   H     0.92633   0.15019   0.33878   0.00000  Uiso   1.00
H182   H     0.74316   0.19048   0.16497   0.00000  Uiso   1.00
H183   H     0.78111   0.29122   0.20657   0.00000  Uiso   1.00
H184   H     0.78083   0.04216   0.20701   0.00000  Uiso   1.00
H185   H     0.88546   0.29100   0.29356   0.00000  Uiso   1.00
H186   H     0.83967   0.22932   0.01857   0.00000  Uiso   1.00
H187   H     0.83944   0.10317   0.48085   0.00000  Uiso   1.00
H188   H     0.76747   0.22302   0.46331   0.00000  Uiso   1.00
H189   H     0.76732   0.10796   0.03686   0.00000  Uiso   1.00
H190   H     0.88005   0.23948   0.13439   0.00000  Uiso   1.00
N191   N     0.83333   0.28573   0.25000   0.00000  Uiso   1.00
N192   N     0.83333   0.04760   0.25000   0.00000  Uiso   1.00
O193   O     0.77226   0.20487   0.24999   0.00000  Uiso   1.00
O194   O     0.87073   0.05828   0.42009   0.00000  Uiso   1.00
O195   O     0.75821   0.26594   0.38969   0.00000  Uiso   1.00
O196   O     0.75710   0.06600   0.11109   0.00000  Uiso   1.00
O197   O     0.70084   0.14559   0.36735   0.00000  Uiso   1.00
O198   O     0.96018   0.18930   0.13666   0.00000  Uiso   1.00
O199   O     0.96323   0.09690   0.34726   0.00000  Uiso   1.00
O200   O     0.70157   0.23823   0.15308   0.00000  Uiso   1.00
O201   O     0.89441   0.12846   0.25000   0.00000  Uiso   1.00
O202   O     0.89441   0.20487   0.25000   0.00000  Uiso   1.00
O203   O     0.77226   0.12846   0.24999   0.00000  Uiso   1.00
O204   O     0.83333   0.20489   0.18453   0.00000  Uiso   1.00
O205   O     0.83334   0.12845   0.31547   0.00000  Uiso   1.00
O206   O     0.83334   0.20489   0.31547   0.00000  Uiso   1.00
O207   O     0.83333   0.12845   0.18453   0.00000  Uiso   1.00
O208   O     0.87078   0.27544   0.07911   0.00000  Uiso   1.00
Zn209  Zn    0.83333   0.21771   0.25000   0.00000  Uiso   1.00
Zn210  Zn    0.83333   0.11563   0.25000   0.00000  Uiso   1.00
C211   C     0.08687   0.49971   0.25035   0.00000  Uiso   1.00
C212   C     0.31227   0.51937   0.21321   0.00000  Uiso   1.00
C213   C     0.31159   0.48332   0.28886   0.00000  Uiso   1.00
C214   C     0.02230   0.51833   0.21262   0.00000  Uiso   1.00
C215   C     0.15992   0.53712   0.04141   0.00000  Uiso   1.00
C216   C     0.15977   0.46187   0.45815   0.00000  Uiso   1.00
C217   C     0.11961   0.53026   0.44840   0.00000  Uiso   1.00
C218   C     0.11960   0.46788   0.05158   0.00000  Uiso   1.00
C219   C     0.16990   0.53762   0.08690   0.00000  Uiso   1.00
C220   C     0.16988   0.46197   0.41267   0.00000  Uiso   1.00
C221   C     0.12718   0.53055   0.40233   0.00000  Uiso   1.00
C222   C     0.24661   0.50035   0.25012   0.00000  Uiso   1.00
C223   C     0.12695   0.46827   0.09769   0.00000  Uiso   1.00
C224   C     0.15453   0.50181   0.11543   0.00000  Uiso   1.00
C225   C     0.15460   0.49769   0.38443   0.00000  Uiso   1.00
C226   C     0.13644   0.50174   0.02392   0.00000  Uiso   1.00
C227   C     0.13630   0.49656   0.47584   0.00000  Uiso   1.00
C228   C     0.29097   0.50151   0.25100   0.00000  Uiso   1.00
C229   C     0.04280   0.49905   0.25009   0.00000  Uiso   1.00
C230   C     0.19783   0.57484   0.10245   0.00000  Uiso   1.00
C231   C     0.19784   0.42547   0.39686   0.00000  Uiso   1.00
C232   C     0.10428   0.56408   0.37391   0.00000  Uiso   1.00
C233   C     0.16473   0.50049   0.16346   0.00000  Uiso   1.00
C234   C     0.10345   0.43497   0.12638   0.00000  Uiso   1.00
C235   C     0.04571   0.46859   0.32980   0.00000  Uiso   1.00
C236   C     0.28875   0.53781   0.17422   0.00000  Uiso   1.00
C237   C     0.28710   0.46556   0.32797   0.00000  Uiso   1.00
C238   C     0.04676   0.53808   0.17396   0.00000  Uiso   1.00
C239   C     0.16469   0.49943   0.33649   0.00000  Uiso   1.00
C240   C     0.19567   0.35726   0.27418   0.00000  Uiso   1.00
C241   C     0.13763   0.64271   0.22588   0.00000  Uiso   1.00
C242   C     0.13756   0.35735   0.22600   0.00000  Uiso   1.00
C243   C     0.19565   0.64260   0.27420   0.00000  Uiso   1.00
C244   C     0.02175   0.48273   0.28882   0.00000  Uiso   1.00
H245   H     0.21885   0.37541   0.29350   0.00000  Uiso   1.00
H246   H     0.21352   0.42786   0.36487   0.00000  Uiso   1.00
H247   H     0.09764   0.55745   0.33892   0.00000  Uiso   1.00
H248   H     0.09660   0.44221   0.16114   0.00000  Uiso   1.00
H249   H     0.07467   0.45035   0.32678   0.00000  Uiso   1.00
H250   H     0.26699   0.56494   0.17939   0.00000  Uiso   1.00
H251   H     0.25966   0.48352   0.33878   0.00000  Uiso   1.00
H252   H     0.07650   0.52381   0.16497   0.00000  Uiso   1.00
H253   H     0.11445   0.62456   0.20657   0.00000  Uiso   1.00
H254   H     0.11417   0.37549   0.20701   0.00000  Uiso   1.00
H255   H     0.21879   0.62433   0.29356   0.00000  Uiso   1.00
H256   H     0.17300   0.56265   0.01857   0.00000  Uiso   1.00
H257   H     0.17278   0.43651   0.48085   0.00000  Uiso   1.00
H258   H     0.10080   0.55636   0.46331   0.00000  Uiso   1.00
H259   H     0.10065   0.44129   0.03686   0.00000  Uiso   1.00
H260   H     0.21338   0.57281   0.13439   0.00000  Uiso   1.00
N261   N     0.16667   0.61907   0.25000   0.00000  Uiso   1.00
N262   N     0.16667   0.38093   0.25000   0.00000  Uiso   1.00
O263   O     0.10559   0.53821   0.24999   0.00000  Uiso   1.00
O264   O     0.20406   0.39161   0.42009   0.00000  Uiso   1.00
O265   O     0.09155   0.59927   0.38969   0.00000  Uiso   1.00
O266   O     0.09043   0.39933   0.11109   0.00000  Uiso   1.00
O267   O     0.03417   0.47892   0.36735   0.00000  Uiso   1.00
O268   O     0.29351   0.52263   0.13666   0.00000  Uiso   1.00
O269   O     0.29656   0.43023   0.34726   0.00000  Uiso   1.00
O270   O     0.03491   0.57156   0.15308   0.00000  Uiso   1.00
O271   O     0.22774   0.46179   0.25000   0.00000  Uiso   1.00
O272   O     0.22774   0.53821   0.25000   0.00000  Uiso   1.00
O273   O     0.10559   0.46179   0.24999   0.00000  Uiso   1.00
O274   O     0.16666   0.53822   0.18453   0.00000  Uiso   1.00
O275   O     0.16667   0.46178   0.31547   0.00000  Uiso   1.00
O276   O     0.16667   0.53822   0.31547   0.00000  Uiso   1.00
O277   O     0.16666   0.46178   0.18453   0.00000  Uiso   1.00
O278   O     0.20411   0.60877   0.07911   0.00000  Uiso   1.00
Zn279  Zn    0.16667   0.55104   0.25000   0.00000  Uiso   1.00
Zn280  Zn    0.16667   0.44896   0.25000   0.00000  Uiso   1.00
C281   C     0.42020   0.49971   0.25035   0.00000  Uiso   1.00
C282   C     0.64560   0.51937   0.21321   0.00000  Uiso   1.00
C283   C     0.64492   0.48332   0.28886   0.00000  Uiso   1.00
C284   C     0.35563   0.51833   0.21262   0.00000  Uiso   1.00
C285   C     0.49326   0.53712   0.04141   0.00000  Uiso   1.00
C286   C     0.49310   0.46187   0.45815   0.00000  Uiso   1.00
C287   C     0.45295   0.53026   0.44840   0.00000  Uiso   1.00
C288   C     0.45293   0.46788   0.05158   0.00000  Uiso   1.00
C289   C     0.50324   0.53762   0.08690   0.00000  Uiso   1.00
C290   C     0.50322   0.46197   0.41267   0.00000  Uiso   1.00
C291   C     0.46051   0.53055   0.40233   0.00000  Uiso   1.00
C292   C     0.57994   0.50035   0.25012   0.00000  Uiso   1.00
C293   C     0.46028   0.46827   0.09769   0.00000  Uiso   1.00
C294   C     0.48786   0.50181   0.11543   0.00000  Uiso   1.00
C295   C     0.48793   0.49769   0.38443   0.00000  Uiso   1.00
C296   C     0.46977   0.50174   0.02392   0.00000  Uiso   1.00
C297   C     0.46964   0.49656   0.47584   0.00000  Uiso   1.00
C298   C     0.62430   0.50151   0.25100   0.00000  Uiso   1.00
C299   C     0.37613   0.49905   0.25009   0.00000  Uiso   1.00
C300   C     0.53116   0.57484   0.10245   0.00000  Uiso   1.00
C301   C     0.53118   0.42547   0.39686   0.00000  Uiso   1.00
C302   C     0.43762   0.56408   0.37391   0.00000  Uiso   1.00
C303   C     0.49806   0.50049   0.16346   0.00000  Uiso   1.00
C304   C     0.43678   0.43497   0.12638   0.00000  Uiso   1.00
C305   C     0.37904   0.46859   0.32980   0.00000  Uiso   1.00
C306   C     0.62209   0.53781   0.17422   0.00000  Uiso   1.00
C307   C     0.62044   0.46556   0.32797   0.00000  Uiso   1.00
C308   C     0.38010   0.53808   0.17396   0.00000  Uiso   1.00
C309   C     0.49802   0.49943   0.33649   0.00000  Uiso   1.00
C310   C     0.52901   0.35726   0.27418   0.00000  Uiso   1.00
C311   C     0.47097   0.64271   0.22588   0.00000  Uiso   1.00
C312   C     0.47089   0.35735   0.22600   0.00000  Uiso   1.00
C313   C     0.52899   0.64260   0.27420   0.00000  Uiso   1.00
C314   C     0.35509   0.48273   0.28882   0.00000  Uiso   1.00
H315   H     0.55218   0.37541   0.29350   0.00000  Uiso   1.00
H316   H     0.54686   0.42786   0.36487   0.00000  Uiso   1.00
H317   H     0.43097   0.55745   0.33892   0.00000  Uiso   1.00
H318   H     0.42993   0.44221   0.16114   0.00000  Uiso   1.00
H319   H     0.40800   0.45035   0.32678   0.00000  Uiso   1.00
H320   H     0.60033   0.56494   0.17939   0.00000  Uiso   1.00
H321   H     0.59299   0.48352   0.33878   0.00000  Uiso   1.00
H322   H     0.40983   0.52381   0.16497   0.00000  Uiso   1.00
H323   H     0.44778   0.62456   0.20657   0.00000  Uiso   1.00
H324   H     0.44750   0.37549   0.20701   0.00000  Uiso   1.00
H325   H     0.55213   0.62433   0.29356   0.00000  Uiso   1.00
H326   H     0.50634   0.56265   0.01857   0.00000  Uiso   1.00
H327   H     0.50611   0.43651   0.48085   0.00000  Uiso   1.00
H328   H     0.43413   0.55636   0.46331   0.00000  Uiso   1.00
H329   H     0.43399   0.44129   0.03686   0.00000  Uiso   1.00
H330   H     0.54672   0.57281   0.13439   0.00000  Uiso   1.00
N331   N     0.50000   0.61907   0.25000   0.00000  Uiso   1.00
N332   N     0.50000   0.38093   0.25000   0.00000  Uiso   1.00
O333   O     0.43892   0.53821   0.24999   0.00000  Uiso   1.00
O334   O     0.53739   0.39161   0.42009   0.00000  Uiso   1.00
O335   O     0.42488   0.59927   0.38969   0.00000  Uiso   1.00
O336   O     0.42377   0.39933   0.11109   0.00000  Uiso   1.00
O337   O     0.36750   0.47892   0.36735   0.00000  Uiso   1.00
O338   O     0.62684   0.52263   0.13666   0.00000  Uiso   1.00
O339   O     0.62990   0.43023   0.34726   0.00000  Uiso   1.00
O340   O     0.36824   0.57156   0.15308   0.00000  Uiso   1.00
O341   O     0.56108   0.46179   0.25000   0.00000  Uiso   1.00
O342   O     0.56108   0.53821   0.25000   0.00000  Uiso   1.00
O343   O     0.43892   0.46179   0.24999   0.00000  Uiso   1.00
O344   O     0.50000   0.53822   0.18453   0.00000  Uiso   1.00
O345   O     0.50000   0.46178   0.31547   0.00000  Uiso   1.00
O346   O     0.50000   0.53822   0.31547   0.00000  Uiso   1.00
O347   O     0.50000   0.46178   0.18453   0.00000  Uiso   1.00
O348   O     0.53745   0.60877   0.07911   0.00000  Uiso   1.00
Zn349  Zn    0.50000   0.55104   0.25000   0.00000  Uiso   1.00
Zn350  Zn    0.50000   0.44896   0.25000   0.00000  Uiso   1.00
C351   C     0.75354   0.49971   0.25035   0.00000  Uiso   1.00
C352   C     0.97893   0.51937   0.21321   0.00000  Uiso   1.00
C353   C     0.97826   0.48332   0.28886   0.00000  Uiso   1.00
C354   C     0.68896   0.51833   0.21262   0.00000  Uiso   1.00
C355   C     0.82659   0.53712   0.04141   0.00000  Uiso   1.00
C356   C     0.82644   0.46187   0.45815   0.00000  Uiso   1.00
C357   C     0.78628   0.53026   0.44840   0.00000  Uiso   1.00
C358   C     0.78626   0.46788   0.05158   0.00000  Uiso   1.00
C359   C     0.83657   0.53762   0.08690   0.00000  Uiso   1.00
C360   C     0.83655   0.46197   0.41267   0.00000  Uiso   1.00
C361   C     0.79384   0.53055   0.40233   0.00000  Uiso   1.00
C362   C     0.91327   0.50035   0.25012   0.00000  Uiso   1.00
C363   C     0.79362   0.46827   0.09769   0.00000  Uiso   1.00
C364   C     0.82120   0.50181   0.11543   0.00000  Uiso   1.00
C365   C     0.82127   0.49769   0.38443   0.00000  Uiso   1.00
C366   C     0.80311   0.50174   0.02392   0.00000  Uiso   1.00
C367   C     0.80297   0.49656   0.47584   0.00000  Uiso   1.00
C368   C     0.95763   0.50151   0.25100   0.00000  Uiso   1.00
C369   C     0.70946   0.49905   0.25009   0.00000  Uiso   1.00
C370   C     0.86450   0.57484   0.10245   0.00000  Uiso   1.00
C371   C     0.86451   0.42547   0.39686   0.00000  Uiso   1.00
C372   C     0.77095   0.56408   0.37391   0.00000  Uiso   1.00
C373   C     0.83139   0.50049   0.16346   0.00000  Uiso   1.00
C374   C     0.77011   0.43497   0.12638   0.00000  Uiso   1.00
C375   C     0.71237   0.46859   0.32980   0.00000  Uiso   1.00
C376   C     0.95542   0.53781   0.17422   0.00000  Uiso   1.00
C377   C     0.95377   0.46556   0.32797   0.00000  Uiso   1.00
C378   C     0.71343   0.53808   0.17396   0.00000  Uiso   1.00
C379   C     0.83136   0.49943   0.33649   0.00000  Uiso   1.00
C380   C     0.86234   0.35726   0.27418   0.00000  Uiso   1.00
C381   C     0.80430   0.64271   0.22588   0.00000  Uiso   1.00
C382   C     0.80423   0.35735   0.22600   0.00000  Uiso   1.00
C383   C     0.86232   0.64260   0.27420   0.00000  Uiso   1.00
C384   C     0.68842   0.48273   0.28882   0.00000  Uiso   1.00
H385   H     0.88552   0.37541   0.29350   0.00000  Uiso   1.00
H386   H     0.88019   0.42786   0.36487   0.00000  Uiso   1.00
H387   H     0.76430   0.55745   0.33892   0.00000  Uiso   1.00
H388   H     0.76327   0.44221   0.16114   0.00000  Uiso   1.00
H389   H     0.74134   0.45035   0.32678   0.00000  Uiso   1.00
H390   H     0.93366   0.56494   0.17939   0.00000  Uiso   1.00
H391   H     0.92633   0.48352   0.33878   0.00000  Uiso   1.00
H392   H     0.74316   0.52381   0.16497   0.00000  Uiso   1.00
H393   H     0.78111   0.62456   0.20657   0.00000  Uiso   1.00
H394   H     0.78083   0.37549   0.20701   0.00000  Uiso   1.00
H395   H     0.88546   0.62433   0.29356   0.00000  Uiso   1.00
H396   H     0.83967   0.56265   0.01857   0.00000  Uiso   1.00
H397   H     0.83944   0.43651   0.48085   0.00000  Uiso   1.00
H398   H     0.76747   0.55636   0.46331   0.00000  Uiso   1.00
H399   H     0.76732   0.44129   0.03686   0.00000  Uiso   1.00
H400   H     0.88005   0.57281   0.13439   0.00000  Uiso   1.00
N401   N     0.83333   0.61907   0.25000   0.00000  Uiso   1.00
N402   N     0.83333   0.38093   0.25000   0.00000  Uiso   1.00
O403   O     0.77226   0.53821   0.24999   0.00000  Uiso   1.00
O404   O     0.87073   0.39161   0.42009   0.00000  Uiso   1.00
O405   O     0.75821   0.59927   0.38969   0.00000  Uiso   1.00
O406   O     0.75710   0.39933   0.11109   0.00000  Uiso   1.00
O407   O     0.70084   0.47892   0.36735   0.00000  Uiso   1.00
O408   O     0.96018   0.52263   0.13666   0.00000  Uiso   1.00
O409   O     0.96323   0.43023   0.34726   0.00000  Uiso   1.00
O410   O     0.70157   0.57156   0.15308   0.00000  Uiso   1.00
O411   O     0.89441   0.46179   0.25000   0.00000  Uiso   1.00
O412   O     0.89441   0.53821   0.25000   0.00000  Uiso   1.00
O413   O     0.77226   0.46179   0.24999   0.00000  Uiso   1.00
O414   O     0.83333   0.53822   0.18453   0.00000  Uiso   1.00
O415   O     0.83334   0.46178   0.31547   0.00000  Uiso   1.00
O416   O     0.83334   0.53822   0.31547   0.00000  Uiso   1.00
O417   O     0.83333   0.46178   0.18453   0.00000  Uiso   1.00
O418   O     0.87078   0.60877   0.07911   0.00000  Uiso   1.00
Zn419  Zn    0.83333   0.55104   0.25000   0.00000  Uiso   1.00
Zn420  Zn    0.83333   0.44896   0.25000   0.00000  Uiso   1.00
C421   C     0.08687   0.83304   0.25035   0.00000  Uiso   1.00
C422   C     0.31227   0.85270   0.21321   0.00000  Uiso   1.00
C423   C     0.31159   0.81665   0.28886   0.00000  Uiso   1.00
C424   C     0.02230   0.85167   0.21262   0.00000  Uiso   1.00
C425   C     0.15992   0.87045   0.04141   0.00000  Uiso   1.00
C426   C     0.15977   0.79520   0.45815   0.00000  Uiso   1.00
C427   C     0.11961   0.86360   0.44840   0.00000  Uiso   1.00
C428   C     0.11960   0.80121   0.05158   0.00000  Uiso   1.00
C429   C     0.16990   0.87095   0.08690   0.00000  Uiso   1.00
C430   C     0.16988   0.79530   0.41267   0.00000  Uiso   1.00
C431   C     0.12718   0.86389   0.40233   0.00000  Uiso   1.00
C432   C     0.24661   0.83369   0.25012   0.00000  Uiso   1.00
C433   C     0.12695   0.80161   0.09769   0.00000  Uiso   1.00
C434   C     0.15453   0.83514   0.11543   0.00000  Uiso   1.00
C435   C     0.15460   0.83102   0.38443   0.00000  Uiso   1.00
C436   C     0.13644   0.83507   0.02392   0.00000  Uiso   1.00
C437   C     0.13630   0.82989   0.47584   0.00000  Uiso   1.00
C438   C     0.29097   0.83484   0.25100   0.00000  Uiso   1.00
C439   C     0.04280   0.83239   0.25009   0.00000  Uiso   1.00
C440   C     0.19783   0.90818   0.10245   0.00000  Uiso   1.00
C441   C     0.19784   0.75881   0.39686   0.00000  Uiso   1.00
C442   C     0.10428   0.89741   0.37391   0.00000  Uiso   1.00
C443   C     0.16473   0.83383   0.16346   0.00000  Uiso   1.00
C444   C     0.10345   0.76830   0.12638   0.00000  Uiso   1.00
C445   C     0.04571   0.80193   0.32980   0.00000  Uiso   1.00
C446   C     0.28875   0.87115   0.17422   0.00000  Uiso   1.00
C447   C     0.28710   0.79890   0.32797   0.00000  Uiso   1.00
C448   C     0.04676   0.87141   0.17396   0.00000  Uiso   1.00
C449   C     0.16469   0.83276   0.33649   0.00000  Uiso   1.00
C450   C     0.19567   0.69060   0.27418   0.00000  Uiso   1.00
C451   C     0.13763   0.97605   0.22588   0.00000  Uiso   1.00
C452   C     0.13756   0.69068   0.22600   0.00000  Uiso   1.00
C453   C     0.19565   0.97593   0.27420   0.00000  Uiso   1.00
C454   C     0.02175   0.81606   0.28882   0.00000  Uiso   1.00
H455   H     0.21885   0.70874   0.29350   0.00000  Uiso   1.00
H456   H     0.21352   0.76120   0.36487   0.00000  Uiso   1.00
H457   H     0.09764   0.89078   0.33892   0.00000  Uiso   1.00
H458   H     0.09660   0.77555   0.16114   0.00000  Uiso   1.00
H459   H     0.07467   0.78368   0.32678   0.00000  Uiso   1.00
H460   H     0.26699   0.89827   0.17939   0.00000  Uiso   1.00
H461   H     0.25966   0.81686   0.33878   0.00000  Uiso   1.00
H462   H     0.07650   0.85715   0.16497   0.00000  Uiso   1.00
H463   H     0.11445   0.95789   0.20657   0.00000  Uiso   1.00
H464   H     0.11417   0.70883   0.20701   0.00000  Uiso   1.00
H465   H     0.21879   0.95766   0.29356   0.00000  Uiso   1.00
H466   H     0.17300   0.89599   0.01857   0.00000  Uiso   1.00
H467   H     0.17278   0.76984   0.48085   0.00000  Uiso   1.00
H468   H     0.10080   0.88969   0.46331   0.00000  Uiso   1.00
H469   H     0.10065   0.77462   0.03686   0.00000  Uiso   1.00
H470   H     0.21338   0.90614   0.13439   0.00000  Uiso   1.00
N471   N     0.16667   0.95240   0.25000   0.00000  Uiso   1.00
N472   N     0.16667   0.71427   0.25000   0.00000  Uiso   1.00
O473   O     0.10559   0.87154   0.24999   0.00000  Uiso   1.00
O474   O     0.20406   0.72495   0.42009   0.00000  Uiso   1.00
O475   O     0.09155   0.93260   0.38969   0.00000  Uiso   1.00
O476   O     0.09043   0.73266   0.11109   0.00000  Uiso   1.00
O477   O     0.03417   0.81225   0.36735   0.00000  Uiso   1.00
O478   O     0.29351   0.85596   0.13666   0.00000  Uiso   1.00
O479   O     0.29656   0.76357   0.34726   0.00000  Uiso   1.00
O480   O     0.03491   0.90489   0.15308   0.00000  Uiso   1.00
O481   O     0.22774   0.79513   0.25000   0.00000  Uiso   1.00
O482   O     0.22774   0.87154   0.25000   0.00000  Uiso   1.00
O483   O     0.10559   0.79513   0.24999   0.00000  Uiso   1.00
O484   O     0.16666   0.87155   0.18453   0.00000  Uiso   1.00
O485   O     0.16667   0.79511   0.31547   0.00000  Uiso   1.00
O486   O     0.16667   0.87155   0.31547   0.00000  Uiso   1.00
O487   O     0.16666   0.79511   0.18453   0.00000  Uiso   1.00
O488   O     0.20411   0.94210   0.07911   0.00000  Uiso   1.00
Zn489  Zn    0.16667   0.88437   0.25000   0.00000  Uiso   1.00
Zn490  Zn    0.16667   0.78229   0.25000   0.00000  Uiso   1.00
C491   C     0.42020   0.83304   0.25035   0.00000  Uiso   1.00
C492   C     0.64560   0.85270   0.21321   0.00000  Uiso   1.00
C493   C     0.64492   0.81665   0.28886   0.00000  Uiso   1.00
C494   C     0.35563   0.85167   0.21262   0.00000  Uiso   1.00
C495   C     0.49326   0.87045   0.04141   0.00000  Uiso   1.00
C496   C     0.49310   0.79520   0.45815   0.00000  Uiso   1.00
C497   C     0.45295   0.86360   0.44840   0.00000  Uiso   1.00
C498   C     0.45293   0.80121   0.05158   0.00000  Uiso   1.00
C499   C     0.50324   0.87095   0.08690   0.00000  Uiso   1.00
C500   C     0.50322   0.79530   0.41267   0.00000  Uiso   1.00
C501   C     0.46051   0.86389   0.40233   0.00000  Uiso   1.00
C502   C     0.57994   0.83369   0.25012   0.00000  Uiso   1.00
C503   C     0.46028   0.80161   0.09769   0.00000  Uiso   1.00
C504   C     0.48786   0.83514   0.11543   0.00000  Uiso   1.00
C505   C     0.48793   0.83102   0.38443   0.00000  Uiso   1.00
C506   C     0.46977   0.83507   0.02392   0.00000  Uiso   1.00
C507   C     0.46964   0.82989   0.47584   0.00000  Uiso   1.00
C508   C     0.62430   0.83484   0.25100   0.00000  Uiso   1.00
C509   C     0.37613   0.83239   0.25009   0.00000  Uiso   1.00
C510   C     0.53116   0.90818   0.10245   0.00000  Uiso   1.00
C511   C     0.53118   0.75881   0.39686   0.00000  Uiso   1.00
C512   C     0.43762   0.89741   0.37391   0.00000  Uiso   1.00
C513   C     0.49806   0.83383   0.16346   0.00000  Uiso   1.00
C514   C     0.43678   0.76830   0.12638   0.00000  Uiso   1.00
C515   C     0.37904   0.80193   0.32980   0.00000  Uiso   1.00
C516   C     0.62209   0.87115   0.17422   0.00000  Uiso   1.00
C517   C     0.62044   0.79890   0.32797   0.00000  Uiso   1.00
C518   C     0.38010   0.87141   0.17396   0.00000  Uiso   1.00
C519   C     0.49802   0.83276   0.33649   0.00000  Uiso   1.00
C520   C     0.52901   0.69060   0.27418   0.00000  Uiso   1.00
C521   C     0.47097   0.97605   0.22588   0.00000  Uiso   1.00
C522   C     0.47089   0.69068   0.22600   0.00000  Uiso   1.00
C523   C     0.52899   0.97593   0.27420   0.00000  Uiso   1.00
C524   C     0.35509   0.81606   0.28882   0.00000  Uiso   1.00
H525   H     0.55218   0.70874   0.29350   0.00000  Uiso   1.00
H526   H     0.54686   0.76120   0.36487   0.00000  Uiso   1.00
H527   H     0.43097   0.89078   0.33892   0.00000  Uiso   1.00
H528   H     0.42993   0.77555   0.16114   0.00000  Uiso   1.00
H529   H     0.40800   0.78368   0.32678   0.00000  Uiso   1.00
H530   H     0.60033   0.89827   0.17939   0.00000  Uiso   1.00
H531   H     0.59299   0.81686   0.33878   0.00000  Uiso   1.00
H532   H     0.40983   0.85715   0.16497   0.00000  Uiso   1.00
H533   H     0.44778   0.95789   0.20657   0.00000  Uiso   1.00
H534   H     0.44750   0.70883   0.20701   0.00000  Uiso   1.00
H535   H     0.55213   0.95766   0.29356   0.00000  Uiso   1.00
H536   H     0.50634   0.89599   0.01857   0.00000  Uiso   1.00
H537   H     0.50611   0.76984   0.48085   0.00000  Uiso   1.00
H538   H     0.43413   0.88969   0.46331   0.00000  Uiso   1.00
H539   H     0.43399   0.77462   0.03686   0.00000  Uiso   1.00
H540   H     0.54672   0.90614   0.13439   0.00000  Uiso   1.00
N541   N     0.50000   0.95240   0.25000   0.00000  Uiso   1.00
N542   N     0.50000   0.71427   0.25000   0.00000  Uiso   1.00
O543   O     0.43892   0.87154   0.24999   0.00000  Uiso   1.00
O544   O     0.53739   0.72495   0.42009   0.00000  Uiso   1.00
O545   O     0.42488   0.93260   0.38969   0.00000  Uiso   1.00
O546   O     0.42377   0.73266   0.11109   0.00000  Uiso   1.00
O547   O     0.36750   0.81225   0.36735   0.00000  Uiso   1.00
O548   O     0.62684   0.85596   0.13666   0.00000  Uiso   1.00
O549   O     0.62990   0.76357   0.34726   0.00000  Uiso   1.00
O550   O     0.36824   0.90489   0.15308   0.00000  Uiso   1.00
O551   O     0.56108   0.79513   0.25000   0.00000  Uiso   1.00
O552   O     0.56108   0.87154   0.25000   0.00000  Uiso   1.00
O553   O     0.43892   0.79513   0.24999   0.00000  Uiso   1.00
O554   O     0.50000   0.87155   0.18453   0.00000  Uiso   1.00
O555   O     0.50000   0.79511   0.31547   0.00000  Uiso   1.00
O556   O     0.50000   0.87155   0.31547   0.00000  Uiso   1.00
O557   O     0.50000   0.79511   0.18453   0.00000  Uiso   1.00
O558   O     0.53745   0.94210   0.07911   0.00000  Uiso   1.00
Zn559  Zn    0.50000   0.88437   0.25000   0.00000  Uiso   1.00
Zn560  Zn    0.50000   0.78229   0.25000   0.00000  Uiso   1.00
C561   C     0.75354   0.83304   0.25035   0.00000  Uiso   1.00
C562   C     0.97893   0.85270   0.21321   0.00000  Uiso   1.00
C563   C     0.97826   0.81665   0.28886   0.00000  Uiso   1.00
C564   C     0.68896   0.85167   0.21262   0.00000  Uiso   1.00
C565   C     0.82659   0.87045   0.04141   0.00000  Uiso   1.00
C566   C     0.82644   0.79520   0.45815   0.00000  Uiso   1.00
C567   C     0.78628   0.86360   0.44840   0.00000  Uiso   1.00
C568   C     0.78626   0.80121   0.05158   0.00000  Uiso   1.00
C569   C     0.83657   0.87095   0.08690   0.00000  Uiso   1.00
C570   C     0.83655   0.79530   0.41267   0.00000  Uiso   1.00
C571   C     0.79384   0.86389   0.40233   0.00000  Uiso   1.00
C572   C     0.91327   0.83369   0.25012   0.00000  Uiso   1.00
C573   C     0.79362   0.80161   0.09769   0.00000  Uiso   1.00
C574   C     0.82120   0.83514   0.11543   0.00000  Uiso   1.00
C575   C     0.82127   0.83102   0.38443   0.00000  Uiso   1.00
C576   C     0.80311   0.83507   0.02392   0.00000  Uiso   1.00
C577   C     0.80297   0.82989   0.47584   0.00000  Uiso   1.00
C578   C     0.95763   0.83484   0.25100   0.00000  Uiso   1.00
C579   C     0.70946   0.83239   0.25009   0.00000  Uiso   1.00
C580   C     0.86450   0.90818   0.10245   0.00000  Uiso   1.00
C581   C     0.86451   0.75881   0.39686   0.00000  Uiso   1.00
C582   C     0.77095   0.89741   0.37391   0.00000  Uiso   1.00
C583   C     0.83139   0.83383   0.16346   0.00000  Uiso   1.00
C584   C     0.77011   0.76830   0.12638   0.00000  Uiso   1.00
C585   C     0.71237   0.80193   0.32980   0.00000  Uiso   1.00
C586   C     0.95542   0.87115   0.17422   0.00000  Uiso   1.00
C587   C     0.95377   0.79890   0.32797   0.00000  Uiso   1.00
C588   C     0.71343   0.87141   0.17396   0.00000  Uiso   1.00
C589   C     0.83136   0.83276   0.33649   0.00000  Uiso   1.00
C590   C     0.86234   0.69060   0.27418   0.00000  Uiso   1.00
C591   C     0.80430   0.97605   0.22588   0.00000  Uiso   1.00
C592   C     0.80423   0.69068   0.22600   0.00000  Uiso   1.00
C593   C     0.86232   0.97593   0.27420   0.00000  Uiso   1.00
C594   C     0.68842   0.81606   0.28882   0.00000  Uiso   1.00
H595   H     0.88552   0.70874   0.29350   0.00000  Uiso   1.00
H596   H     0.88019   0.76120   0.36487   0.00000  Uiso   1.00
H597   H     0.76430   0.89078   0.33892   0.00000  Uiso   1.00
H598   H     0.76327   0.77555   0.16114   0.00000  Uiso   1.00
H599   H     0.74134   0.78368   0.32678   0.00000  Uiso   1.00
H600   H     0.93366   0.89827   0.17939   0.00000  Uiso   1.00
H601   H     0.92633   0.81686   0.33878   0.00000  Uiso   1.00
H602   H     0.74316   0.85715   0.16497   0.00000  Uiso   1.00
H603   H     0.78111   0.95789   0.20657   0.00000  Uiso   1.00
H604   H     0.78083   0.70883   0.20701   0.00000  Uiso   1.00
H605   H     0.88546   0.95766   0.29356   0.00000  Uiso   1.00
H606   H     0.83967   0.89599   0.01857   0.00000  Uiso   1.00
H607   H     0.83944   0.76984   0.48085   0.00000  Uiso   1.00
H608   H     0.76747   0.88969   0.46331   0.00000  Uiso   1.00
H609   H     0.76732   0.77462   0.03686   0.00000  Uiso   1.00
H610   H     0.88005   0.90614   0.13439   0.00000  Uiso   1.00
N611   N     0.83333   0.95240   0.25000   0.00000  Uiso   1.00
N612   N     0.83333   0.71427   0.25000   0.00000  Uiso   1.00
O613   O     0.77226   0.87154   0.24999   0.00000  Uiso   1.00
O614   O     0.87073   0.72495   0.42009   0.00000  Uiso   1.00
O615   O     0.75821   0.93260   0.38969   0.00000  Uiso   1.00
O616   O     0.75710   0.73266   0.11109   0.00000  Uiso   1.00
O617   O     0.70084   0.81225   0.36735   0.00000  Uiso   1.00
O618   O     0.96018   0.85596   0.13666   0.00000  Uiso   1.00
O619   O     0.96323   0.76357   0.34726   0.00000  Uiso   1.00
O620   O     0.70157   0.90489   0.15308   0.00000  Uiso   1.00
O621   O     0.89441   0.79513   0.25000   0.00000  Uiso   1.00
O622   O     0.89441   0.87154   0.25000   0.00000  Uiso   1.00
O623   O     0.77226   0.79513   0.24999   0.00000  Uiso   1.00
O624   O     0.83333   0.87155   0.18453   0.00000  Uiso   1.00
O625   O     0.83334   0.79511   0.31547   0.00000  Uiso   1.00
O626   O     0.83334   0.87155   0.31547   0.00000  Uiso   1.00
O627   O     0.83333   0.79511   0.18453   0.00000  Uiso   1.00
O628   O     0.87078   0.94210   0.07911   0.00000  Uiso   1.00
Zn629  Zn    0.83333   0.88437   0.25000   0.00000  Uiso   1.00
Zn630  Zn    0.83333   0.78229   0.25000   0.00000  Uiso   1.00
C631   C     0.08687   0.16638   0.75035   0.00000  Uiso   1.00
C632   C     0.31227   0.18603   0.71321   0.00000  Uiso   1.00
C633   C     0.31159   0.14999   0.78886   0.00000  Uiso   1.00
C634   C     0.02230   0.18500   0.71262   0.00000  Uiso   1.00
C635   C     0.15992   0.20379   0.54141   0.00000  Uiso   1.00
C636   C     0.15977   0.12854   0.95815   0.00000  Uiso   1.00
C637   C     0.11961   0.19693   0.94840   0.00000  Uiso   1.00
C638   C     0.11960   0.13454   0.55158   0.00000  Uiso   1.00
C639   C     0.16990   0.20429   0.58690   0.00000  Uiso   1.00
C640   C     0.16988   0.12864   0.91267   0.00000  Uiso   1.00
C641   C     0.12718   0.19722   0.90233   0.00000  Uiso   1.00
C642   C     0.24661   0.16702   0.75012   0.00000  Uiso   1.00
C643   C     0.12695   0.13494   0.59769   0.00000  Uiso   1.00
C644   C     0.15453   0.16848   0.61543   0.00000  Uiso   1.00
C645   C     0.15460   0.16435   0.88443   0.00000  Uiso   1.00
C646   C     0.13644   0.16840   0.52392   0.00000  Uiso   1.00
C647   C     0.13630   0.16323   0.97584   0.00000  Uiso   1.00
C648   C     0.29097   0.16818   0.75100   0.00000  Uiso   1.00
C649   C     0.04280   0.16572   0.75009   0.00000  Uiso   1.00
C650   C     0.19783   0.24151   0.60245   0.00000  Uiso   1.00
C651   C     0.19784   0.09214   0.89686   0.00000  Uiso   1.00
C652   C     0.10428   0.23075   0.87391   0.00000  Uiso   1.00
C653   C     0.16473   0.16716   0.66346   0.00000  Uiso   1.00
C654   C     0.10345   0.10163   0.62638   0.00000  Uiso   1.00
C655   C     0.04571   0.13526   0.82980   0.00000  Uiso   1.00
C656   C     0.28875   0.20448   0.67422   0.00000  Uiso   1.00
C657   C     0.28710   0.13223   0.82797   0.00000  Uiso   1.00
C658   C     0.04676   0.20475   0.67396   0.00000  Uiso   1.00
C659   C     0.16469   0.16610   0.83649   0.00000  Uiso   1.00
C660   C     0.19567   0.02393   0.77418   0.00000  Uiso   1.00
C661   C     0.13763   0.30938   0.72588   0.00000  Uiso   1.00
C662   C     0.13756   0.02402   0.72600   0.00000  Uiso   1.00
C663   C     0.19565   0.30927   0.77420   0.00000  Uiso   1.00
C664   C     0.02175   0.14940   0.78882   0.00000  Uiso   1.00
H665   H     0.21885   0.04207   0.79350   0.00000  Uiso   1.00
H666   H     0.21352   0.09453   0.86487   0.00000  Uiso   1.00
H667   H     0.09764   0.22412   0.83892   0.00000  Uiso   1.00
H668   H     0.09660   0.10888   0.66114   0.00000  Uiso   1.00
H669   H     0.07467   0.11702   0.82678   0.00000  Uiso   1.00
H670   H     0.26699   0.23160   0.67939   0.00000  Uiso   1.00
H671   H     0.25966   0.15019   0.83878   0.00000  Uiso   1.00
H672   H     0.07650   0.19048   0.66497   0.00000  Uiso   1.00
H673   H     0.11445   0.29122   0.70657   0.00000  Uiso   1.00
H674   H     0.11417   0.04216   0.70701   0.00000  Uiso   1.00
H675   H     0.21879   0.29100   0.79356   0.00000  Uiso   1.00
H676   H     0.17300   0.22932   0.51857   0.00000  Uiso   1.00
H677   H     0.17278   0.10317   0.98085   0.00000  Uiso   1.00
H678   H     0.10080   0.22302   0.96331   0.00000  Uiso   1.00
H679   H     0.10065   0.10796   0.53686   0.00000  Uiso   1.00
H680   H     0.21338   0.23948   0.63439   0.00000  Uiso   1.00
N681   N     0.16667   0.28573   0.75000   0.00000  Uiso   1.00
N682   N     0.16667   0.04760   0.75000   0.00000  Uiso   1.00
O683   O     0.10559   0.20487   0.74999   0.00000  Uiso   1.00
O684   O     0.20406   0.05828   0.92009   0.00000  Uiso   1.00
O685   O     0.09155   0.26594   0.88969   0.00000  Uiso   1.00
O686   O     0.09043   0.06600   0.61109   0.00000  Uiso   1.00
O687   O     0.03417   0.14559   0.86735   0.00000  Uiso   1.00
O688   O     0.29351   0.18930   0.63666   0.00000  Uiso   1.00
O689   O     0.29656   0.09690   0.84726   0.00000  Uiso   1.00
O690   O     0.03491   0.23823   0.65308   0.00000  Uiso   1.00
O691   O     0.22774   0.12846   0.75000   0.00000  Uiso   1.00
O692   O     0.22774   0.20487   0.75000   0.00000  Uiso   1.00
O693   O     0.10559   0.12846   0.74999   0.00000  Uiso   1.00
O694   O     0.16666   0.20489   0.68453   0.00000  Uiso   1.00
O695   O     0.16667   0.12845   0.81547   0.00000  Uiso   1.00
O696   O     0.16667   0.20489   0.81547   0.00000  Uiso   1.00
O697   O     0.16666   0.12845   0.68453   0.00000  Uiso   1.00
O698   O     0.20411   0.27544   0.57911   0.00000  Uiso   1.00
Zn699  Zn    0.16667   0.21771   0.75000   0.00000  Uiso   1.00
Zn700  Zn    0.16667   0.11563   0.75000   0.00000  Uiso   1.00
C701   C     0.42020   0.16638   0.75035   0.00000  Uiso   1.00
C702   C     0.64560   0.18603   0.71321   0.00000  Uiso   1.00
C703   C     0.64492   0.14999   0.78886   0.00000  Uiso   1.00
C704   C     0.35563   0.18500   0.71262   0.00000  Uiso   1.00
C705   C     0.49326   0.20379   0.54141   0.00000  Uiso   1.00
C706   C     0.49310   0.12854   0.95815   0.00000  Uiso   1.00
C707   C     0.45295   0.19693   0.94840   0.00000  Uiso   1.00
C708   C     0.45293   0.13454   0.55158   0.00000  Uiso   1.00
C709   C     0.50324   0.20429   0.58690   0.00000  Uiso   1.00
C710   C     0.50322   0.12864   0.91267   0.00000  Uiso   1.00
C711   C     0.46051   0.19722   0.90233   0.00000  Uiso   1.00
C712   C     0.57994   0.16702   0.75012   0.00000  Uiso   1.00
C713   C     0.46028   0.13494   0.59769   0.00000  Uiso   1.00
C714   C     0.48786   0.16848   0.61543   0.00000  Uiso   1.00
C715   C     0.48793   0.16435   0.88443   0.00000  Uiso   1.00
C716   C     0.46977   0.16840   0.52392   0.00000  Uiso   1.00
C717   C     0.46964   0.16323   0.97584   0.00000  Uiso   1.00
C718   C     0.62430   0.16818   0.75100   0.00000  Uiso   1.00
C719   C     0.37613   0.16572   0.75009   0.00000  Uiso   1.00
C720   C     0.53116   0.24151   0.60245   0.00000  Uiso   1.00
C721   C     0.53118   0.09214   0.89686   0.00000  Uiso   1.00
C722   C     0.43762   0.23075   0.87391   0.00000  Uiso   1.00
C723   C     0.49806   0.16716   0.66346   0.00000  Uiso   1.00
C724   C     0.43678   0.10163   0.62638   0.00000  Uiso   1.00
C725   C     0.37904   0.13526   0.82980   0.00000  Uiso   1.00
C726   C     0.62209   0.20448   0.67422   0.00000  Uiso   1.00
C727   C     0.62044   0.13223   0.82797   0.00000  Uiso   1.00
C728   C     0.38010   0.20475   0.67396   0.00000  Uiso   1.00
C729   C     0.49802   0.16610   0.83649   0.00000  Uiso   1.00
C730   C     0.52901   0.02393   0.77418   0.00000  Uiso   1.00
C731   C     0.47097   0.30938   0.72588   0.00000  Uiso   1.00
C732   C     0.47089   0.02402   0.72600   0.00000  Uiso   1.00
C733   C     0.52899   0.30927   0.77420   0.00000  Uiso   1.00
C734   C     0.35509   0.14940   0.78882   0.00000  Uiso   1.00
H735   H     0.55218   0.04207   0.79350   0.00000  Uiso   1.00
H736   H     0.54686   0.09453   0.86487   0.00000  Uiso   1.00
H737   H     0.43097   0.22412   0.83892   0.00000  Uiso   1.00
H738   H     0.42993   0.10888   0.66114   0.00000  Uiso   1.00
H739   H     0.40800   0.11702   0.82678   0.00000  Uiso   1.00
H740   H     0.60033   0.23160   0.67939   0.00000  Uiso   1.00
H741   H     0.59299   0.15019   0.83878   0.00000  Uiso   1.00
H742   H     0.40983   0.19048   0.66497   0.00000  Uiso   1.00
H743   H     0.44778   0.29122   0.70657   0.00000  Uiso   1.00
H744   H     0.44750   0.04216   0.70701   0.00000  Uiso   1.00
H745   H     0.55213   0.29100   0.79356   0.00000  Uiso   1.00
H746   H     0.50634   0.22932   0.51857   0.00000  Uiso   1.00
H747   H     0.50611   0.10317   0.98085   0.00000  Uiso   1.00
H748   H     0.43413   0.22302   0.96331   0.00000  Uiso   1.00
H749   H     0.43399   0.10796   0.53686   0.00000  Uiso   1.00
H750   H     0.54672   0.23948   0.63439   0.00000  Uiso   1.00
N751   N     0.50000   0.28573   0.75000   0.00000  Uiso   1.00
N752   N     0.50000   0.04760   0.75000   0.00000  Uiso   1.00
O753   O     0.43892   0.20487   0.74999   0.00000  Uiso   1.00
O754   O     0.53739   0.05828   0.92009   0.00000  Uiso   1.00
O755   O     0.42488   0.26594   0.88969   0.00000  Uiso   1.00
O756   O     0.42377   0.06600   0.61109   0.00000  Uiso   1.00
O757   O     0.36750   0.14559   0.86735   0.00000  Uiso   1.00
O758   O     0.62684   0.18930   0.63666   0.00000  Uiso   1.00
O759   O     0.62990   0.09690   0.84726   0.00000  Uiso   1.00
O760   O     0.36824   0.23823   0.65308   0.00000  Uiso   1.00
O761   O     0.56108   0.12846   0.75000   0.00000  Uiso   1.00
O762   O     0.56108   0.20487   0.75000   0.00000  Uiso   1.00
O763   O     0.43892   0.12846   0.74999   0.00000  Uiso   1.00
O764   O     0.50000   0.20489   0.68453   0.00000  Uiso   1.00
O765   O     0.50000   0.12845   0.81547   0.00000  Uiso   1.00
O766   O     0.50000   0.20489   0.81547   0.00000  Uiso   1.00
O767   O     0.50000   0.12845   0.68453   0.00000  Uiso   1.00
O768   O     0.53745   0.27544   0.57911   0.00000  Uiso   1.00
Zn769  Zn    0.50000   0.21771   0.75000   0.00000  Uiso   1.00
Zn770  Zn    0.50000   0.11563   0.75000   0.00000  Uiso   1.00
C771   C     0.75354   0.16638   0.75035   0.00000  Uiso   1.00
C772   C     0.97893   0.18603   0.71321   0.00000  Uiso   1.00
C773   C     0.97826   0.14999   0.78886   0.00000  Uiso   1.00
C774   C     0.68896   0.18500   0.71262   0.00000  Uiso   1.00
C775   C     0.82659   0.20379   0.54141   0.00000  Uiso   1.00
C776   C     0.82644   0.12854   0.95815   0.00000  Uiso   1.00
C777   C     0.78628   0.19693   0.94840   0.00000  Uiso   1.00
C778   C     0.78626   0.13454   0.55158   0.00000  Uiso   1.00
C779   C     0.83657   0.20429   0.58690   0.00000  Uiso   1.00
C780   C     0.83655   0.12864   0.91267   0.00000  Uiso   1.00
C781   C     0.79384   0.19722   0.90233   0.00000  Uiso   1.00
C782   C     0.91327   0.16702   0.75012   0.00000  Uiso   1.00
C783   C     0.79362   0.13494   0.59769   0.00000  Uiso   1.00
C784   C     0.82120   0.16848   0.61543   0.00000  Uiso   1.00
C785   C     0.82127   0.16435   0.88443   0.00000  Uiso   1.00
C786   C     0.80311   0.16840   0.52392   0.00000  Uiso   1.00
C787   C     0.80297   0.16323   0.97584   0.00000  Uiso   1.00
C788   C     0.95763   0.16818   0.75100   0.00000  Uiso   1.00
C789   C     0.70946   0.16572   0.75009   0.00000  Uiso   1.00
C790   C     0.86450   0.24151   0.60245   0.00000  Uiso   1.00
C791   C     0.86451   0.09214   0.89686   0.00000  Uiso   1.00
C792   C     0.77095   0.23075   0.87391   0.00000  Uiso   1.00
C793   C     0.83139   0.16716   0.66346   0.00000  Uiso   1.00
C794   C     0.77011   0.10163   0.62638   0.00000  Uiso   1.00
C795   C     0.71237   0.13526   0.82980   0.00000  Uiso   1.00
C796   C     0.95542   0.20448   0.67422   0.00000  Uiso   1.00
C797   C     0.95377   0.13223   0.82797   0.00000  Uiso   1.00
C798   C     0.71343   0.20475   0.67396   0.00000  Uiso   1.00
C799   C     0.83136   0.16610   0.83649   0.00000  Uiso   1.00
C800   C     0.86234   0.02393   0.77418   0.00000  Uiso   1.00
C801   C     0.80430   0.30938   0.72588   0.00000  Uiso   1.00
C802   C     0.80423   0.02402   0.72600   0.00000  Uiso   1.00
C803   C     0.86232   0.30927   0.77420   0.00000  Uiso   1.00
C804   C     0.68842   0.14940   0.78882   0.00000  Uiso   1.00
H805   H     0.88552   0.04207   0.79350   0.00000  Uiso   1.00
H806   H     0.88019   0.09453   0.86487   0.00000  Uiso   1.00
H807   H     0.76430   0.22412   0.83892   0.00000  Uiso   1.00
H808   H     0.76327   0.10888   0.66114   0.00000  Uiso   1.00
H809   H     0.74134   0.11702   0.82678   0.00000  Uiso   1.00
H810   H     0.93366   0.23160   0.67939   0.00000  Uiso   1.00
H811   H     0.92633   0.15019   0.83878   0.00000  Uiso   1.00
H812   H     0.74316   0.19048   0.66497   0.00000  Uiso   1.00
H813   H     0.78111   0.29122   0.70657   0.00000  Uiso   1.00
H814   H     0.78083   0.04216   0.70701   0.00000  Uiso   1.00
H815   H     0.88546   0.29100   0.79356   0.00000  Uiso   1.00
H816   H     0.83967   0.22932   0.51857   0.00000  Uiso   1.00
H817   H     0.83944   0.10317   0.98085   0.00000  Uiso   1.00
H818   H     0.76747   0.22302   0.96331   0.00000  Uiso   1.00
H819   H     0.76732   0.10796   0.53686   0.00000  Uiso   1.00
H820   H     0.88005   0.23948   0.63439   0.00000  Uiso   1.00
N821   N     0.83333   0.28573   0.75000   0.00000  Uiso   1.00
N822   N     0.83333   0.04760   0.75000   0.00000  Uiso   1.00
O823   O     0.77226   0.20487   0.74999   0.00000  Uiso   1.00
O824   O     0.87073   0.05828   0.92009   0.00000  Uiso   1.00
O825   O     0.75821   0.26594   0.88969   0.00000  Uiso   1.00
O826   O     0.75710   0.06600   0.61109   0.00000  Uiso   1.00
O827   O     0.70084   0.14559   0.86735   0.00000  Uiso   1.00
O828   O     0.96018   0.18930   0.63666   0.00000  Uiso   1.00
O829   O     0.96323   0.09690   0.84726   0.00000  Uiso   1.00
O830   O     0.70157   0.23823   0.65308   0.00000  Uiso   1.00
O831   O     0.89441   0.12846   0.75000   0.00000  Uiso   1.00
O832   O     0.89441   0.20487   0.75000   0.00000  Uiso   1.00
O833   O     0.77226   0.12846   0.74999   0.00000  Uiso   1.00
O834   O     0.83333   0.20489   0.68453   0.00000  Uiso   1.00
O835   O     0.83334   0.12845   0.81547   0.00000  Uiso   1.00
O836   O     0.83334   0.20489   0.81547   0.00000  Uiso   1.00
O837   O     0.83333   0.12845   0.68453   0.00000  Uiso   1.00
O838   O     0.87078   0.27544   0.57911   0.00000  Uiso   1.00
Zn839  Zn    0.83333   0.21771   0.75000   0.00000  Uiso   1.00
Zn840  Zn    0.83333   0.11563   0.75000   0.00000  Uiso   1.00
C841   C     0.08687   0.49971   0.75035   0.00000  Uiso   1.00
C842   C     0.31227   0.51937   0.71321   0.00000  Uiso   1.00
C843   C     0.31159   0.48332   0.78886   0.00000  Uiso   1.00
C844   C     0.02230   0.51833   0.71262   0.00000  Uiso   1.00
C845   C     0.15992   0.53712   0.54141   0.00000  Uiso   1.00
C846   C     0.15977   0.46187   0.95815   0.00000  Uiso   1.00
C847   C     0.11961   0.53026   0.94840   0.00000  Uiso   1.00
C848   C     0.11960   0.46788   0.55158   0.00000  Uiso   1.00
C849   C     0.16990   0.53762   0.58690   0.00000  Uiso   1.00
C850   C     0.16988   0.46197   0.91267   0.00000  Uiso   1.00
C851   C     0.12718   0.53055   0.90233   0.00000  Uiso   1.00
C852   C     0.24661   0.50035   0.75012   0.00000  Uiso   1.00
C853   C     0.12695   0.46827   0.59769   0.00000  Uiso   1.00
C854   C     0.15453   0.50181   0.61543   0.00000  Uiso   1.00
C855   C     0.15460   0.49769   0.88443   0.00000  Uiso   1.00
C856   C     0.13644   0.50174   0.52392   0.00000  Uiso   1.00
C857   C     0.13630   0.49656   0.97584   0.00000  Uiso   1.00
C858   C     0.29097   0.50151   0.75100   0.00000  Uiso   1.00
C859   C     0.04280   0.49905   0.75009   0.00000  Uiso   1.00
C860   C     0.19783   0.57484   0.60245   0.00000  Uiso   1.00
C861   C     0.19784   0.42547   0.89686   0.00000  Uiso   1.00
C862   C     0.10428   0.56408   0.87391   0.00000  Uiso   1.00
C863   C     0.16473   0.50049   0.66346   0.00000  Uiso   1.00
C864   C     0.10345   0.43497   0.62638   0.00000  Uiso   1.00
C865   C     0.04571   0.46859   0.82980   0.00000  Uiso   1.00
C866   C     0.28875   0.53781   0.67422   0.00000  Uiso   1.00
C867   C     0.28710   0.46556   0.82797   0.00000  Uiso   1.00
C868   C     0.04676   0.53808   0.67396   0.00000  Uiso   1.00
C869   C     0.16469   0.49943   0.83649   0.00000  Uiso   1.00
C870   C     0.19567   0.35726   0.77418   0.00000  Uiso   1.00
C871   C     0.13763   0.64271   0.72588   0.00000  Uiso   1.00
C872   C     0.13756   0.35735   0.72600   0.00000  Uiso   1.00
C873   C     0.19565   0.64260   0.77420   0.00000  Uiso   1.00
C874   C     0.02175   0.48273   0.78882   0.00000  Uiso   1.00
H875   H     0.21885   0.37541   0.79350   0.00000  Uiso   1.00
H876   H     0.21352   0.42786   0.86487   0.00000  Uiso   1.00
H877   H     0.09764   0.55745   0.83892   0.00000  Uiso   1.00
H878   H     0.09660   0.44221   0.66114   0.00000  Uiso   1.00
H879   H     0.07467   0.45035   0.82678   0.00000  Uiso   1.00
H880   H     0.26699   0.56494   0.67939   0.00000  Uiso   1.00
H881   H     0.25966   0.48352   0.83878   0.00000  Uiso   1.00
H882   H     0.07650   0.52381   0.66497   0.00000  Uiso   1.00
H883   H     0.11445   0.62456   0.70657   0.00000  Uiso   1.00
H884   H     0.11417   0.37549   0.70701   0.00000  Uiso   1.00
H885   H     0.21879   0.62433   0.79356   0.00000  Uiso   1.00
H886   H     0.17300   0.56265   0.51857   0.00000  Uiso   1.00
H887   H     0.17278   0.43651   0.98085   0.00000  Uiso   1.00
H888   H     0.10080   0.55636   0.96331   0.00000  Uiso   1.00
H889   H     0.10065   0.44129   0.53686   0.00000  Uiso   1.00
H890   H     0.21338   0.57281   0.63439   0.00000  Uiso   1.00
N891   N     0.16667   0.61907   0.75000   0.00000  Uiso   1.00
N892   N     0.16667   0.38093   0.75000   0.00000  Uiso   1.00
O893   O     0.10559   0.53821   0.74999   0.00000  Uiso   1.00
O894   O     0.20406   0.39161   0.92009   0.00000  Uiso   1.00
O895   O     0.09155   0.59927   0.88969   0.00000  Uiso   1.00
O896   O     0.09043   0.39933   0.61109   0.00000  Uiso   1.00
O897   O     0.03417   0.47892   0.86735   0.00000  Uiso   1.00
O898   O     0.29351   0.52263   0.63666   0.00000  Uiso   1.00
O899   O     0.29656   0.43023   0.84726   0.00000  Uiso   1.00
O900   O     0.03491   0.57156   0.65308   0.00000  Uiso   1.00
O901   O     0.22774   0.46179   0.75000   0.00000  Uiso   1.00
O902   O     0.22774   0.53821   0.75000   0.00000  Uiso   1.00
O903   O     0.10559   0.46179   0.74999   0.00000  Uiso   1.00
O904   O     0.16666   0.53822   0.68453   0.00000  Uiso   1.00
O905   O     0.16667   0.46178   0.81547   0.00000  Uiso   1.00
O906   O     0.16667   0.53822   0.81547   0.00000  Uiso   1.00
O907   O     0.16666   0.46178   0.68453   0.00000  Uiso   1.00
O908   O     0.20411   0.60877   0.57911   0.00000  Uiso   1.00
Zn909  Zn    0.16667   0.55104   0.75000   0.00000  Uiso   1.00
Zn910  Zn    0.16667   0.44896   0.75000   0.00000  Uiso   1.00
C911   C     0.42020   0.49971   0.75035   0.00000  Uiso   1.00
C912   C     0.64560   0.51937   0.71321   0.00000  Uiso   1.00
C913   C     0.64492   0.48332   0.78886   0.00000  Uiso   1.00
C914   C     0.35563   0.51833   0.71262   0.00000  Uiso   1.00
C915   C     0.49326   0.53712   0.54141   0.00000  Uiso   1.00
C916   C     0.49310   0.46187   0.95815   0.00000  Uiso   1.00
C917   C     0.45295   0.53026   0.94840   0.00000  Uiso   1.00
C918   C     0.45293   0.46788   0.55158   0.00000  Uiso   1.00
C919   C     0.50324   0.53762   0.58690   0.00000  Uiso   1.00
C920   C     0.50322   0.46197   0.91267   0.00000  Uiso   1.00
C921   C     0.46051   0.53055   0.90233   0.00000  Uiso   1.00
C922   C     0.57994   0.50035   0.75012   0.00000  Uiso   1.00
C923   C     0.46028   0.46827   0.59769   0.00000  Uiso   1.00
C924   C     0.48786   0.50181   0.61543   0.00000  Uiso   1.00
C925   C     0.48793   0.49769   0.88443   0.00000  Uiso   1.00
C926   C     0.46977   0.50174   0.52392   0.00000  Uiso   1.00
C927   C     0.46964   0.49656   0.97584   0.00000  Uiso   1.00
C928   C     0.62430   0.50151   0.75100   0.00000  Uiso   1.00
C929   C     0.37613   0.49905   0.75009   0.00000  Uiso   1.00
C930   C     0.53116   0.57484   0.60245   0.00000  Uiso   1.00
C931   C     0.53118   0.42547   0.89686   0.00000  Uiso   1.00
C932   C     0.43762   0.56408   0.87391   0.00000  Uiso   1.00
C933   C     0.49806   0.50049   0.66346   0.00000  Uiso   1.00
C934   C     0.43678   0.43497   0.62638   0.00000  Uiso   1.00
C935   C     0.37904   0.46859   0.82980   0.00000  Uiso   1.00
C936   C     0.62209   0.53781   0.67422   0.00000  Uiso   1.00
C937   C     0.62044   0.46556   0.82797   0.00000  Uiso   1.00
C938   C     0.38010   0.53808   0.67396   0.00000  Uiso   1.00
C939   C     0.49802   0.49943   0.83649   0.00000  Uiso   1.00
C940   C     0.52901   0.35726   0.77418   0.00000  Uiso   1.00
C941   C     0.47097   0.64271   0.72588   0.00000  Uiso   1.00
C942   C     0.47089   0.35735   0.72600   0.00000  Uiso   1.00
C943   C     0.52899   0.64260   0.77420   0.00000  Uiso   1.00
C944   C     0.35509   0.48273   0.78882   0.00000  Uiso   1.00
H945   H     0.55218   0.37541   0.79350   0.00000  Uiso   1.00
H946   H     0.54686   0.42786   0.86487   0.00000  Uiso   1.00
H947   H     0.43097   0.55745   0.83892   0.00000  Uiso   1.00
H948   H     0.42993   0.44221   0.66114   0.00000  Uiso   1.00
H949   H     0.40800   0.45035   0.82678   0.00000  Uiso   1.00
H950   H     0.60033   0.56494   0.67939   0.00000  Uiso   1.00
H951   H     0.59299   0.48352   0.83878   0.00000  Uiso   1.00
H952   H     0.40983   0.52381   0.66497   0.00000  Uiso   1.00
H953   H     0.44778   0.62456   0.70657   0.00000  Uiso   1.00
H954   H     0.44750   0.37549   0.70701   0.00000  Uiso   1.00
H955   H     0.55213   0.62433   0.79356   0.00000  Uiso   1.00
H956   H     0.50634   0.56265   0.51857   0.00000  Uiso   1.00
H957   H     0.50611   0.43651   0.98085   0.00000  Uiso   1.00
H958   H     0.43413   0.55636   0.96331   0.00000  Uiso   1.00
H959   H     0.43399   0.44129   0.53686   0.00000  Uiso   1.00
H960   H     0.54672   0.57281   0.63439   0.00000  Uiso   1.00
N961   N     0.50000   0.61907   0.75000   0.00000  Uiso   1.00
N962   N     0.50000   0.38093   0.75000   0.00000  Uiso   1.00
O963   O     0.43892   0.53821   0.74999   0.00000  Uiso   1.00
O964   O     0.53739   0.39161   0.92009   0.00000  Uiso   1.00
O965   O     0.42488   0.59927   0.88969   0.00000  Uiso   1.00
O966   O     0.42377   0.39933   0.61109   0.00000  Uiso   1.00
O967   O     0.36750   0.47892   0.86735   0.00000  Uiso   1.00
O968   O     0.62684   0.52263   0.63666   0.00000  Uiso   1.00
O969   O     0.62990   0.43023   0.84726   0.00000  Uiso   1.00
O970   O     0.36824   0.57156   0.65308   0.00000  Uiso   1.00
O971   O     0.56108   0.46179   0.75000   0.00000  Uiso   1.00
O972   O     0.56108   0.53821   0.75000   0.00000  Uiso   1.00
O973   O     0.43892   0.46179   0.74999   0.00000  Uiso   1.00
O974   O     0.50000   0.53822   0.68453   0.00000  Uiso   1.00
O975   O     0.50000   0.46178   0.81547   0.00000  Uiso   1.00
O976   O     0.50000   0.53822   0.81547   0.00000  Uiso   1.00
O977   O     0.50000   0.46178   0.68453   0.00000  Uiso   1.00
O978   O     0.53745   0.60877   0.57911   0.00000  Uiso   1.00
Zn979  Zn    0.50000   0.55104   0.75000   0.00000  Uiso   1.00
Zn980  Zn    0.50000   0.44896   0.75000   0.00000  Uiso   1.00
C981   C     0.75354   0.49971   0.75035   0.00000  Uiso   1.00
C982   C     0.97893   0.51937   0.71321   0.00000  Uiso   1.00
C983   C     0.97826   0.48332   0.78886   0.00000  Uiso   1.00
C984   C     0.68896   0.51833   0.71262   0.00000  Uiso   1.00
C985   C     0.82659   0.53712   0.54141   0.00000  Uiso   1.00
C986   C     0.82644   0.46187   0.95815   0.00000  Uiso   1.00
C987   C     0.78628   0.53026   0.94840   0.00000  Uiso   1.00
C988   C     0.78626   0.46788   0.55158   0.00000  Uiso   1.00
C989   C     0.83657   0.53762   0.58690   0.00000  Uiso   1.00
C990   C     0.83655   0.46197   0.91267   0.00000  Uiso   1.00
C991   C     0.79384   0.53055   0.90233   0.00000  Uiso   1.00
C992   C     0.91327   0.50035   0.75012   0.00000  Uiso   1.00
C993   C     0.79362   0.46827   0.59769   0.00000  Uiso   1.00
C994   C     0.82120   0.50181   0.61543   0.00000  Uiso   1.00
C995   C     0.82127   0.49769   0.88443   0.00000  Uiso   1.00
C996   C     0.80311   0.50174   0.52392   0.00000  Uiso   1.00
C997   C     0.80297   0.49656   0.97584   0.00000  Uiso   1.00
C998   C     0.95763   0.50151   0.75100   0.00000  Uiso   1.00
C999   C     0.70946   0.49905   0.75009   0.00000  Uiso   1.00
C1000  C     0.86450   0.57484   0.60245   0.00000  Uiso   1.00
C1001  C     0.86451   0.42547   0.89686   0.00000  Uiso   1.00
C1002  C     0.77095   0.56408   0.87391   0.00000  Uiso   1.00
C1003  C     0.83139   0.50049   0.66346   0.00000  Uiso   1.00
C1004  C     0.77011   0.43497   0.62638   0.00000  Uiso   1.00
C1005  C     0.71237   0.46859   0.82980   0.00000  Uiso   1.00
C1006  C     0.95542   0.53781   0.67422   0.00000  Uiso   1.00
C1007  C     0.95377   0.46556   0.82797   0.00000  Uiso   1.00
C1008  C     0.71343   0.53808   0.67396   0.00000  Uiso   1.00
C1009  C     0.83136   0.49943   0.83649   0.00000  Uiso   1.00
C1010  C     0.86234   0.35726   0.77418   0.00000  Uiso   1.00
C1011  C     0.80430   0.64271   0.72588   0.00000  Uiso   1.00
C1012  C     0.80423   0.35735   0.72600   0.00000  Uiso   1.00
C1013  C     0.86232   0.64260   0.77420   0.00000  Uiso   1.00
C1014  C     0.68842   0.48273   0.78882   0.00000  Uiso   1.00
H1015  H     0.88552   0.37541   0.79350   0.00000  Uiso   1.00
H1016  H     0.88019   0.42786   0.86487   0.00000  Uiso   1.00
H1017  H     0.76430   0.55745   0.83892   0.00000  Uiso   1.00
H1018  H     0.76327   0.44221   0.66114   0.00000  Uiso   1.00
H1019  H     0.74134   0.45035   0.82678   0.00000  Uiso   1.00
H1020  H     0.93366   0.56494   0.67939   0.00000  Uiso   1.00
H1021  H     0.92633   0.48352   0.83878   0.00000  Uiso   1.00
H1022  H     0.74316   0.52381   0.66497   0.00000  Uiso   1.00
H1023  H     0.78111   0.62456   0.70657   0.00000  Uiso   1.00
H1024  H     0.78083   0.37549   0.70701   0.00000  Uiso   1.00
H1025  H     0.88546   0.62433   0.79356   0.00000  Uiso   1.00
H1026  H     0.83967   0.56265   0.51857   0.00000  Uiso   1.00
H1027  H     0.83944   0.43651   0.98085   0.00000  Uiso   1.00
H1028  H     0.76747   0.55636   0.96331   0.00000  Uiso   1.00
H1029  H     0.76732   0.44129   0.53686   0.00000  Uiso   1.00
H1030  H     0.88005   0.57281   0.63439   0.00000  Uiso   1.00
N1031  N     0.83333   0.61907   0.75000   0.00000  Uiso   1.00
N1032  N     0.83333   0.38093   0.75000   0.00000  Uiso   1.00
O1033  O     0.77226   0.53821   0.74999   0.00000  Uiso   1.00
O1034  O     0.87073   0.39161   0.92009   0.00000  Uiso   1.00
O1035  O     0.75821   0.59927   0.88969   0.00000  Uiso   1.00
O1036  O     0.75710   0.39933   0.61109   0.00000  Uiso   1.00
O1037  O     0.70084   0.47892   0.86735   0.00000  Uiso   1.00
O1038  O     0.96018   0.52263   0.63666   0.00000  Uiso   1.00
O1039  O     0.96323   0.43023   0.84726   0.00000  Uiso   1.00
O1040  O     0.70157   0.57156   0.65308   0.00000  Uiso   1.00
O1041  O     0.89441   0.46179   0.75000   0.00000  Uiso   1.00
O1042  O     0.89441   0.53821   0.75000   0.00000  Uiso   1.00
O1043  O     0.77226   0.46179   0.74999   0.00000  Uiso   1.00
O1044  O     0.83333   0.53822   0.68453   0.00000  Uiso   1.00
O1045  O     0.83334   0.46178   0.81547   0.00000  Uiso   1.00
O1046  O     0.83334   0.53822   0.81547   0.00000  Uiso   1.00
O1047  O     0.83333   0.46178   0.68453   0.00000  Uiso   1.00
O1048  O     0.87078   0.60877   0.57911   0.00000  Uiso   1.00
Zn1049 Zn    0.83333   0.55104   0.75000   0.00000  Uiso   1.00
Zn1050 Zn    0.83333   0.44896   0.75000   0.00000  Uiso   1.00
C1051  C     0.08687   0.83304   0.75035   0.00000  Uiso   1.00
C1052  C     0.31227   0.85270   0.71321   0.00000  Uiso   1.00
C1053  C     0.31159   0.81665   0.78886   0.00000  Uiso   1.00
C1054  C     0.02230   0.85167   0.71262   0.00000  Uiso   1.00
C1055  C     0.15992   0.87045   0.54141   0.00000  Uiso   1.00
C1056  C     0.15977   0.79520   0.95815   0.00000  Uiso   1.00
C1057  C     0.11961   0.86360   0.94840   0.00000  Uiso   1.00
C1058  C     0.11960   0.80121   0.55158   0.00000  Uiso   1.00
C1059  C     0.16990   0.87095   0.58690   0.00000  Uiso   1.00
C1060  C     0.16988   0.79530   0.91267   0.00000  Uiso   1.00
C1061  C     0.12718   0.86389   0.90233   0.00000  Uiso   1.00
C1062  C     0.24661   0.83369   0.75012   0.00000  Uiso   1.00
C1063  C     0.12695   0.80161   0.59769   0.00000  Uiso   1.00
C1064  C     0.15453   0.83514   0.61543   0.00000  Uiso   1.00
C1065  C     0.15460   0.83102   0.88443   0.00000  Uiso   1.00
C1066  C     0.13644   0.83507   0.52392   0.00000  Uiso   1.00
C1067  C     0.13630   0.82989   0.97584   0.00000  Uiso   1.00
C1068  C     0.29097   0.83484   0.75100   0.00000  Uiso   1.00
C1069  C     0.04280   0.83239   0.75009   0.00000  Uiso   1.00
C1070  C     0.19783   0.90818   0.60245   0.00000  Uiso   1.00
C1071  C     0.19784   0.75881   0.89686   0.00000  Uiso   1.00
C1072  C     0.10428   0.89741   0.87391   0.00000  Uiso   1.00
C1073  C     0.16473   0.83383   0.66346   0.00000  Uiso   1.00
C1074  C     0.10345   0.76830   0.62638   0.00000  Uiso   1.00
C1075  C     0.04571   0.80193   0.82980   0.00000  Uiso   1.00
C1076  C     0.28875   0.87115   0.67422   0.00000  Uiso   1.00
C1077  C     0.28710   0.79890   0.82797   0.00000  Uiso   1.00
C1078  C     0.04676   0.87141   0.67396   0.00000  Uiso   1.00
C1079  C     0.16469   0.83276   0.83649   0.00000  Uiso   1.00
C1080  C     0.19567   0.69060   0.77418   0.00000  Uiso   1.00
C1081  C     0.13763   0.97605   0.72588   0.00000  Uiso   1.00
C1082  C     0.13756   0.69068   0.72600   0.00000  Uiso   1.00
C1083  C     0.19565   0.97593   0.77420   0.00000  Uiso   1.00
C1084  C     0.02175   0.81606   0.78882   0.00000  Uiso   1.00
H1085  H     0.21885   0.70874   0.79350   0.00000  Uiso   1.00
H1086  H     0.21352   0.76120   0.86487   0.00000  Uiso   1.00
H1087  H     0.09764   0.89078   0.83892   0.00000  Uiso   1.00
H1088  H     0.09660   0.77555   0.66114   0.00000  Uiso   1.00
H1089  H     0.07467   0.78368   0.82678   0.00000  Uiso   1.00
H1090  H     0.26699   0.89827   0.67939   0.00000  Uiso   1.00
H1091  H     0.25966   0.81686   0.83878   0.00000  Uiso   1.00
H1092  H     0.07650   0.85715   0.66497   0.00000  Uiso   1.00
H1093  H     0.11445   0.95789   0.70657   0.00000  Uiso   1.00
H1094  H     0.11417   0.70883   0.70701   0.00000  Uiso   1.00
H1095  H     0.21879   0.95766   0.79356   0.00000  Uiso   1.00
H1096  H     0.17300   0.89599   0.51857   0.00000  Uiso   1.00
H1097  H     0.17278   0.76984   0.98085   0.00000  Uiso   1.00
H1098  H     0.10080   0.88969   0.96331   0.00000  Uiso   1.00
H1099  H     0.10065   0.77462   0.53686   0.00000  Uiso   1.00
H1100  H     0.21338   0.90614   0.63439   0.00000  Uiso   1.00
N1101  N     0.16667   0.95240   0.75000   0.00000  Uiso   1.00
N1102  N     0.16667   0.71427   0.75000   0.00000  Uiso   1.00
O1103  O     0.10559   0.87154   0.74999   0.00000  Uiso   1.00
O1104  O     0.20406   0.72495   0.92009   0.00000  Uiso   1.00
O1105  O     0.09155   0.93260   0.88969   0.00000  Uiso   1.00
O1106  O     0.09043   0.73266   0.61109   0.00000  Uiso   1.00
O1107  O     0.03417   0.81225   0.86735   0.00000  Uiso   1.00
O1108  O     0.29351   0.85596   0.63666   0.00000  Uiso   1.00
O1109  O     0.29656   0.76357   0.84726   0.00000  Uiso   1.00
O1110  O     0.03491   0.90489   0.65308   0.00000  Uiso   1.00
O1111  O     0.22774   0.79513   0.75000   0.00000  Uiso   1.00
O1112  O     0.22774   0.87154   0.75000   0.00000  Uiso   1.00
O1113  O     0.10559   0.79513   0.74999   0.00000  Uiso   1.00
O1114  O     0.16666   0.87155   0.68453   0.00000  Uiso   1.00
O1115  O     0.16667   0.79511   0.81547   0.00000  Uiso   1.00
O1116  O     0.16667   0.87155   0.81547   0.00000  Uiso   1.00
O1117  O     0.16666   0.79511   0.68453   0.00000  Uiso   1.00
O1118  O     0.20411   0.94210   0.57911   0.00000  Uiso   1.00
Zn1119 Zn    0.16667   0.88437   0.75000   0.00000  Uiso   1.00
Zn1120 Zn    0.16667   0.78229   0.75000   0.00000  Uiso   1.00
C1121  C     0.42020   0.83304   0.75035   0.00000  Uiso   1.00
C1122  C     0.64560   0.85270   0.71321   0.00000  Uiso   1.00
C1123  C     0.64492   0.81665   0.78886   0.00000  Uiso   1.00
C1124  C     0.35563   0.85167   0.71262   0.00000  Uiso   1.00
C1125  C     0.49326   0.87045   0.54141   0.00000  Uiso   1.00
C1126  C     0.49310   0.79520   0.95815   0.00000  Uiso   1.00
C1127  C     0.45295   0.86360   0.94840   0.00000  Uiso   1.00
C1128  C     0.45293   0.80121   0.55158   0.00000  Uiso   1.00
C1129  C     0.50324   0.87095   0.58690   0.00000  Uiso   1.00
C1130  C     0.50322   0.79530   0.91267   0.00000  Uiso   1.00
C1131  C     0.46051   0.86389   0.90233   0.00000  Uiso   1.00
C1132  C     0.57994   0.83369   0.75012   0.00000  Uiso   1.00
C1133  C     0.46028   0.80161   0.59769   0.00000  Uiso   1.00
C1134  C     0.48786   0.83514   0.61543   0.00000  Uiso   1.00
C1135  C     0.48793   0.83102   0.88443   0.00000  Uiso   1.00
C1136  C     0.46977   0.83507   0.52392   0.00000  Uiso   1.00
C1137  C     0.46964   0.82989   0.97584   0.00000  Uiso   1.00
C1138  C     0.62430   0.83484   0.75100   0.00000  Uiso   1.00
C1139  C     0.37613   0.83239   0.75009   0.00000  Uiso   1.00
C1140  C     0.53116   0.90818   0.60245   0.00000  Uiso   1.00
C1141  C     0.53118   0.75881   0.89686   0.00000  Uiso   1.00
C1142  C     0.43762   0.89741   0.87391   0.00000  Uiso   1.00
C1143  C     0.49806   0.83383   0.66346   0.00000  Uiso   1.00
C1144  C     0.43678   0.76830   0.62638   0.00000  Uiso   1.00
C1145  C     0.37904   0.80193   0.82980   0.00000  Uiso   1.00
C1146  C     0.62209   0.87115   0.67422   0.00000  Uiso   1.00
C1147  C     0.62044   0.79890   0.82797   0.00000  Uiso   1.00
C1148  C     0.38010   0.87141   0.67396   0.00000  Uiso   1.00
C1149  C     0.49802   0.83276   0.83649   0.00000  Uiso   1.00
C1150  C     0.52901   0.69060   0.77418   0.00000  Uiso   1.00
C1151  C     0.47097   0.97605   0.72588   0.00000  Uiso   1.00
C1152  C     0.47089   0.69068   0.72600   0.00000  Uiso   1.00
C1153  C     0.52899   0.97593   0.77420   0.00000  Uiso   1.00
C1154  C     0.35509   0.81606   0.78882   0.00000  Uiso   1.00
H1155  H     0.55218   0.70874   0.79350   0.00000  Uiso   1.00
H1156  H     0.54686   0.76120   0.86487   0.00000  Uiso   1.00
H1157  H     0.43097   0.89078   0.83892   0.00000  Uiso   1.00
H1158  H     0.42993   0.77555   0.66114   0.00000  Uiso   1.00
H1159  H     0.40800   0.78368   0.82678   0.00000  Uiso   1.00
H1160  H     0.60033   0.89827   0.67939   0.00000  Uiso   1.00
H1161  H     0.59299   0.81686   0.83878   0.00000  Uiso   1.00
H1162  H     0.40983   0.85715   0.66497   0.00000  Uiso   1.00
H1163  H     0.44778   0.95789   0.70657   0.00000  Uiso   1.00
H1164  H     0.44750   0.70883   0.70701   0.00000  Uiso   1.00
H1165  H     0.55213   0.95766   0.79356   0.00000  Uiso   1.00
H1166  H     0.50634   0.89599   0.51857   0.00000  Uiso   1.00
H1167  H     0.50611   0.76984   0.98085   0.00000  Uiso   1.00
H1168  H     0.43413   0.88969   0.96331   0.00000  Uiso   1.00
H1169  H     0.43399   0.77462   0.53686   0.00000  Uiso   1.00
H1170  H     0.54672   0.90614   0.63439   0.00000  Uiso   1.00
N1171  N     0.50000   0.95240   0.75000   0.00000  Uiso   1.00
N1172  N     0.50000   0.71427   0.75000   0.00000  Uiso   1.00
O1173  O     0.43892   0.87154   0.74999   0.00000  Uiso   1.00
O1174  O     0.53739   0.72495   0.92009   0.00000  Uiso   1.00
O1175  O     0.42488   0.93260   0.88969   0.00000  Uiso   1.00
O1176  O     0.42377   0.73266   0.61109   0.00000  Uiso   1.00
O1177  O     0.36750   0.81225   0.86735   0.00000  Uiso   1.00
O1178  O     0.62684   0.85596   0.63666   0.00000  Uiso   1.00
O1179  O     0.62990   0.76357   0.84726   0.00000  Uiso   1.00
O1180  O     0.36824   0.90489   0.65308   0.00000  Uiso   1.00
O1181  O     0.56108   0.79513   0.75000   0.00000  Uiso   1.00
O1182  O     0.56108   0.87154   0.75000   0.00000  Uiso   1.00
O1183  O     0.43892   0.79513   0.74999   0.00000  Uiso   1.00
O1184  O     0.50000   0.87155   0.68453   0.00000  Uiso   1.00
O1185  O     0.50000   0.79511   0.81547   0.00000  Uiso   1.00
O1186  O     0.50000   0.87155   0.81547   0.00000  Uiso   1.00
O1187  O     0.50000   0.79511   0.68453   0.00000  Uiso   1.00
O1188  O     0.53745   0.94210   0.57911   0.00000  Uiso   1.00
Zn1189 Zn    0.50000   0.88437   0.75000   0.00000  Uiso   1.00
Zn1190 Zn    0.50000   0.78229   0.75000   0.00000  Uiso   1.00
C1191  C     0.75354   0.83304   0.75035   0.00000  Uiso   1.00
C1192  C     0.97893   0.85270   0.71321   0.00000  Uiso   1.00
C1193  C     0.97826   0.81665   0.78886   0.00000  Uiso   1.00
C1194  C     0.68896   0.85167   0.71262   0.00000  Uiso   1.00
C1195  C     0.82659   0.87045   0.54141   0.00000  Uiso   1.00
C1196  C     0.82644   0.79520   0.95815   0.00000  Uiso   1.00
C1197  C     0.78628   0.86360   0.94840   0.00000  Uiso   1.00
C1198  C     0.78626   0.80121   0.55158   0.00000  Uiso   1.00
C1199  C     0.83657   0.87095   0.58690   0.00000  Uiso   1.00
C1200  C     0.83655   0.79530   0.91267   0.00000  Uiso   1.00
C1201  C     0.79384   0.86389   0.90233   0.00000  Uiso   1.00
C1202  C     0.91327   0.83369   0.75012   0.00000  Uiso   1.00
C1203  C     0.79362   0.80161   0.59769   0.00000  Uiso   1.00
C1204  C     0.82120   0.83514   0.61543   0.00000  Uiso   1.00
C1205  C     0.82127   0.83102   0.88443   0.00000  Uiso   1.00
C1206  C     0.80311   0.83507   0.52392   0.00000  Uiso   1.00
C1207  C     0.80297   0.82989   0.97584   0.00000  Uiso   1.00
C1208  C     0.95763   0.83484   0.75100   0.00000  Uiso   1.00
C1209  C     0.70946   0.83239   0.75009   0.00000  Uiso   1.00
C1210  C     0.86450   0.90818   0.60245   0.00000  Uiso   1.00
C1211  C     0.86451   0.75881   0.89686   0.00000  Uiso   1.00
C1212  C     0.77095   0.89741   0.87391   0.00000  Uiso   1.00
C1213  C     0.83139   0.83383   0.66346   0.00000  Uiso   1.00
C1214  C     0.77011   0.76830   0.62638   0.00000  Uiso   1.00
C1215  C     0.71237   0.80193   0.82980   0.00000  Uiso   1.00
C1216  C     0.95542   0.87115   0.67422   0.00000  Uiso   1.00
C1217  C     0.95377   0.79890   0.82797   0.00000  Uiso   1.00
C1218  C     0.71343   0.87141   0.67396   0.00000  Uiso   1.00
C1219  C     0.83136   0.83276   0.83649   0.00000  Uiso   1.00
C1220  C     0.86234   0.69060   0.77418   0.00000  Uiso   1.00
C1221  C     0.80430   0.97605   0.72588   0.00000  Uiso   1.00
C1222  C     0.80423   0.69068   0.72600   0.00000  Uiso   1.00
C1223  C     0.86232   0.97593   0.77420   0.00000  Uiso   1.00
C1224  C     0.68842   0.81606   0.78882   0.00000  Uiso   1.00
H1225  H     0.88552   0.70874   0.79350   0.00000  Uiso   1.00
H1226  H     0.88019   0.76120   0.86487   0.00000  Uiso   1.00
H1227  H     0.76430   0.89078   0.83892   0.00000  Uiso   1.00
H1228  H     0.76327   0.77555   0.66114   0.00000  Uiso   1.00
H1229  H     0.74134   0.78368   0.82678   0.00000  Uiso   1.00
H1230  H     0.93366   0.89827   0.67939   0.00000  Uiso   1.00
H1231  H     0.92633   0.81686   0.83878   0.00000  Uiso   1.00
H1232  H     0.74316   0.85715   0.66497   0.00000  Uiso   1.00
H1233  H     0.78111   0.95789   0.70657   0.00000  Uiso   1.00
H1234  H     0.78083   0.70883   0.70701   0.00000  Uiso   1.00
H1235  H     0.88546   0.95766   0.79356   0.00000  Uiso   1.00
H1236  H     0.83967   0.89599   0.51857   0.00000  Uiso   1.00
H1237  H     0.83944   0.76984   0.98085   0.00000  Uiso   1.00
H1238  H     0.76747   0.88969   0.96331   0.00000  Uiso   1.00
H1239  H     0.76732   0.77462   0.53686   0.00000  Uiso   1.00
H1240  H     0.88005   0.90614   0.63439   0.00000  Uiso   1.00
N1241  N     0.83333   0.95240   0.75000   0.00000  Uiso   1.00
N1242  N     0.83333   0.71427   0.75000   0.00000  Uiso   1.00
O1243  O     0.77226   0.87154   0.74999   0.00000  Uiso   1.00
O1244  O     0.87073   0.72495   0.92009   0.00000  Uiso   1.00
O1245  O     0.75821   0.93260   0.88969   0.00000  Uiso   1.00
O1246  O     0.75710   0.73266   0.61109   0.00000  Uiso   1.00
O1247  O     0.70084   0.81225   0.86735   0.00000  Uiso   1.00
O1248  O     0.96018   0.85596   0.63666   0.00000  Uiso   1.00
O1249  O     0.96323   0.76357   0.84726   0.00000  Uiso   1.00
O1250  O     0.70157   0.90489   0.65308   0.00000  Uiso   1.00
O1251  O     0.89441   0.79513   0.75000   0.00000  Uiso   1.00
O1252  O     0.89441   0.87154   0.75000   0.00000  Uiso   1.00
O1253  O     0.77226   0.79513   0.74999   0.00000  Uiso   1.00
O1254  O     0.83333   0.87155   0.68453   0.00000  Uiso   1.00
O1255  O     0.83334   0.79511   0.81547   0.00000  Uiso   1.00
O1256  O     0.83334   0.87155   0.81547   0.00000  Uiso   1.00
O1257  O     0.83333   0.79511   0.68453   0.00000  Uiso   1.00
O1258  O     0.87078   0.94210   0.57911   0.00000  Uiso   1.00
Zn1259 Zn    0.83333   0.88437   0.75000   0.00000  Uiso   1.00
Zn1260 Zn    0.83333   0.78229   0.75000   0.00000  Uiso   1.00
loop_
_geom_bond_atom_site_label_1
_geom_bond_atom_site_label_2
_geom_bond_distance
_geom_bond_site_symmetry_2
_ccdc_geom_bond_type
C1     O63     1.276   .     A
C1     C19     1.413   .     S
C1     O53     1.278   .     A
C2     C18     1.406   .     A
C2     C26     1.481   .     S
C2     C74     1.391   .     S
C3     C27     1.487   .     S
C3     C18     1.406   .     A
C3     C104    1.395   .     S
C4     C28     1.497   .     S
C4     C19     1.408   .     A
C4     C142    1.391   1_455 S
C5     C9      1.390   .     A
C5     H46     1.085   .     S
C5     C16     1.388   .     A
C6     C10     1.391   .     A
C6     H47     1.085   .     S
C6     C17     1.388   .     A
C7     H48     1.085   .     S
C7     C11     1.391   .     A
C7     C17     1.387   .     A
C8     C13     1.391   .     A
C8     C16     1.386   .     A
C8     H49     1.085   .     S
C9     C14     1.425   .     A
C9     C20     1.488   .     S
C10    C15     1.426   .     A
C10    C21     1.492   .     S
C11    C22     1.489   .     S
C11    C15     1.427   .     A
C12    O62     1.276   .     A
C12    O61     1.282   .     A
C12    C18     1.423   .     S
C13    C14     1.427   .     A
C13    C24     1.487   .     S
C14    C23     1.465   .     S
C15    C29     1.462   .     S
C16    C647    1.440   1_554 S
C17    C646    1.440   .     S
C19    C34     1.409   .     A
C20    H50     1.073   .     S
C20    O68     1.222   .     D
C21    O54     1.222   .     D
C21    H36     1.077   .     S
C22    H37     1.083   .     S
C22    O55     1.221   .     D
C23    O64     1.288   .     A
C23    O67     1.294   .     A
C24    H38     1.082   .     S
C24    O56     1.222   .     D
C25    C34     1.496   .     S
C25    H39     1.084   .     S
C25    O57     1.221   .     D
C26    O58     1.221   .     D
C26    H40     1.081   .     S
C27    H41     1.084   .     S
C27    O59     1.221   .     D
C28    H42     1.082   .     S
C28    O60     1.221   .     D
C29    O65     1.286   .     A
C29    O66     1.294   .     A
C30    H35     1.082   .     S
C30    N52     1.366   .     A
C30    C453    1.415   1_545 S
C31    H43     1.082   .     S
C31    N51     1.365   .     A
C31    C242    1.414   .     S
C32    H44     1.080   .     S
C32    N52     1.366   .     A
C32    C451    1.414   1_545 S
C33    N51     1.366   .     A
C33    H45     1.082   .     S
C33    C240    1.415   .     S
C34    C143    1.395   1_455 S
N51    Zn69    2.006   .     S
N52    Zn70    2.006   .     S
O53    Zn69    1.990   .     S
O61    Zn70    1.990   .     S
O62    Zn69    1.999   .     S
O63    Zn70    1.999   .     S
O64    Zn69    1.990   .     S
O65    Zn70    1.990   .     S
O66    Zn69    1.976   .     S
O67    Zn70    1.976   .     S
C71    O133    1.276   .     A
C71    C89     1.413   .     S
C71    O123    1.278   .     A
C72    C88     1.406   .     A
C72    C96     1.481   .     S
C72    C144    1.391   .     S
C73    C97     1.487   .     S
C73    C88     1.406   .     A
C73    C174    1.395   .     S
C74    C98     1.497   .     S
C74    C89     1.408   .     A
C75    C79     1.390   .     A
C75    H116    1.085   .     S
C75    C86     1.388   .     A
C76    C80     1.391   .     A
C76    H117    1.085   .     S
C76    C87     1.388   .     A
C77    H118    1.085   .     S
C77    C81     1.391   .     A
C77    C87     1.387   .     A
C78    C83     1.391   .     A
C78    C86     1.386   .     A
C78    H119    1.085   .     S
C79    C84     1.425   .     A
C79    C90     1.488   .     S
C80    C85     1.426   .     A
C80    C91     1.492   .     S
C81    C92     1.489   .     S
C81    C85     1.427   .     A
C82    O132    1.276   .     A
C82    O131    1.282   .     A
C82    C88     1.423   .     S
C83    C84     1.427   .     A
C83    C94     1.487   .     S
C84    C93     1.465   .     S
C85    C99     1.462   .     S
C86    C717    1.440   1_554 S
C87    C716    1.440   .     S
C89    C104    1.409   .     A
C90    H120    1.073   .     S
C90    O138    1.222   .     D
C91    O124    1.222   .     D
C91    H106    1.077   .     S
C92    H107    1.083   .     S
C92    O125    1.221   .     D
C93    O134    1.288   .     A
C93    O137    1.294   .     A
C94    H108    1.082   .     S
C94    O126    1.222   .     D
C95    C104    1.496   .     S
C95    H109    1.084   .     S
C95    O127    1.221   .     D
C96    O128    1.221   .     D
C96    H110    1.081   .     S
C97    H111    1.084   .     S
C97    O129    1.221   .     D
C98    H112    1.082   .     S
C98    O130    1.221   .     D
C99    O135    1.286   .     A
C99    O136    1.294   .     A
C100   H105    1.082   .     S
C100   N122    1.366   .     A
C100   C523    1.415   1_545 S
C101   H113    1.082   .     S
C101   N121    1.365   .     A
C101   C312    1.414   .     S
C102   H114    1.080   .     S
C102   N122    1.366   .     A
C102   C521    1.414   1_545 S
C103   N121    1.366   .     A
C103   H115    1.082   .     S
C103   C310    1.415   .     S
N121   Zn139   2.006   .     S
N122   Zn140   2.006   .     S
O123   Zn139   1.990   .     S
O131   Zn140   1.990   .     S
O132   Zn139   1.999   .     S
O133   Zn140   1.999   .     S
O134   Zn139   1.990   .     S
O135   Zn140   1.990   .     S
O136   Zn139   1.976   .     S
O137   Zn140   1.976   .     S
C141   O203    1.276   .     A
C141   C159    1.413   .     S
C141   O193    1.278   .     A
C142   C158    1.406   .     A
C142   C166    1.481   .     S
C142   C4      1.391   1_655 S
C143   C167    1.487   .     S
C143   C158    1.406   .     A
C143   C34     1.395   1_655 S
C144   C168    1.497   .     S
C144   C159    1.408   .     A
C145   C149    1.390   .     A
C145   H186    1.085   .     S
C145   C156    1.388   .     A
C146   C150    1.391   .     A
C146   H187    1.085   .     S
C146   C157    1.388   .     A
C147   H188    1.085   .     S
C147   C151    1.391   .     A
C147   C157    1.387   .     A
C148   C153    1.391   .     A
C148   C156    1.386   .     A
C148   H189    1.085   .     S
C149   C154    1.425   .     A
C149   C160    1.488   .     S
C150   C155    1.426   .     A
C150   C161    1.492   .     S
C151   C162    1.489   .     S
C151   C155    1.427   .     A
C152   O202    1.276   .     A
C152   O201    1.282   .     A
C152   C158    1.423   .     S
C153   C154    1.427   .     A
C153   C164    1.487   .     S
C154   C163    1.465   .     S
C155   C169    1.462   .     S
C156   C787    1.440   1_554 S
C157   C786    1.440   .     S
C159   C174    1.409   .     A
C160   H190    1.073   .     S
C160   O208    1.222   .     D
C161   O194    1.222   .     D
C161   H176    1.077   .     S
C162   H177    1.083   .     S
C162   O195    1.221   .     D
C163   O204    1.288   .     A
C163   O207    1.294   .     A
C164   H178    1.082   .     S
C164   O196    1.222   .     D
C165   C174    1.496   .     S
C165   H179    1.084   .     S
C165   O197    1.221   .     D
C166   O198    1.221   .     D
C166   H180    1.081   .     S
C167   H181    1.084   .     S
C167   O199    1.221   .     D
C168   H182    1.082   .     S
C168   O200    1.221   .     D
C169   O205    1.286   .     A
C169   O206    1.294   .     A
C170   H175    1.082   .     S
C170   N192    1.366   .     A
C170   C593    1.415   1_545 S
C171   H183    1.082   .     S
C171   N191    1.365   .     A
C171   C382    1.414   .     S
C172   H184    1.080   .     S
C172   N192    1.366   .     A
C172   C591    1.414   1_545 S
C173   N191    1.366   .     A
C173   H185    1.082   .     S
C173   C380    1.415   .     S
N191   Zn209   2.006   .     S
N192   Zn210   2.006   .     S
O193   Zn209   1.990   .     S
O201   Zn210   1.990   .     S
O202   Zn209   1.999   .     S
O203   Zn210   1.999   .     S
O204   Zn209   1.990   .     S
O205   Zn210   1.990   .     S
O206   Zn209   1.976   .     S
O207   Zn210   1.976   .     S
C211   O273    1.276   .     A
C211   C229    1.413   .     S
C211   O263    1.278   .     A
C212   C228    1.406   .     A
C212   C236    1.481   .     S
C212   C284    1.391   .     S
C213   C237    1.487   .     S
C213   C228    1.406   .     A
C213   C314    1.395   .     S
C214   C238    1.497   .     S
C214   C229    1.408   .     A
C214   C352    1.391   1_455 S
C215   C219    1.390   .     A
C215   H256    1.085   .     S
C215   C226    1.388   .     A
C216   C220    1.391   .     A
C216   H257    1.085   .     S
C216   C227    1.388   .     A
C217   H258    1.085   .     S
C217   C221    1.391   .     A
C217   C227    1.387   .     A
C218   C223    1.391   .     A
C218   C226    1.386   .     A
C218   H259    1.085   .     S
C219   C224    1.425   .     A
C219   C230    1.488   .     S
C220   C225    1.426   .     A
C220   C231    1.492   .     S
C221   C232    1.489   .     S
C221   C225    1.427   .     A
C222   O272    1.276   .     A
C222   O271    1.282   .     A
C222   C228    1.423   .     S
C223   C224    1.427   .     A
C223   C234    1.487   .     S
C224   C233    1.465   .     S
C225   C239    1.462   .     S
C226   C857    1.440   1_554 S
C227   C856    1.440   .     S
C229   C244    1.409   .     A
C230   H260    1.073   .     S
C230   O278    1.222   .     D
C231   O264    1.222   .     D
C231   H246    1.077   .     S
C232   H247    1.083   .     S
C232   O265    1.221   .     D
C233   O274    1.288   .     A
C233   O277    1.294   .     A
C234   H248    1.082   .     S
C234   O266    1.222   .     D
C235   C244    1.496   .     S
C235   H249    1.084   .     S
C235   O267    1.221   .     D
C236   O268    1.221   .     D
C236   H250    1.081   .     S
C237   H251    1.084   .     S
C237   O269    1.221   .     D
C238   H252    1.082   .     S
C238   O270    1.221   .     D
C239   O275    1.286   .     A
C239   O276    1.294   .     A
C240   H245    1.082   .     S
C240   N262    1.366   .     A
C241   H253    1.082   .     S
C241   N261    1.365   .     A
C241   C452    1.414   .     S
C242   H254    1.080   .     S
C242   N262    1.366   .     A
C243   N261    1.366   .     A
C243   H255    1.082   .     S
C243   C450    1.415   .     S
C244   C353    1.395   1_455 S
N261   Zn279   2.006   .     S
N262   Zn280   2.006   .     S
O263   Zn279   1.990   .     S
O271   Zn280   1.990   .     S
O272   Zn279   1.999   .     S
O273   Zn280   1.999   .     S
O274   Zn279   1.990   .     S
O275   Zn280   1.990   .     S
O276   Zn279   1.976   .     S
O277   Zn280   1.976   .     S
C281   O343    1.276   .     A
C281   C299    1.413   .     S
C281   O333    1.278   .     A
C282   C298    1.406   .     A
C282   C306    1.481   .     S
C282   C354    1.391   .     S
C283   C307    1.487   .     S
C283   C298    1.406   .     A
C283   C384    1.395   .     S
C284   C308    1.497   .     S
C284   C299    1.408   .     A
C285   C289    1.390   .     A
C285   H326    1.085   .     S
C285   C296    1.388   .     A
C286   C290    1.391   .     A
C286   H327    1.085   .     S
C286   C297    1.388   .     A
C287   H328    1.085   .     S
C287   C291    1.391   .     A
C287   C297    1.387   .     A
C288   C293    1.391   .     A
C288   C296    1.386   .     A
C288   H329    1.085   .     S
C289   C294    1.425   .     A
C289   C300    1.488   .     S
C290   C295    1.426   .     A
C290   C301    1.492   .     S
C291   C302    1.489   .     S
C291   C295    1.427   .     A
C292   O342    1.276   .     A
C292   O341    1.282   .     A
C292   C298    1.423   .     S
C293   C294    1.427   .     A
C293   C304    1.487   .     S
C294   C303    1.465   .     S
C295   C309    1.462   .     S
C296   C927    1.440   1_554 S
C297   C926    1.440   .     S
C299   C314    1.409   .     A
C300   H330    1.073   .     S
C300   O348    1.222   .     D
C301   O334    1.222   .     D
C301   H316    1.077   .     S
C302   H317    1.083   .     S
C302   O335    1.221   .     D
C303   O344    1.288   .     A
C303   O347    1.294   .     A
C304   H318    1.082   .     S
C304   O336    1.222   .     D
C305   C314    1.496   .     S
C305   H319    1.084   .     S
C305   O337    1.221   .     D
C306   O338    1.221   .     D
C306   H320    1.081   .     S
C307   H321    1.084   .     S
C307   O339    1.221   .     D
C308   H322    1.082   .     S
C308   O340    1.221   .     D
C309   O345    1.286   .     A
C309   O346    1.294   .     A
C310   H315    1.082   .     S
C310   N332    1.366   .     A
C311   H323    1.082   .     S
C311   N331    1.365   .     A
C311   C522    1.414   .     S
C312   H324    1.080   .     S
C312   N332    1.366   .     A
C313   N331    1.366   .     A
C313   H325    1.082   .     S
C313   C520    1.415   .     S
N331   Zn349   2.006   .     S
N332   Zn350   2.006   .     S
O333   Zn349   1.990   .     S
O341   Zn350   1.990   .     S
O342   Zn349   1.999   .     S
O343   Zn350   1.999   .     S
O344   Zn349   1.990   .     S
O345   Zn350   1.990   .     S
O346   Zn349   1.976   .     S
O347   Zn350   1.976   .     S
C351   O413    1.276   .     A
C351   C369    1.413   .     S
C351   O403    1.278   .     A
C352   C368    1.406   .     A
C352   C376    1.481   .     S
C352   C214    1.391   1_655 S
C353   C377    1.487   .     S
C353   C368    1.406   .     A
C353   C244    1.395   1_655 S
C354   C378    1.497   .     S
C354   C369    1.408   .     A
C355   C359    1.390   .     A
C355   H396    1.085   .     S
C355   C366    1.388   .     A
C356   C360    1.391   .     A
C356   H397    1.085   .     S
C356   C367    1.388   .     A
C357   H398    1.085   .     S
C357   C361    1.391   .     A
C357   C367    1.387   .     A
C358   C363    1.391   .     A
C358   C366    1.386   .     A
C358   H399    1.085   .     S
C359   C364    1.425   .     A
C359   C370    1.488   .     S
C360   C365    1.426   .     A
C360   C371    1.492   .     S
C361   C372    1.489   .     S
C361   C365    1.427   .     A
C362   O412    1.276   .     A
C362   O411    1.282   .     A
C362   C368    1.423   .     S
C363   C364    1.427   .     A
C363   C374    1.487   .     S
C364   C373    1.465   .     S
C365   C379    1.462   .     S
C366   C997    1.440   1_554 S
C367   C996    1.440   .     S
C369   C384    1.409   .     A
C370   H400    1.073   .     S
C370   O418    1.222   .     D
C371   O404    1.222   .     D
C371   H386    1.077   .     S
C372   H387    1.083   .     S
C372   O405    1.221   .     D
C373   O414    1.288   .     A
C373   O417    1.294   .     A
C374   H388    1.082   .     S
C374   O406    1.222   .     D
C375   C384    1.496   .     S
C375   H389    1.084   .     S
C375   O407    1.221   .     D
C376   O408    1.221   .     D
C376   H390    1.081   .     S
C377   H391    1.084   .     S
C377   O409    1.221   .     D
C378   H392    1.082   .     S
C378   O410    1.221   .     D
C379   O415    1.286   .     A
C379   O416    1.294   .     A
C380   H385    1.082   .     S
C380   N402    1.366   .     A
C381   H393    1.082   .     S
C381   N401    1.365   .     A
C381   C592    1.414   .     S
C382   H394    1.080   .     S
C382   N402    1.366   .     A
C383   N401    1.366   .     A
C383   H395    1.082   .     S
C383   C590    1.415   .     S
N401   Zn419   2.006   .     S
N402   Zn420   2.006   .     S
O403   Zn419   1.990   .     S
O411   Zn420   1.990   .     S
O412   Zn419   1.999   .     S
O413   Zn420   1.999   .     S
O414   Zn419   1.990   .     S
O415   Zn420   1.990   .     S
O416   Zn419   1.976   .     S
O417   Zn420   1.976   .     S
C421   O483    1.276   .     A
C421   C439    1.413   .     S
C421   O473    1.278   .     A
C422   C438    1.406   .     A
C422   C446    1.481   .     S
C422   C494    1.391   .     S
C423   C447    1.487   .     S
C423   C438    1.406   .     A
C423   C524    1.395   .     S
C424   C448    1.497   .     S
C424   C439    1.408   .     A
C424   C562    1.391   1_455 S
C425   C429    1.390   .     A
C425   H466    1.085   .     S
C425   C436    1.388   .     A
C426   C430    1.391   .     A
C426   H467    1.085   .     S
C426   C437    1.388   .     A
C427   H468    1.085   .     S
C427   C431    1.391   .     A
C427   C437    1.387   .     A
C428   C433    1.391   .     A
C428   C436    1.386   .     A
C428   H469    1.085   .     S
C429   C434    1.425   .     A
C429   C440    1.488   .     S
C430   C435    1.426   .     A
C430   C441    1.492   .     S
C431   C442    1.489   .     S
C431   C435    1.427   .     A
C432   O482    1.276   .     A
C432   O481    1.282   .     A
C432   C438    1.423   .     S
C433   C434    1.427   .     A
C433   C444    1.487   .     S
C434   C443    1.465   .     S
C435   C449    1.462   .     S
C436   C1067   1.440   1_554 S
C437   C1066   1.440   .     S
C439   C454    1.409   .     A
C440   H470    1.073   .     S
C440   O488    1.222   .     D
C441   O474    1.222   .     D
C441   H456    1.077   .     S
C442   H457    1.083   .     S
C442   O475    1.221   .     D
C443   O484    1.288   .     A
C443   O487    1.294   .     A
C444   H458    1.082   .     S
C444   O476    1.222   .     D
C445   C454    1.496   .     S
C445   H459    1.084   .     S
C445   O477    1.221   .     D
C446   O478    1.221   .     D
C446   H460    1.081   .     S
C447   H461    1.084   .     S
C447   O479    1.221   .     D
C448   H462    1.082   .     S
C448   O480    1.221   .     D
C449   O485    1.286   .     A
C449   O486    1.294   .     A
C450   H455    1.082   .     S
C450   N472    1.366   .     A
C451   H463    1.082   .     S
C451   N471    1.365   .     A
C451   C32     1.414   1_565 S
C452   H464    1.080   .     S
C452   N472    1.366   .     A
C453   N471    1.366   .     A
C453   H465    1.082   .     S
C453   C30     1.415   1_565 S
C454   C563    1.395   1_455 S
N471   Zn489   2.006   .     S
N472   Zn490   2.006   .     S
O473   Zn489   1.990   .     S
O481   Zn490   1.990   .     S
O482   Zn489   1.999   .     S
O483   Zn490   1.999   .     S
O484   Zn489   1.990   .     S
O485   Zn490   1.990   .     S
O486   Zn489   1.976   .     S
O487   Zn490   1.976   .     S
C491   O553    1.276   .     A
C491   C509    1.413   .     S
C491   O543    1.278   .     A
C492   C508    1.406   .     A
C492   C516    1.481   .     S
C492   C564    1.391   .     S
C493   C517    1.487   .     S
C493   C508    1.406   .     A
C493   C594    1.395   .     S
C494   C518    1.497   .     S
C494   C509    1.408   .     A
C495   C499    1.390   .     A
C495   H536    1.085   .     S
C495   C506    1.388   .     A
C496   C500    1.391   .     A
C496   H537    1.085   .     S
C496   C507    1.388   .     A
C497   H538    1.085   .     S
C497   C501    1.391   .     A
C497   C507    1.387   .     A
C498   C503    1.391   .     A
C498   C506    1.386   .     A
C498   H539    1.085   .     S
C499   C504    1.425   .     A
C499   C510    1.488   .     S
C500   C505    1.426   .     A
C500   C511    1.492   .     S
C501   C512    1.489   .     S
C501   C505    1.427   .     A
C502   O552    1.276   .     A
C502   O551    1.282   .     A
C502   C508    1.423   .     S
C503   C504    1.427   .     A
C503   C514    1.487   .     S
C504   C513    1.465   .     S
C505   C519    1.462   .     S
C506   C1137   1.440   1_554 S
C507   C1136   1.440   .     S
C509   C524    1.409   .     A
C510   H540    1.073   .     S
C510   O558    1.222   .     D
C511   O544    1.222   .     D
C511   H526    1.077   .     S
C512   H527    1.083   .     S
C512   O545    1.221   .     D
C513   O554    1.288   .     A
C513   O557    1.294   .     A
C514   H528    1.082   .     S
C514   O546    1.222   .     D
C515   C524    1.496   .     S
C515   H529    1.084   .     S
C515   O547    1.221   .     D
C516   O548    1.221   .     D
C516   H530    1.081   .     S
C517   H531    1.084   .     S
C517   O549    1.221   .     D
C518   H532    1.082   .     S
C518   O550    1.221   .     D
C519   O555    1.286   .     A
C519   O556    1.294   .     A
C520   H525    1.082   .     S
C520   N542    1.366   .     A
C521   H533    1.082   .     S
C521   N541    1.365   .     A
C521   C102    1.414   1_565 S
C522   H534    1.080   .     S
C522   N542    1.366   .     A
C523   N541    1.366   .     A
C523   H535    1.082   .     S
C523   C100    1.415   1_565 S
N541   Zn559   2.006   .     S
N542   Zn560   2.006   .     S
O543   Zn559   1.990   .     S
O551   Zn560   1.990   .     S
O552   Zn559   1.999   .     S
O553   Zn560   1.999   .     S
O554   Zn559   1.990   .     S
O555   Zn560   1.990   .     S
O556   Zn559   1.976   .     S
O557   Zn560   1.976   .     S
C561   O623    1.276   .     A
C561   C579    1.413   .     S
C561   O613    1.278   .     A
C562   C578    1.406   .     A
C562   C586    1.481   .     S
C562   C424    1.391   1_655 S
C563   C587    1.487   .     S
C563   C578    1.406   .     A
C563   C454    1.395   1_655 S
C564   C588    1.497   .     S
C564   C579    1.408   .     A
C565   C569    1.390   .     A
C565   H606    1.085   .     S
C565   C576    1.388   .     A
C566   C570    1.391   .     A
C566   H607    1.085   .     S
C566   C577    1.388   .     A
C567   H608    1.085   .     S
C567   C571    1.391   .     A
C567   C577    1.387   .     A
C568   C573    1.391   .     A
C568   C576    1.386   .     A
C568   H609    1.085   .     S
C569   C574    1.425   .     A
C569   C580    1.488   .     S
C570   C575    1.426   .     A
C570   C581    1.492   .     S
C571   C582    1.489   .     S
C571   C575    1.427   .     A
C572   O622    1.276   .     A
C572   O621    1.282   .     A
C572   C578    1.423   .     S
C573   C574    1.427   .     A
C573   C584    1.487   .     S
C574   C583    1.465   .     S
C575   C589    1.462   .     S
C576   C1207   1.440   1_554 S
C577   C1206   1.440   .     S
C579   C594    1.409   .     A
C580   H610    1.073   .     S
C580   O628    1.222   .     D
C581   O614    1.222   .     D
C581   H596    1.077   .     S
C582   H597    1.083   .     S
C582   O615    1.221   .     D
C583   O624    1.288   .     A
C583   O627    1.294   .     A
C584   H598    1.082   .     S
C584   O616    1.222   .     D
C585   C594    1.496   .     S
C585   H599    1.084   .     S
C585   O617    1.221   .     D
C586   O618    1.221   .     D
C586   H600    1.081   .     S
C587   H601    1.084   .     S
C587   O619    1.221   .     D
C588   H602    1.082   .     S
C588   O620    1.221   .     D
C589   O625    1.286   .     A
C589   O626    1.294   .     A
C590   H595    1.082   .     S
C590   N612    1.366   .     A
C591   H603    1.082   .     S
C591   N611    1.365   .     A
C591   C172    1.414   1_565 S
C592   H604    1.080   .     S
C592   N612    1.366   .     A
C593   N611    1.366   .     A
C593   H605    1.082   .     S
C593   C170    1.415   1_565 S
N611   Zn629   2.006   .     S
N612   Zn630   2.006   .     S
O613   Zn629   1.990   .     S
O621   Zn630   1.990   .     S
O622   Zn629   1.999   .     S
O623   Zn630   1.999   .     S
O624   Zn629   1.990   .     S
O625   Zn630   1.990   .     S
O626   Zn629   1.976   .     S
O627   Zn630   1.976   .     S
C631   O693    1.276   .     A
C631   C649    1.413   .     S
C631   O683    1.278   .     A
C632   C648    1.406   .     A
C632   C656    1.481   .     S
C632   C704    1.391   .     S
C633   C657    1.487   .     S
C633   C648    1.406   .     A
C633   C734    1.395   .     S
C634   C658    1.497   .     S
C634   C649    1.408   .     A
C634   C772    1.391   1_455 S
C635   C639    1.390   .     A
C635   H676    1.085   .     S
C635   C646    1.388   .     A
C636   C640    1.391   .     A
C636   H677    1.085   .     S
C636   C647    1.388   .     A
C637   H678    1.085   .     S
C637   C641    1.391   .     A
C637   C647    1.387   .     A
C638   C643    1.391   .     A
C638   C646    1.386   .     A
C638   H679    1.085   .     S
C639   C644    1.425   .     A
C639   C650    1.488   .     S
C640   C645    1.426   .     A
C640   C651    1.492   .     S
C641   C652    1.489   .     S
C641   C645    1.427   .     A
C642   O692    1.276   .     A
C642   O691    1.282   .     A
C642   C648    1.423   .     S
C643   C644    1.427   .     A
C643   C654    1.487   .     S
C644   C653    1.465   .     S
C645   C659    1.462   .     S
C647   C16     1.440   1_556 S
C649   C664    1.409   .     A
C650   H680    1.073   .     S
C650   O698    1.222   .     D
C651   O684    1.222   .     D
C651   H666    1.077   .     S
C652   H667    1.083   .     S
C652   O685    1.221   .     D
C653   O694    1.288   .     A
C653   O697    1.294   .     A
C654   H668    1.082   .     S
C654   O686    1.222   .     D
C655   C664    1.496   .     S
C655   H669    1.084   .     S
C655   O687    1.221   .     D
C656   O688    1.221   .     D
C656   H670    1.081   .     S
C657   H671    1.084   .     S
C657   O689    1.221   .     D
C658   H672    1.082   .     S
C658   O690    1.221   .     D
C659   O695    1.286   .     A
C659   O696    1.294   .     A
C660   H665    1.082   .     S
C660   N682    1.366   .     A
C660   C1083   1.415   1_545 S
C661   H673    1.082   .     S
C661   N681    1.365   .     A
C661   C872    1.414   .     S
C662   H674    1.080   .     S
C662   N682    1.366   .     A
C662   C1081   1.414   1_545 S
C663   N681    1.366   .     A
C663   H675    1.082   .     S
C663   C870    1.415   .     S
C664   C773    1.395   1_455 S
N681   Zn699   2.006   .     S
N682   Zn700   2.006   .     S
O683   Zn699   1.990   .     S
O691   Zn700   1.990   .     S
O692   Zn699   1.999   .     S
O693   Zn700   1.999   .     S
O694   Zn699   1.990   .     S
O695   Zn700   1.990   .     S
O696   Zn699   1.976   .     S
O697   Zn700   1.976   .     S
C701   O763    1.276   .     A
C701   C719    1.413   .     S
C701   O753    1.278   .     A
C702   C718    1.406   .     A
C702   C726    1.481   .     S
C702   C774    1.391   .     S
C703   C727    1.487   .     S
C703   C718    1.406   .     A
C703   C804    1.395   .     S
C704   C728    1.497   .     S
C704   C719    1.408   .     A
C705   C709    1.390   .     A
C705   H746    1.085   .     S
C705   C716    1.388   .     A
C706   C710    1.391   .     A
C706   H747    1.085   .     S
C706   C717    1.388   .     A
C707   H748    1.085   .     S
C707   C711    1.391   .     A
C707   C717    1.387   .     A
C708   C713    1.391   .     A
C708   C716    1.386   .     A
C708   H749    1.085   .     S
C709   C714    1.425   .     A
C709   C720    1.488   .     S
C710   C715    1.426   .     A
C710   C721    1.492   .     S
C711   C722    1.489   .     S
C711   C715    1.427   .     A
C712   O762    1.276   .     A
C712   O761    1.282   .     A
C712   C718    1.423   .     S
C713   C714    1.427   .     A
C713   C724    1.487   .     S
C714   C723    1.465   .     S
C715   C729    1.462   .     S
C717   C86     1.440   1_556 S
C719   C734    1.409   .     A
C720   H750    1.073   .     S
C720   O768    1.222   .     D
C721   O754    1.222   .     D
C721   H736    1.077   .     S
C722   H737    1.083   .     S
C722   O755    1.221   .     D
C723   O764    1.288   .     A
C723   O767    1.294   .     A
C724   H738    1.082   .     S
C724   O756    1.222   .     D
C725   C734    1.496   .     S
C725   H739    1.084   .     S
C725   O757    1.221   .     D
C726   O758    1.221   .     D
C726   H740    1.081   .     S
C727   H741    1.084   .     S
C727   O759    1.221   .     D
C728   H742    1.082   .     S
C728   O760    1.221   .     D
C729   O765    1.286   .     A
C729   O766    1.294   .     A
C730   H735    1.082   .     S
C730   N752    1.366   .     A
C730   C1153   1.415   1_545 S
C731   H743    1.082   .     S
C731   N751    1.365   .     A
C731   C942    1.414   .     S
C732   H744    1.080   .     S
C732   N752    1.366   .     A
C732   C1151   1.414   1_545 S
C733   N751    1.366   .     A
C733   H745    1.082   .     S
C733   C940    1.415   .     S
N751   Zn769   2.006   .     S
N752   Zn770   2.006   .     S
O753   Zn769   1.990   .     S
O761   Zn770   1.990   .     S
O762   Zn769   1.999   .     S
O763   Zn770   1.999   .     S
O764   Zn769   1.990   .     S
O765   Zn770   1.990   .     S
O766   Zn769   1.976   .     S
O767   Zn770   1.976   .     S
C771   O833    1.276   .     A
C771   C789    1.413   .     S
C771   O823    1.278   .     A
C772   C788    1.406   .     A
C772   C796    1.481   .     S
C772   C634    1.391   1_655 S
C773   C797    1.487   .     S
C773   C788    1.406   .     A
C773   C664    1.395   1_655 S
C774   C798    1.497   .     S
C774   C789    1.408   .     A
C775   C779    1.390   .     A
C775   H816    1.085   .     S
C775   C786    1.388   .     A
C776   C780    1.391   .     A
C776   H817    1.085   .     S
C776   C787    1.388   .     A
C777   H818    1.085   .     S
C777   C781    1.391   .     A
C777   C787    1.387   .     A
C778   C783    1.391   .     A
C778   C786    1.386   .     A
C778   H819    1.085   .     S
C779   C784    1.425   .     A
C779   C790    1.488   .     S
C780   C785    1.426   .     A
C780   C791    1.492   .     S
C781   C792    1.489   .     S
C781   C785    1.427   .     A
C782   O832    1.276   .     A
C782   O831    1.282   .     A
C782   C788    1.423   .     S
C783   C784    1.427   .     A
C783   C794    1.487   .     S
C784   C793    1.465   .     S
C785   C799    1.462   .     S
C787   C156    1.440   1_556 S
C789   C804    1.409   .     A
C790   H820    1.073   .     S
C790   O838    1.222   .     D
C791   O824    1.222   .     D
C791   H806    1.077   .     S
C792   H807    1.083   .     S
C792   O825    1.221   .     D
C793   O834    1.288   .     A
C793   O837    1.294   .     A
C794   H808    1.082   .     S
C794   O826    1.222   .     D
C795   C804    1.496   .     S
C795   H809    1.084   .     S
C795   O827    1.221   .     D
C796   O828    1.221   .     D
C796   H810    1.081   .     S
C797   H811    1.084   .     S
C797   O829    1.221   .     D
C798   H812    1.082   .     S
C798   O830    1.221   .     D
C799   O835    1.286   .     A
C799   O836    1.294   .     A
C800   H805    1.082   .     S
C800   N822    1.366   .     A
C800   C1223   1.415   1_545 S
C801   H813    1.082   .     S
C801   N821    1.365   .     A
C801   C1012   1.414   .     S
C802   H814    1.080   .     S
C802   N822    1.366   .     A
C802   C1221   1.414   1_545 S
C803   N821    1.366   .     A
C803   H815    1.082   .     S
C803   C1010   1.415   .     S
N821   Zn839   2.006   .     S
N822   Zn840   2.006   .     S
O823   Zn839   1.990   .     S
O831   Zn840   1.990   .     S
O832   Zn839   1.999   .     S
O833   Zn840   1.999   .     S
O834   Zn839   1.990   .     S
O835   Zn840   1.990   .     S
O836   Zn839   1.976   .     S
O837   Zn840   1.976   .     S
C841   O903    1.276   .     A
C841   C859    1.413   .     S
C841   O893    1.278   .     A
C842   C858    1.406   .     A
C842   C866    1.481   .     S
C842   C914    1.391   .     S
C843   C867    1.487   .     S
C843   C858    1.406   .     A
C843   C944    1.395   .     S
C844   C868    1.497   .     S
C844   C859    1.408   .     A
C844   C982    1.391   1_455 S
C845   C849    1.390   .     A
C845   H886    1.085   .     S
C845   C856    1.388   .     A
C846   C850    1.391   .     A
C846   H887    1.085   .     S
C846   C857    1.388   .     A
C847   H888    1.085   .     S
C847   C851    1.391   .     A
C847   C857    1.387   .     A
C848   C853    1.391   .     A
C848   C856    1.386   .     A
C848   H889    1.085   .     S
C849   C854    1.425   .     A
C849   C860    1.488   .     S
C850   C855    1.426   .     A
C850   C861    1.492   .     S
C851   C862    1.489   .     S
C851   C855    1.427   .     A
C852   O902    1.276   .     A
C852   O901    1.282   .     A
C852   C858    1.423   .     S
C853   C854    1.427   .     A
C853   C864    1.487   .     S
C854   C863    1.465   .     S
C855   C869    1.462   .     S
C857   C226    1.440   1_556 S
C859   C874    1.409   .     A
C860   H890    1.073   .     S
C860   O908    1.222   .     D
C861   O894    1.222   .     D
C861   H876    1.077   .     S
C862   H877    1.083   .     S
C862   O895    1.221   .     D
C863   O904    1.288   .     A
C863   O907    1.294   .     A
C864   H878    1.082   .     S
C864   O896    1.222   .     D
C865   C874    1.496   .     S
C865   H879    1.084   .     S
C865   O897    1.221   .     D
C866   O898    1.221   .     D
C866   H880    1.081   .     S
C867   H881    1.084   .     S
C867   O899    1.221   .     D
C868   H882    1.082   .     S
C868   O900    1.221   .     D
C869   O905    1.286   .     A
C869   O906    1.294   .     A
C870   H875    1.082   .     S
C870   N892    1.366   .     A
C871   H883    1.082   .     S
C871   N891    1.365   .     A
C871   C1082   1.414   .     S
C872   H884    1.080   .     S
C872   N892    1.366   .     A
C873   N891    1.366   .     A
C873   H885    1.082   .     S
C873   C1080   1.415   .     S
C874   C983    1.395   1_455 S
N891   Zn909   2.006   .     S
N892   Zn910   2.006   .     S
O893   Zn909   1.990   .     S
O901   Zn910   1.990   .     S
O902   Zn909   1.999   .     S
O903   Zn910   1.999   .     S
O904   Zn909   1.990   .     S
O905   Zn910   1.990   .     S
O906   Zn909   1.976   .     S
O907   Zn910   1.976   .     S
C911   O973    1.276   .     A
C911   C929    1.413   .     S
C911   O963    1.278   .     A
C912   C928    1.406   .     A
C912   C936    1.481   .     S
C912   C984    1.391   .     S
C913   C937    1.487   .     S
C913   C928    1.406   .     A
C913   C1014   1.395   .     S
C914   C938    1.497   .     S
C914   C929    1.408   .     A
C915   C919    1.390   .     A
C915   H956    1.085   .     S
C915   C926    1.388   .     A
C916   C920    1.391   .     A
C916   H957    1.085   .     S
C916   C927    1.388   .     A
C917   H958    1.085   .     S
C917   C921    1.391   .     A
C917   C927    1.387   .     A
C918   C923    1.391   .     A
C918   C926    1.386   .     A
C918   H959    1.085   .     S
C919   C924    1.425   .     A
C919   C930    1.488   .     S
C920   C925    1.426   .     A
C920   C931    1.492   .     S
C921   C932    1.489   .     S
C921   C925    1.427   .     A
C922   O972    1.276   .     A
C922   O971    1.282   .     A
C922   C928    1.423   .     S
C923   C924    1.427   .     A
C923   C934    1.487   .     S
C924   C933    1.465   .     S
C925   C939    1.462   .     S
C927   C296    1.440   1_556 S
C929   C944    1.409   .     A
C930   H960    1.073   .     S
C930   O978    1.222   .     D
C931   O964    1.222   .     D
C931   H946    1.077   .     S
C932   H947    1.083   .     S
C932   O965    1.221   .     D
C933   O974    1.288   .     A
C933   O977    1.294   .     A
C934   H948    1.082   .     S
C934   O966    1.222   .     D
C935   C944    1.496   .     S
C935   H949    1.084   .     S
C935   O967    1.221   .     D
C936   O968    1.221   .     D
C936   H950    1.081   .     S
C937   H951    1.084   .     S
C937   O969    1.221   .     D
C938   H952    1.082   .     S
C938   O970    1.221   .     D
C939   O975    1.286   .     A
C939   O976    1.294   .     A
C940   H945    1.082   .     S
C940   N962    1.366   .     A
C941   H953    1.082   .     S
C941   N961    1.365   .     A
C941   C1152   1.414   .     S
C942   H954    1.080   .     S
C942   N962    1.366   .     A
C943   N961    1.366   .     A
C943   H955    1.082   .     S
C943   C1150   1.415   .     S
N961   Zn979   2.006   .     S
N962   Zn980   2.006   .     S
O963   Zn979   1.990   .     S
O971   Zn980   1.990   .     S
O972   Zn979   1.999   .     S
O973   Zn980   1.999   .     S
O974   Zn979   1.990   .     S
O975   Zn980   1.990   .     S
O976   Zn979   1.976   .     S
O977   Zn980   1.976   .     S
C981   O1043   1.276   .     A
C981   C999    1.413   .     S
C981   O1033   1.278   .     A
C982   C998    1.406   .     A
C982   C1006   1.481   .     S
C982   C844    1.391   1_655 S
C983   C1007   1.487   .     S
C983   C998    1.406   .     A
C983   C874    1.395   1_655 S
C984   C1008   1.497   .     S
C984   C999    1.408   .     A
C985   C989    1.390   .     A
C985   H1026   1.085   .     S
C985   C996    1.388   .     A
C986   C990    1.391   .     A
C986   H1027   1.085   .     S
C986   C997    1.388   .     A
C987   H1028   1.085   .     S
C987   C991    1.391   .     A
C987   C997    1.387   .     A
C988   C993    1.391   .     A
C988   C996    1.386   .     A
C988   H1029   1.085   .     S
C989   C994    1.425   .     A
C989   C1000   1.488   .     S
C990   C995    1.426   .     A
C990   C1001   1.492   .     S
C991   C1002   1.489   .     S
C991   C995    1.427   .     A
C992   O1042   1.276   .     A
C992   O1041   1.282   .     A
C992   C998    1.423   .     S
C993   C994    1.427   .     A
C993   C1004   1.487   .     S
C994   C1003   1.465   .     S
C995   C1009   1.462   .     S
C997   C366    1.440   1_556 S
C999   C1014   1.409   .     A
C1000  H1030   1.073   .     S
C1000  O1048   1.222   .     D
C1001  O1034   1.222   .     D
C1001  H1016   1.077   .     S
C1002  H1017   1.083   .     S
C1002  O1035   1.221   .     D
C1003  O1044   1.288   .     A
C1003  O1047   1.294   .     A
C1004  H1018   1.082   .     S
C1004  O1036   1.222   .     D
C1005  C1014   1.496   .     S
C1005  H1019   1.084   .     S
C1005  O1037   1.221   .     D
C1006  O1038   1.221   .     D
C1006  H1020   1.081   .     S
C1007  H1021   1.084   .     S
C1007  O1039   1.221   .     D
C1008  H1022   1.082   .     S
C1008  O1040   1.221   .     D
C1009  O1045   1.286   .     A
C1009  O1046   1.294   .     A
C1010  H1015   1.082   .     S
C1010  N1032   1.366   .     A
C1011  H1023   1.082   .     S
C1011  N1031   1.365   .     A
C1011  C1222   1.414   .     S
C1012  H1024   1.080   .     S
C1012  N1032   1.366   .     A
C1013  N1031   1.366   .     A
C1013  H1025   1.082   .     S
C1013  C1220   1.415   .     S
N1031  Zn1049  2.006   .     S
N1032  Zn1050  2.006   .     S
O1033  Zn1049  1.990   .     S
O1041  Zn1050  1.990   .     S
O1042  Zn1049  1.999   .     S
O1043  Zn1050  1.999   .     S
O1044  Zn1049  1.990   .     S
O1045  Zn1050  1.990   .     S
O1046  Zn1049  1.976   .     S
O1047  Zn1050  1.976   .     S
C1051  O1113   1.276   .     A
C1051  C1069   1.413   .     S
C1051  O1103   1.278   .     A
C1052  C1068   1.406   .     A
C1052  C1076   1.481   .     S
C1052  C1124   1.391   .     S
C1053  C1077   1.487   .     S
C1053  C1068   1.406   .     A
C1053  C1154   1.395   .     S
C1054  C1078   1.497   .     S
C1054  C1069   1.408   .     A
C1054  C1192   1.391   1_455 S
C1055  C1059   1.390   .     A
C1055  H1096   1.085   .     S
C1055  C1066   1.388   .     A
C1056  C1060   1.391   .     A
C1056  H1097   1.085   .     S
C1056  C1067   1.388   .     A
C1057  H1098   1.085   .     S
C1057  C1061   1.391   .     A
C1057  C1067   1.387   .     A
C1058  C1063   1.391   .     A
C1058  C1066   1.386   .     A
C1058  H1099   1.085   .     S
C1059  C1064   1.425   .     A
C1059  C1070   1.488   .     S
C1060  C1065   1.426   .     A
C1060  C1071   1.492   .     S
C1061  C1072   1.489   .     S
C1061  C1065   1.427   .     A
C1062  O1112   1.276   .     A
C1062  O1111   1.282   .     A
C1062  C1068   1.423   .     S
C1063  C1064   1.427   .     A
C1063  C1074   1.487   .     S
C1064  C1073   1.465   .     S
C1065  C1079   1.462   .     S
C1067  C436    1.440   1_556 S
C1069  C1084   1.409   .     A
C1070  H1100   1.073   .     S
C1070  O1118   1.222   .     D
C1071  O1104   1.222   .     D
C1071  H1086   1.077   .     S
C1072  H1087   1.083   .     S
C1072  O1105   1.221   .     D
C1073  O1114   1.288   .     A
C1073  O1117   1.294   .     A
C1074  H1088   1.082   .     S
C1074  O1106   1.222   .     D
C1075  C1084   1.496   .     S
C1075  H1089   1.084   .     S
C1075  O1107   1.221   .     D
C1076  O1108   1.221   .     D
C1076  H1090   1.081   .     S
C1077  H1091   1.084   .     S
C1077  O1109   1.221   .     D
C1078  H1092   1.082   .     S
C1078  O1110   1.221   .     D
C1079  O1115   1.286   .     A
C1079  O1116   1.294   .     A
C1080  H1085   1.082   .     S
C1080  N1102   1.366   .     A
C1081  H1093   1.082   .     S
C1081  N1101   1.365   .     A
C1081  C662    1.414   1_565 S
C1082  H1094   1.080   .     S
C1082  N1102   1.366   .     A
C1083  N1101   1.366   .     A
C1083  H1095   1.082   .     S
C1083  C660    1.415   1_565 S
C1084  C1193   1.395   1_455 S
N1101  Zn1119  2.006   .     S
N1102  Zn1120  2.006   .     S
O1103  Zn1119  1.990   .     S
O1111  Zn1120  1.990   .     S
O1112  Zn1119  1.999   .     S
O1113  Zn1120  1.999   .     S
O1114  Zn1119  1.990   .     S
O1115  Zn1120  1.990   .     S
O1116  Zn1119  1.976   .     S
O1117  Zn1120  1.976   .     S
C1121  O1183   1.276   .     A
C1121  C1139   1.413   .     S
C1121  O1173   1.278   .     A
C1122  C1138   1.406   .     A
C1122  C1146   1.481   .     S
C1122  C1194   1.391   .     S
C1123  C1147   1.487   .     S
C1123  C1138   1.406   .     A
C1123  C1224   1.395   .     S
C1124  C1148   1.497   .     S
C1124  C1139   1.408   .     A
C1125  C1129   1.390   .     A
C1125  H1166   1.085   .     S
C1125  C1136   1.388   .     A
C1126  C1130   1.391   .     A
C1126  H1167   1.085   .     S
C1126  C1137   1.388   .     A
C1127  H1168   1.085   .     S
C1127  C1131   1.391   .     A
C1127  C1137   1.387   .     A
C1128  C1133   1.391   .     A
C1128  C1136   1.386   .     A
C1128  H1169   1.085   .     S
C1129  C1134   1.425   .     A
C1129  C1140   1.488   .     S
C1130  C1135   1.426   .     A
C1130  C1141   1.492   .     S
C1131  C1142   1.489   .     S
C1131  C1135   1.427   .     A
C1132  O1182   1.276   .     A
C1132  O1181   1.282   .     A
C1132  C1138   1.423   .     S
C1133  C1134   1.427   .     A
C1133  C1144   1.487   .     S
C1134  C1143   1.465   .     S
C1135  C1149   1.462   .     S
C1137  C506    1.440   1_556 S
C1139  C1154   1.409   .     A
C1140  H1170   1.073   .     S
C1140  O1188   1.222   .     D
C1141  O1174   1.222   .     D
C1141  H1156   1.077   .     S
C1142  H1157   1.083   .     S
C1142  O1175   1.221   .     D
C1143  O1184   1.288   .     A
C1143  O1187   1.294   .     A
C1144  H1158   1.082   .     S
C1144  O1176   1.222   .     D
C1145  C1154   1.496   .     S
C1145  H1159   1.084   .     S
C1145  O1177   1.221   .     D
C1146  O1178   1.221   .     D
C1146  H1160   1.081   .     S
C1147  H1161   1.084   .     S
C1147  O1179   1.221   .     D
C1148  H1162   1.082   .     S
C1148  O1180   1.221   .     D
C1149  O1185   1.286   .     A
C1149  O1186   1.294   .     A
C1150  H1155   1.082   .     S
C1150  N1172   1.366   .     A
C1151  H1163   1.082   .     S
C1151  N1171   1.365   .     A
C1151  C732    1.414   1_565 S
C1152  H1164   1.080   .     S
C1152  N1172   1.366   .     A
C1153  N1171   1.366   .     A
C1153  H1165   1.082   .     S
C1153  C730    1.415   1_565 S
N1171  Zn1189  2.006   .     S
N1172  Zn1190  2.006   .     S
O1173  Zn1189  1.990   .     S
O1181  Zn1190  1.990   .     S
O1182  Zn1189  1.999   .     S
O1183  Zn1190  1.999   .     S
O1184  Zn1189  1.990   .     S
O1185  Zn1190  1.990   .     S
O1186  Zn1189  1.976   .     S
O1187  Zn1190  1.976   .     S
C1191  O1253   1.276   .     A
C1191  C1209   1.413   .     S
C1191  O1243   1.278   .     A
C1192  C1208   1.406   .     A
C1192  C1216   1.481   .     S
C1192  C1054   1.391   1_655 S
C1193  C1217   1.487   .     S
C1193  C1208   1.406   .     A
C1193  C1084   1.395   1_655 S
C1194  C1218   1.497   .     S
C1194  C1209   1.408   .     A
C1195  C1199   1.390   .     A
C1195  H1236   1.085   .     S
C1195  C1206   1.388   .     A
C1196  C1200   1.391   .     A
C1196  H1237   1.085   .     S
C1196  C1207   1.388   .     A
C1197  H1238   1.085   .     S
C1197  C1201   1.391   .     A
C1197  C1207   1.387   .     A
C1198  C1203   1.391   .     A
C1198  C1206   1.386   .     A
C1198  H1239   1.085   .     S
C1199  C1204   1.425   .     A
C1199  C1210   1.488   .     S
C1200  C1205   1.426   .     A
C1200  C1211   1.492   .     S
C1201  C1212   1.489   .     S
C1201  C1205   1.427   .     A
C1202  O1252   1.276   .     A
C1202  O1251   1.282   .     A
C1202  C1208   1.423   .     S
C1203  C1204   1.427   .     A
C1203  C1214   1.487   .     S
C1204  C1213   1.465   .     S
C1205  C1219   1.462   .     S
C1207  C576    1.440   1_556 S
C1209  C1224   1.409   .     A
C1210  H1240   1.073   .     S
C1210  O1258   1.222   .     D
C1211  O1244   1.222   .     D
C1211  H1226   1.077   .     S
C1212  H1227   1.083   .     S
C1212  O1245   1.221   .     D
C1213  O1254   1.288   .     A
C1213  O1257   1.294   .     A
C1214  H1228   1.082   .     S
C1214  O1246   1.222   .     D
C1215  C1224   1.496   .     S
C1215  H1229   1.084   .     S
C1215  O1247   1.221   .     D
C1216  O1248   1.221   .     D
C1216  H1230   1.081   .     S
C1217  H1231   1.084   .     S
C1217  O1249   1.221   .     D
C1218  H1232   1.082   .     S
C1218  O1250   1.221   .     D
C1219  O1255   1.286   .     A
C1219  O1256   1.294   .     A
C1220  H1225   1.082   .     S
C1220  N1242   1.366   .     A
C1221  H1233   1.082   .     S
C1221  N1241   1.365   .     A
C1221  C802    1.414   1_565 S
C1222  H1234   1.080   .     S
C1222  N1242   1.366   .     A
C1223  N1241   1.366   .     A
C1223  H1235   1.082   .     S
C1223  C800    1.415   1_565 S
N1241  Zn1259  2.006   .     S
N1242  Zn1260  2.006   .     S
O1243  Zn1259  1.990   .     S
O1251  Zn1260  1.990   .     S
O1252  Zn1259  1.999   .     S
O1253  Zn1260  1.999   .     S
O1254  Zn1259  1.990   .     S
O1255  Zn1260  1.990   .     S
O1256  Zn1259  1.976   .     S
O1257  Zn1260  1.976   .     S
