data_str_m3_o1_o10_pcu_sym.124
_audit_creation_date              2020-01-03
_audit_creation_method            'Materials Studio'
_symmetry_space_group_name_H-M    'P1'
_symmetry_Int_Tables_number       1
_symmetry_cell_setting            triclinic
loop_
_symmetry_equiv_pos_as_xyz
  x,y,z
_cell_length_a                    25.7078
_cell_length_b                    32.2495
_cell_length_c                    29.9083
_cell_angle_alpha                 91.8607
_cell_angle_beta                  98.1140
_cell_angle_gamma                 93.2474
loop_
_atom_site_label
_atom_site_type_symbol
_atom_site_fract_x
_atom_site_fract_y
_atom_site_fract_z
_atom_site_U_iso_or_equiv
_atom_site_adp_type
_atom_site_occupancy
C1     C     0.17071   0.08696   0.16630   0.00000  Uiso   1.00
C2     C     0.16262   0.24637   0.16703   0.00000  Uiso   1.00
C3     C     0.06723   0.16647   0.15486   0.00000  Uiso   1.00
C4     C     0.26610   0.16686   0.17847   0.00000  Uiso   1.00
C5     C     0.01217   0.16630   0.14853   0.00000  Uiso   1.00
C6     C     0.32116   0.16703   0.18480   0.00000  Uiso   1.00
C7     C     0.15819   0.01877   0.12479   0.00000  Uiso   1.00
C8     C     0.17515   0.31456   0.20854   0.00000  Uiso   1.00
C9     C     0.14438   0.31028   0.12720   0.00000  Uiso   1.00
C10    C     0.18895   0.02305   0.20614   0.00000  Uiso   1.00
C11    C     0.15783   0.29083   0.16821   0.00000  Uiso   1.00
C12    C     0.17551   0.04251   0.16513   0.00000  Uiso   1.00
C13    C     0.20237   0.19233   0.02857   0.00000  Uiso   1.00
C14    C     0.13097   0.14100   0.30476   0.00000  Uiso   1.00
C15    C     0.20296   0.19093   0.31403   0.00000  Uiso   1.00
C16    C     0.13037   0.14241   0.01931   0.00000  Uiso   1.00
H17    H     0.32516   0.16549   0.11403   0.00000  Uiso   1.00
H18    H     0.00817   0.16785   0.21931   0.00000  Uiso   1.00
N19    N     0.16665   0.16666   0.28573   0.00000  Uiso   1.00
N20    N     0.16668   0.16668   0.04760   0.00000  Uiso   1.00
O21    O     0.16666   0.10558   0.20487   0.00000  Uiso   1.00
O22    O     0.16667   0.22775   0.12846   0.00000  Uiso   1.00
O23    O     0.16666   0.10559   0.12843   0.00000  Uiso   1.00
O24    O     0.16667   0.22774   0.20490   0.00000  Uiso   1.00
O25    O     0.09058   0.16666   0.19595   0.00000  Uiso   1.00
O26    O     0.24275   0.16667   0.13739   0.00000  Uiso   1.00
O27    O     0.09058   0.16667   0.11950   0.00000  Uiso   1.00
O28    O     0.24275   0.16666   0.21383   0.00000  Uiso   1.00
Zn29   Zn    0.16667   0.16666   0.21771   0.00000  Uiso   1.00
Zn30   Zn    0.16667   0.16667   0.11563   0.00000  Uiso   1.00
C31    C     0.16164   0.03500   0.08066   0.00000  Uiso   1.00
N32    N     0.16567   0.04745   0.04544   0.00000  Uiso   1.00
C33    C     0.17169   0.29833   0.25267   0.00000  Uiso   1.00
N34    N     0.16766   0.28589   0.28790   0.00000  Uiso   1.00
C35    C     0.11273   0.28836   0.08849   0.00000  Uiso   1.00
N36    N     0.08735   0.27097   0.05777   0.00000  Uiso   1.00
C37    C     0.22060   0.04498   0.24485   0.00000  Uiso   1.00
N38    N     0.24599   0.06237   0.27557   0.00000  Uiso   1.00
C39    C     0.24234   0.22233   0.05764   0.00000  Uiso   1.00
C40    C     0.23443   0.26815   0.04854   0.00000  Uiso   1.00
H41    H     0.25332   0.27822   0.01931   0.00000  Uiso   1.00
H42    H     0.19205   0.27376   0.04234   0.00000  Uiso   1.00
H43    H     0.25294   0.28793   0.07831   0.00000  Uiso   1.00
H44    H     0.24045   0.21984   0.09334   0.00000  Uiso   1.00
H45    H     0.28290   0.21497   0.05266   0.00000  Uiso   1.00
C46    C     0.09099   0.11100   0.27569   0.00000  Uiso   1.00
C47    C     0.09890   0.06519   0.28480   0.00000  Uiso   1.00
H48    H     0.14129   0.05958   0.29100   0.00000  Uiso   1.00
H49    H     0.08002   0.05512   0.31403   0.00000  Uiso   1.00
H50    H     0.08040   0.04540   0.25503   0.00000  Uiso   1.00
H51    H     0.05043   0.11836   0.28067   0.00000  Uiso   1.00
H52    H     0.09288   0.11349   0.23999   0.00000  Uiso   1.00
C53    C     0.24326   0.21422   0.29465   0.00000  Uiso   1.00
N54    N     0.27576   0.23301   0.27942   0.00000  Uiso   1.00
C55    C     0.09008   0.11912   0.03869   0.00000  Uiso   1.00
N56    N     0.05758   0.10032   0.05392   0.00000  Uiso   1.00
C57    C     0.50405   0.08696   0.16630   0.00000  Uiso   1.00
C58    C     0.49596   0.24637   0.16703   0.00000  Uiso   1.00
C59    C     0.40056   0.16647   0.15486   0.00000  Uiso   1.00
C60    C     0.59944   0.16686   0.17847   0.00000  Uiso   1.00
C61    C     0.34551   0.16630   0.14853   0.00000  Uiso   1.00
C62    C     0.65449   0.16703   0.18480   0.00000  Uiso   1.00
C63    C     0.49152   0.01877   0.12479   0.00000  Uiso   1.00
C64    C     0.50848   0.31456   0.20854   0.00000  Uiso   1.00
C65    C     0.47772   0.31028   0.12720   0.00000  Uiso   1.00
C66    C     0.52228   0.02305   0.20614   0.00000  Uiso   1.00
C67    C     0.49116   0.29083   0.16821   0.00000  Uiso   1.00
C68    C     0.50884   0.04251   0.16513   0.00000  Uiso   1.00
C69    C     0.53570   0.19233   0.02857   0.00000  Uiso   1.00
C70    C     0.46430   0.14100   0.30476   0.00000  Uiso   1.00
C71    C     0.53629   0.19093   0.31403   0.00000  Uiso   1.00
C72    C     0.46371   0.14241   0.01931   0.00000  Uiso   1.00
H73    H     0.65850   0.16549   0.11403   0.00000  Uiso   1.00
H74    H     0.34150   0.16785   0.21931   0.00000  Uiso   1.00
N75    N     0.49999   0.16666   0.28573   0.00000  Uiso   1.00
N76    N     0.50001   0.16668   0.04760   0.00000  Uiso   1.00
O77    O     0.50000   0.10558   0.20487   0.00000  Uiso   1.00
O78    O     0.50000   0.22775   0.12846   0.00000  Uiso   1.00
O79    O     0.50000   0.10559   0.12843   0.00000  Uiso   1.00
O80    O     0.50000   0.22774   0.20490   0.00000  Uiso   1.00
O81    O     0.42392   0.16666   0.19595   0.00000  Uiso   1.00
O82    O     0.57608   0.16667   0.13739   0.00000  Uiso   1.00
O83    O     0.42392   0.16667   0.11950   0.00000  Uiso   1.00
O84    O     0.57608   0.16666   0.21383   0.00000  Uiso   1.00
Zn85   Zn    0.50000   0.16666   0.21771   0.00000  Uiso   1.00
Zn86   Zn    0.50000   0.16667   0.11563   0.00000  Uiso   1.00
C87    C     0.49498   0.03500   0.08066   0.00000  Uiso   1.00
N88    N     0.49900   0.04745   0.04544   0.00000  Uiso   1.00
C89    C     0.50502   0.29833   0.25267   0.00000  Uiso   1.00
N90    N     0.50100   0.28589   0.28790   0.00000  Uiso   1.00
C91    C     0.44606   0.28836   0.08849   0.00000  Uiso   1.00
N92    N     0.42068   0.27097   0.05777   0.00000  Uiso   1.00
C93    C     0.55394   0.04498   0.24485   0.00000  Uiso   1.00
N94    N     0.57932   0.06237   0.27557   0.00000  Uiso   1.00
C95    C     0.57568   0.22233   0.05764   0.00000  Uiso   1.00
C96    C     0.56776   0.26815   0.04854   0.00000  Uiso   1.00
H97    H     0.58665   0.27822   0.01931   0.00000  Uiso   1.00
H98    H     0.52538   0.27376   0.04234   0.00000  Uiso   1.00
H99    H     0.58627   0.28793   0.07831   0.00000  Uiso   1.00
H100   H     0.57378   0.21984   0.09334   0.00000  Uiso   1.00
H101   H     0.61623   0.21497   0.05266   0.00000  Uiso   1.00
C102   C     0.42432   0.11100   0.27569   0.00000  Uiso   1.00
C103   C     0.43224   0.06519   0.28480   0.00000  Uiso   1.00
H104   H     0.47462   0.05958   0.29100   0.00000  Uiso   1.00
H105   H     0.41335   0.05512   0.31403   0.00000  Uiso   1.00
H106   H     0.41373   0.04540   0.25503   0.00000  Uiso   1.00
H107   H     0.38377   0.11836   0.28067   0.00000  Uiso   1.00
H108   H     0.42622   0.11349   0.23999   0.00000  Uiso   1.00
C109   C     0.57659   0.21422   0.29465   0.00000  Uiso   1.00
N110   N     0.60909   0.23301   0.27942   0.00000  Uiso   1.00
C111   C     0.42341   0.11912   0.03869   0.00000  Uiso   1.00
N112   N     0.39091   0.10032   0.05392   0.00000  Uiso   1.00
C113   C     0.83738   0.08696   0.16630   0.00000  Uiso   1.00
C114   C     0.82929   0.24637   0.16703   0.00000  Uiso   1.00
C115   C     0.73390   0.16647   0.15486   0.00000  Uiso   1.00
C116   C     0.93277   0.16686   0.17847   0.00000  Uiso   1.00
C117   C     0.67884   0.16630   0.14853   0.00000  Uiso   1.00
C118   C     0.98783   0.16703   0.18480   0.00000  Uiso   1.00
C119   C     0.82485   0.01877   0.12479   0.00000  Uiso   1.00
C120   C     0.84182   0.31456   0.20854   0.00000  Uiso   1.00
C121   C     0.81105   0.31028   0.12720   0.00000  Uiso   1.00
C122   C     0.85562   0.02305   0.20614   0.00000  Uiso   1.00
C123   C     0.82449   0.29083   0.16821   0.00000  Uiso   1.00
C124   C     0.84217   0.04251   0.16513   0.00000  Uiso   1.00
C125   C     0.86903   0.19233   0.02857   0.00000  Uiso   1.00
C126   C     0.79763   0.14100   0.30476   0.00000  Uiso   1.00
C127   C     0.86963   0.19093   0.31403   0.00000  Uiso   1.00
C128   C     0.79704   0.14241   0.01931   0.00000  Uiso   1.00
H129   H     0.99183   0.16549   0.11403   0.00000  Uiso   1.00
H130   H     0.67484   0.16785   0.21931   0.00000  Uiso   1.00
N131   N     0.83332   0.16666   0.28573   0.00000  Uiso   1.00
N132   N     0.83335   0.16668   0.04760   0.00000  Uiso   1.00
O133   O     0.83333   0.10558   0.20487   0.00000  Uiso   1.00
O134   O     0.83334   0.22775   0.12846   0.00000  Uiso   1.00
O135   O     0.83333   0.10559   0.12843   0.00000  Uiso   1.00
O136   O     0.83334   0.22774   0.20490   0.00000  Uiso   1.00
O137   O     0.75725   0.16666   0.19595   0.00000  Uiso   1.00
O138   O     0.90942   0.16667   0.13739   0.00000  Uiso   1.00
O139   O     0.75725   0.16667   0.11950   0.00000  Uiso   1.00
O140   O     0.90942   0.16666   0.21383   0.00000  Uiso   1.00
Zn141  Zn    0.83333   0.16666   0.21771   0.00000  Uiso   1.00
Zn142  Zn    0.83333   0.16667   0.11563   0.00000  Uiso   1.00
C143   C     0.82831   0.03500   0.08066   0.00000  Uiso   1.00
N144   N     0.83234   0.04745   0.04544   0.00000  Uiso   1.00
C145   C     0.83836   0.29833   0.25267   0.00000  Uiso   1.00
N146   N     0.83433   0.28589   0.28790   0.00000  Uiso   1.00
C147   C     0.77940   0.28836   0.08849   0.00000  Uiso   1.00
N148   N     0.75401   0.27097   0.05777   0.00000  Uiso   1.00
C149   C     0.88727   0.04498   0.24485   0.00000  Uiso   1.00
N150   N     0.91265   0.06237   0.27557   0.00000  Uiso   1.00
C151   C     0.90901   0.22233   0.05764   0.00000  Uiso   1.00
C152   C     0.90110   0.26815   0.04854   0.00000  Uiso   1.00
H153   H     0.91998   0.27822   0.01931   0.00000  Uiso   1.00
H154   H     0.85871   0.27376   0.04234   0.00000  Uiso   1.00
H155   H     0.91960   0.28793   0.07831   0.00000  Uiso   1.00
H156   H     0.90712   0.21984   0.09334   0.00000  Uiso   1.00
H157   H     0.94957   0.21497   0.05266   0.00000  Uiso   1.00
C158   C     0.75766   0.11100   0.27569   0.00000  Uiso   1.00
C159   C     0.76557   0.06519   0.28480   0.00000  Uiso   1.00
H160   H     0.80796   0.05958   0.29100   0.00000  Uiso   1.00
H161   H     0.74668   0.05512   0.31403   0.00000  Uiso   1.00
H162   H     0.74707   0.04540   0.25503   0.00000  Uiso   1.00
H163   H     0.71710   0.11836   0.28067   0.00000  Uiso   1.00
H164   H     0.75955   0.11349   0.23999   0.00000  Uiso   1.00
C165   C     0.90992   0.21422   0.29465   0.00000  Uiso   1.00
N166   N     0.94242   0.23301   0.27942   0.00000  Uiso   1.00
C167   C     0.75674   0.11912   0.03869   0.00000  Uiso   1.00
N168   N     0.72424   0.10032   0.05392   0.00000  Uiso   1.00
C169   C     0.17071   0.42029   0.16630   0.00000  Uiso   1.00
C170   C     0.16262   0.57971   0.16703   0.00000  Uiso   1.00
C171   C     0.06723   0.49981   0.15486   0.00000  Uiso   1.00
C172   C     0.26610   0.50019   0.17847   0.00000  Uiso   1.00
C173   C     0.01217   0.49963   0.14853   0.00000  Uiso   1.00
C174   C     0.32116   0.50037   0.18480   0.00000  Uiso   1.00
C175   C     0.15819   0.35210   0.12479   0.00000  Uiso   1.00
C176   C     0.17515   0.64790   0.20854   0.00000  Uiso   1.00
C177   C     0.14438   0.64362   0.12720   0.00000  Uiso   1.00
C178   C     0.18895   0.35638   0.20614   0.00000  Uiso   1.00
C179   C     0.15783   0.62416   0.16821   0.00000  Uiso   1.00
C180   C     0.17551   0.37584   0.16513   0.00000  Uiso   1.00
C181   C     0.20237   0.52566   0.02857   0.00000  Uiso   1.00
C182   C     0.13097   0.47434   0.30476   0.00000  Uiso   1.00
C183   C     0.20296   0.52426   0.31403   0.00000  Uiso   1.00
C184   C     0.13037   0.47574   0.01931   0.00000  Uiso   1.00
H185   H     0.32516   0.49882   0.11403   0.00000  Uiso   1.00
H186   H     0.00817   0.50118   0.21931   0.00000  Uiso   1.00
N187   N     0.16665   0.49999   0.28573   0.00000  Uiso   1.00
N188   N     0.16668   0.50001   0.04760   0.00000  Uiso   1.00
O189   O     0.16666   0.43892   0.20487   0.00000  Uiso   1.00
O190   O     0.16667   0.56108   0.12846   0.00000  Uiso   1.00
O191   O     0.16666   0.43893   0.12843   0.00000  Uiso   1.00
O192   O     0.16667   0.56107   0.20490   0.00000  Uiso   1.00
O193   O     0.09058   0.50000   0.19595   0.00000  Uiso   1.00
O194   O     0.24275   0.50000   0.13739   0.00000  Uiso   1.00
O195   O     0.09058   0.50000   0.11950   0.00000  Uiso   1.00
O196   O     0.24275   0.50000   0.21383   0.00000  Uiso   1.00
Zn197  Zn    0.16667   0.49999   0.21771   0.00000  Uiso   1.00
Zn198  Zn    0.16667   0.50001   0.11563   0.00000  Uiso   1.00
C199   C     0.16164   0.36833   0.08066   0.00000  Uiso   1.00
N200   N     0.16567   0.38078   0.04544   0.00000  Uiso   1.00
C201   C     0.17169   0.63167   0.25267   0.00000  Uiso   1.00
N202   N     0.16766   0.61922   0.28790   0.00000  Uiso   1.00
C203   C     0.11273   0.62169   0.08849   0.00000  Uiso   1.00
N204   N     0.08735   0.60430   0.05777   0.00000  Uiso   1.00
C205   C     0.22060   0.37831   0.24485   0.00000  Uiso   1.00
N206   N     0.24599   0.39570   0.27557   0.00000  Uiso   1.00
C207   C     0.24234   0.55566   0.05764   0.00000  Uiso   1.00
C208   C     0.23443   0.60148   0.04854   0.00000  Uiso   1.00
H209   H     0.25332   0.61155   0.01931   0.00000  Uiso   1.00
H210   H     0.19205   0.60709   0.04234   0.00000  Uiso   1.00
H211   H     0.25294   0.62126   0.07831   0.00000  Uiso   1.00
H212   H     0.24045   0.55318   0.09334   0.00000  Uiso   1.00
H213   H     0.28290   0.54830   0.05266   0.00000  Uiso   1.00
C214   C     0.09099   0.44434   0.27569   0.00000  Uiso   1.00
C215   C     0.09890   0.39852   0.28480   0.00000  Uiso   1.00
H216   H     0.14129   0.39291   0.29100   0.00000  Uiso   1.00
H217   H     0.08002   0.38845   0.31403   0.00000  Uiso   1.00
H218   H     0.08040   0.37874   0.25503   0.00000  Uiso   1.00
H219   H     0.05043   0.45170   0.28067   0.00000  Uiso   1.00
H220   H     0.09288   0.44682   0.23999   0.00000  Uiso   1.00
C221   C     0.24326   0.54755   0.29465   0.00000  Uiso   1.00
N222   N     0.27576   0.56635   0.27942   0.00000  Uiso   1.00
C223   C     0.09008   0.45245   0.03869   0.00000  Uiso   1.00
N224   N     0.05758   0.43365   0.05392   0.00000  Uiso   1.00
C225   C     0.50405   0.42029   0.16630   0.00000  Uiso   1.00
C226   C     0.49596   0.57971   0.16703   0.00000  Uiso   1.00
C227   C     0.40056   0.49981   0.15486   0.00000  Uiso   1.00
C228   C     0.59944   0.50019   0.17847   0.00000  Uiso   1.00
C229   C     0.34551   0.49963   0.14853   0.00000  Uiso   1.00
C230   C     0.65449   0.50037   0.18480   0.00000  Uiso   1.00
C231   C     0.49152   0.35210   0.12479   0.00000  Uiso   1.00
C232   C     0.50848   0.64790   0.20854   0.00000  Uiso   1.00
C233   C     0.47772   0.64362   0.12720   0.00000  Uiso   1.00
C234   C     0.52228   0.35638   0.20614   0.00000  Uiso   1.00
C235   C     0.49116   0.62416   0.16821   0.00000  Uiso   1.00
C236   C     0.50884   0.37584   0.16513   0.00000  Uiso   1.00
C237   C     0.53570   0.52566   0.02857   0.00000  Uiso   1.00
C238   C     0.46430   0.47434   0.30476   0.00000  Uiso   1.00
C239   C     0.53629   0.52426   0.31403   0.00000  Uiso   1.00
C240   C     0.46371   0.47574   0.01931   0.00000  Uiso   1.00
H241   H     0.65850   0.49882   0.11403   0.00000  Uiso   1.00
H242   H     0.34150   0.50118   0.21931   0.00000  Uiso   1.00
N243   N     0.49999   0.49999   0.28573   0.00000  Uiso   1.00
N244   N     0.50001   0.50001   0.04760   0.00000  Uiso   1.00
O245   O     0.50000   0.43892   0.20487   0.00000  Uiso   1.00
O246   O     0.50000   0.56108   0.12846   0.00000  Uiso   1.00
O247   O     0.50000   0.43893   0.12843   0.00000  Uiso   1.00
O248   O     0.50000   0.56107   0.20490   0.00000  Uiso   1.00
O249   O     0.42392   0.50000   0.19595   0.00000  Uiso   1.00
O250   O     0.57608   0.50000   0.13739   0.00000  Uiso   1.00
O251   O     0.42392   0.50000   0.11950   0.00000  Uiso   1.00
O252   O     0.57608   0.50000   0.21383   0.00000  Uiso   1.00
Zn253  Zn    0.50000   0.49999   0.21771   0.00000  Uiso   1.00
Zn254  Zn    0.50000   0.50001   0.11563   0.00000  Uiso   1.00
C255   C     0.49498   0.36833   0.08066   0.00000  Uiso   1.00
N256   N     0.49900   0.38078   0.04544   0.00000  Uiso   1.00
C257   C     0.50502   0.63167   0.25267   0.00000  Uiso   1.00
N258   N     0.50100   0.61922   0.28790   0.00000  Uiso   1.00
C259   C     0.44606   0.62169   0.08849   0.00000  Uiso   1.00
N260   N     0.42068   0.60430   0.05777   0.00000  Uiso   1.00
C261   C     0.55394   0.37831   0.24485   0.00000  Uiso   1.00
N262   N     0.57932   0.39570   0.27557   0.00000  Uiso   1.00
C263   C     0.57568   0.55566   0.05764   0.00000  Uiso   1.00
C264   C     0.56776   0.60148   0.04854   0.00000  Uiso   1.00
H265   H     0.58665   0.61155   0.01931   0.00000  Uiso   1.00
H266   H     0.52538   0.60709   0.04234   0.00000  Uiso   1.00
H267   H     0.58627   0.62126   0.07831   0.00000  Uiso   1.00
H268   H     0.57378   0.55318   0.09334   0.00000  Uiso   1.00
H269   H     0.61623   0.54830   0.05266   0.00000  Uiso   1.00
C270   C     0.42432   0.44434   0.27569   0.00000  Uiso   1.00
C271   C     0.43224   0.39852   0.28480   0.00000  Uiso   1.00
H272   H     0.47462   0.39291   0.29100   0.00000  Uiso   1.00
H273   H     0.41335   0.38845   0.31403   0.00000  Uiso   1.00
H274   H     0.41373   0.37874   0.25503   0.00000  Uiso   1.00
H275   H     0.38377   0.45170   0.28067   0.00000  Uiso   1.00
H276   H     0.42622   0.44682   0.23999   0.00000  Uiso   1.00
C277   C     0.57659   0.54755   0.29465   0.00000  Uiso   1.00
N278   N     0.60909   0.56635   0.27942   0.00000  Uiso   1.00
C279   C     0.42341   0.45245   0.03869   0.00000  Uiso   1.00
N280   N     0.39091   0.43365   0.05392   0.00000  Uiso   1.00
C281   C     0.83738   0.42029   0.16630   0.00000  Uiso   1.00
C282   C     0.82929   0.57971   0.16703   0.00000  Uiso   1.00
C283   C     0.73390   0.49981   0.15486   0.00000  Uiso   1.00
C284   C     0.93277   0.50019   0.17847   0.00000  Uiso   1.00
C285   C     0.67884   0.49963   0.14853   0.00000  Uiso   1.00
C286   C     0.98783   0.50037   0.18480   0.00000  Uiso   1.00
C287   C     0.82485   0.35210   0.12479   0.00000  Uiso   1.00
C288   C     0.84182   0.64790   0.20854   0.00000  Uiso   1.00
C289   C     0.81105   0.64362   0.12720   0.00000  Uiso   1.00
C290   C     0.85562   0.35638   0.20614   0.00000  Uiso   1.00
C291   C     0.82449   0.62416   0.16821   0.00000  Uiso   1.00
C292   C     0.84217   0.37584   0.16513   0.00000  Uiso   1.00
C293   C     0.86903   0.52566   0.02857   0.00000  Uiso   1.00
C294   C     0.79763   0.47434   0.30476   0.00000  Uiso   1.00
C295   C     0.86963   0.52426   0.31403   0.00000  Uiso   1.00
C296   C     0.79704   0.47574   0.01931   0.00000  Uiso   1.00
H297   H     0.99183   0.49882   0.11403   0.00000  Uiso   1.00
H298   H     0.67484   0.50118   0.21931   0.00000  Uiso   1.00
N299   N     0.83332   0.49999   0.28573   0.00000  Uiso   1.00
N300   N     0.83335   0.50001   0.04760   0.00000  Uiso   1.00
O301   O     0.83333   0.43892   0.20487   0.00000  Uiso   1.00
O302   O     0.83334   0.56108   0.12846   0.00000  Uiso   1.00
O303   O     0.83333   0.43893   0.12843   0.00000  Uiso   1.00
O304   O     0.83334   0.56107   0.20490   0.00000  Uiso   1.00
O305   O     0.75725   0.50000   0.19595   0.00000  Uiso   1.00
O306   O     0.90942   0.50000   0.13739   0.00000  Uiso   1.00
O307   O     0.75725   0.50000   0.11950   0.00000  Uiso   1.00
O308   O     0.90942   0.50000   0.21383   0.00000  Uiso   1.00
Zn309  Zn    0.83333   0.49999   0.21771   0.00000  Uiso   1.00
Zn310  Zn    0.83333   0.50001   0.11563   0.00000  Uiso   1.00
C311   C     0.82831   0.36833   0.08066   0.00000  Uiso   1.00
N312   N     0.83234   0.38078   0.04544   0.00000  Uiso   1.00
C313   C     0.83836   0.63167   0.25267   0.00000  Uiso   1.00
N314   N     0.83433   0.61922   0.28790   0.00000  Uiso   1.00
C315   C     0.77940   0.62169   0.08849   0.00000  Uiso   1.00
N316   N     0.75401   0.60430   0.05777   0.00000  Uiso   1.00
C317   C     0.88727   0.37831   0.24485   0.00000  Uiso   1.00
N318   N     0.91265   0.39570   0.27557   0.00000  Uiso   1.00
C319   C     0.90901   0.55566   0.05764   0.00000  Uiso   1.00
C320   C     0.90110   0.60148   0.04854   0.00000  Uiso   1.00
H321   H     0.91998   0.61155   0.01931   0.00000  Uiso   1.00
H322   H     0.85871   0.60709   0.04234   0.00000  Uiso   1.00
H323   H     0.91960   0.62126   0.07831   0.00000  Uiso   1.00
H324   H     0.90712   0.55318   0.09334   0.00000  Uiso   1.00
H325   H     0.94957   0.54830   0.05266   0.00000  Uiso   1.00
C326   C     0.75766   0.44434   0.27569   0.00000  Uiso   1.00
C327   C     0.76557   0.39852   0.28480   0.00000  Uiso   1.00
H328   H     0.80796   0.39291   0.29100   0.00000  Uiso   1.00
H329   H     0.74668   0.38845   0.31403   0.00000  Uiso   1.00
H330   H     0.74707   0.37874   0.25503   0.00000  Uiso   1.00
H331   H     0.71710   0.45170   0.28067   0.00000  Uiso   1.00
H332   H     0.75955   0.44682   0.23999   0.00000  Uiso   1.00
C333   C     0.90992   0.54755   0.29465   0.00000  Uiso   1.00
N334   N     0.94242   0.56635   0.27942   0.00000  Uiso   1.00
C335   C     0.75674   0.45245   0.03869   0.00000  Uiso   1.00
N336   N     0.72424   0.43365   0.05392   0.00000  Uiso   1.00
C337   C     0.17071   0.75363   0.16630   0.00000  Uiso   1.00
C338   C     0.16262   0.91304   0.16703   0.00000  Uiso   1.00
C339   C     0.06723   0.83314   0.15486   0.00000  Uiso   1.00
C340   C     0.26610   0.83353   0.17847   0.00000  Uiso   1.00
C341   C     0.01217   0.83297   0.14853   0.00000  Uiso   1.00
C342   C     0.32116   0.83370   0.18480   0.00000  Uiso   1.00
C343   C     0.15819   0.68544   0.12479   0.00000  Uiso   1.00
C344   C     0.17515   0.98123   0.20854   0.00000  Uiso   1.00
C345   C     0.14438   0.97695   0.12720   0.00000  Uiso   1.00
C346   C     0.18895   0.68972   0.20614   0.00000  Uiso   1.00
C347   C     0.15783   0.95749   0.16821   0.00000  Uiso   1.00
C348   C     0.17551   0.70917   0.16513   0.00000  Uiso   1.00
C349   C     0.20237   0.85900   0.02857   0.00000  Uiso   1.00
C350   C     0.13097   0.80767   0.30476   0.00000  Uiso   1.00
C351   C     0.20296   0.85759   0.31403   0.00000  Uiso   1.00
C352   C     0.13037   0.80907   0.01931   0.00000  Uiso   1.00
H353   H     0.32516   0.83215   0.11403   0.00000  Uiso   1.00
H354   H     0.00817   0.83451   0.21931   0.00000  Uiso   1.00
N355   N     0.16665   0.83332   0.28573   0.00000  Uiso   1.00
N356   N     0.16668   0.83334   0.04760   0.00000  Uiso   1.00
O357   O     0.16666   0.77225   0.20487   0.00000  Uiso   1.00
O358   O     0.16667   0.89442   0.12846   0.00000  Uiso   1.00
O359   O     0.16666   0.77226   0.12843   0.00000  Uiso   1.00
O360   O     0.16667   0.89441   0.20490   0.00000  Uiso   1.00
O361   O     0.09058   0.83333   0.19595   0.00000  Uiso   1.00
O362   O     0.24275   0.83334   0.13739   0.00000  Uiso   1.00
O363   O     0.09058   0.83334   0.11950   0.00000  Uiso   1.00
O364   O     0.24275   0.83333   0.21383   0.00000  Uiso   1.00
Zn365  Zn    0.16667   0.83333   0.21771   0.00000  Uiso   1.00
Zn366  Zn    0.16667   0.83334   0.11563   0.00000  Uiso   1.00
C367   C     0.16164   0.70167   0.08066   0.00000  Uiso   1.00
N368   N     0.16567   0.71411   0.04544   0.00000  Uiso   1.00
C369   C     0.17169   0.96500   0.25267   0.00000  Uiso   1.00
N370   N     0.16766   0.95255   0.28790   0.00000  Uiso   1.00
C371   C     0.11273   0.95502   0.08849   0.00000  Uiso   1.00
N372   N     0.08735   0.93763   0.05777   0.00000  Uiso   1.00
C373   C     0.22060   0.71164   0.24485   0.00000  Uiso   1.00
N374   N     0.24599   0.72903   0.27557   0.00000  Uiso   1.00
C375   C     0.24234   0.88900   0.05764   0.00000  Uiso   1.00
C376   C     0.23443   0.93481   0.04854   0.00000  Uiso   1.00
H377   H     0.25332   0.94488   0.01931   0.00000  Uiso   1.00
H378   H     0.19205   0.94042   0.04234   0.00000  Uiso   1.00
H379   H     0.25294   0.95460   0.07831   0.00000  Uiso   1.00
H380   H     0.24045   0.88651   0.09334   0.00000  Uiso   1.00
H381   H     0.28290   0.88164   0.05266   0.00000  Uiso   1.00
C382   C     0.09099   0.77767   0.27569   0.00000  Uiso   1.00
C383   C     0.09890   0.73185   0.28480   0.00000  Uiso   1.00
H384   H     0.14129   0.72624   0.29100   0.00000  Uiso   1.00
H385   H     0.08002   0.72178   0.31403   0.00000  Uiso   1.00
H386   H     0.08040   0.71207   0.25503   0.00000  Uiso   1.00
H387   H     0.05043   0.78503   0.28067   0.00000  Uiso   1.00
H388   H     0.09288   0.78016   0.23999   0.00000  Uiso   1.00
C389   C     0.24326   0.88088   0.29465   0.00000  Uiso   1.00
N390   N     0.27576   0.89968   0.27942   0.00000  Uiso   1.00
C391   C     0.09008   0.78578   0.03869   0.00000  Uiso   1.00
N392   N     0.05758   0.76699   0.05392   0.00000  Uiso   1.00
C393   C     0.50405   0.75363   0.16630   0.00000  Uiso   1.00
C394   C     0.49596   0.91304   0.16703   0.00000  Uiso   1.00
C395   C     0.40056   0.83314   0.15486   0.00000  Uiso   1.00
C396   C     0.59944   0.83353   0.17847   0.00000  Uiso   1.00
C397   C     0.34551   0.83297   0.14853   0.00000  Uiso   1.00
C398   C     0.65449   0.83370   0.18480   0.00000  Uiso   1.00
C399   C     0.49152   0.68544   0.12479   0.00000  Uiso   1.00
C400   C     0.50848   0.98123   0.20854   0.00000  Uiso   1.00
C401   C     0.47772   0.97695   0.12720   0.00000  Uiso   1.00
C402   C     0.52228   0.68972   0.20614   0.00000  Uiso   1.00
C403   C     0.49116   0.95749   0.16821   0.00000  Uiso   1.00
C404   C     0.50884   0.70917   0.16513   0.00000  Uiso   1.00
C405   C     0.53570   0.85900   0.02857   0.00000  Uiso   1.00
C406   C     0.46430   0.80767   0.30476   0.00000  Uiso   1.00
C407   C     0.53629   0.85759   0.31403   0.00000  Uiso   1.00
C408   C     0.46371   0.80907   0.01931   0.00000  Uiso   1.00
H409   H     0.65850   0.83215   0.11403   0.00000  Uiso   1.00
H410   H     0.34150   0.83451   0.21931   0.00000  Uiso   1.00
N411   N     0.49999   0.83332   0.28573   0.00000  Uiso   1.00
N412   N     0.50001   0.83334   0.04760   0.00000  Uiso   1.00
O413   O     0.50000   0.77225   0.20487   0.00000  Uiso   1.00
O414   O     0.50000   0.89442   0.12846   0.00000  Uiso   1.00
O415   O     0.50000   0.77226   0.12843   0.00000  Uiso   1.00
O416   O     0.50000   0.89441   0.20490   0.00000  Uiso   1.00
O417   O     0.42392   0.83333   0.19595   0.00000  Uiso   1.00
O418   O     0.57608   0.83334   0.13739   0.00000  Uiso   1.00
O419   O     0.42392   0.83334   0.11950   0.00000  Uiso   1.00
O420   O     0.57608   0.83333   0.21383   0.00000  Uiso   1.00
Zn421  Zn    0.50000   0.83333   0.21771   0.00000  Uiso   1.00
Zn422  Zn    0.50000   0.83334   0.11563   0.00000  Uiso   1.00
C423   C     0.49498   0.70167   0.08066   0.00000  Uiso   1.00
N424   N     0.49900   0.71411   0.04544   0.00000  Uiso   1.00
C425   C     0.50502   0.96500   0.25267   0.00000  Uiso   1.00
N426   N     0.50100   0.95255   0.28790   0.00000  Uiso   1.00
C427   C     0.44606   0.95502   0.08849   0.00000  Uiso   1.00
N428   N     0.42068   0.93763   0.05777   0.00000  Uiso   1.00
C429   C     0.55394   0.71164   0.24485   0.00000  Uiso   1.00
N430   N     0.57932   0.72903   0.27557   0.00000  Uiso   1.00
C431   C     0.57568   0.88900   0.05764   0.00000  Uiso   1.00
C432   C     0.56776   0.93481   0.04854   0.00000  Uiso   1.00
H433   H     0.58665   0.94488   0.01931   0.00000  Uiso   1.00
H434   H     0.52538   0.94042   0.04234   0.00000  Uiso   1.00
H435   H     0.58627   0.95460   0.07831   0.00000  Uiso   1.00
H436   H     0.57378   0.88651   0.09334   0.00000  Uiso   1.00
H437   H     0.61623   0.88164   0.05266   0.00000  Uiso   1.00
C438   C     0.42432   0.77767   0.27569   0.00000  Uiso   1.00
C439   C     0.43224   0.73185   0.28480   0.00000  Uiso   1.00
H440   H     0.47462   0.72624   0.29100   0.00000  Uiso   1.00
H441   H     0.41335   0.72178   0.31403   0.00000  Uiso   1.00
H442   H     0.41373   0.71207   0.25503   0.00000  Uiso   1.00
H443   H     0.38377   0.78503   0.28067   0.00000  Uiso   1.00
H444   H     0.42622   0.78016   0.23999   0.00000  Uiso   1.00
C445   C     0.57659   0.88088   0.29465   0.00000  Uiso   1.00
N446   N     0.60909   0.89968   0.27942   0.00000  Uiso   1.00
C447   C     0.42341   0.78578   0.03869   0.00000  Uiso   1.00
N448   N     0.39091   0.76699   0.05392   0.00000  Uiso   1.00
C449   C     0.83738   0.75363   0.16630   0.00000  Uiso   1.00
C450   C     0.82929   0.91304   0.16703   0.00000  Uiso   1.00
C451   C     0.73390   0.83314   0.15486   0.00000  Uiso   1.00
C452   C     0.93277   0.83353   0.17847   0.00000  Uiso   1.00
C453   C     0.67884   0.83297   0.14853   0.00000  Uiso   1.00
C454   C     0.98783   0.83370   0.18480   0.00000  Uiso   1.00
C455   C     0.82485   0.68544   0.12479   0.00000  Uiso   1.00
C456   C     0.84182   0.98123   0.20854   0.00000  Uiso   1.00
C457   C     0.81105   0.97695   0.12720   0.00000  Uiso   1.00
C458   C     0.85562   0.68972   0.20614   0.00000  Uiso   1.00
C459   C     0.82449   0.95749   0.16821   0.00000  Uiso   1.00
C460   C     0.84217   0.70917   0.16513   0.00000  Uiso   1.00
C461   C     0.86903   0.85900   0.02857   0.00000  Uiso   1.00
C462   C     0.79763   0.80767   0.30476   0.00000  Uiso   1.00
C463   C     0.86963   0.85759   0.31403   0.00000  Uiso   1.00
C464   C     0.79704   0.80907   0.01931   0.00000  Uiso   1.00
H465   H     0.99183   0.83215   0.11403   0.00000  Uiso   1.00
H466   H     0.67484   0.83451   0.21931   0.00000  Uiso   1.00
N467   N     0.83332   0.83332   0.28573   0.00000  Uiso   1.00
N468   N     0.83335   0.83334   0.04760   0.00000  Uiso   1.00
O469   O     0.83333   0.77225   0.20487   0.00000  Uiso   1.00
O470   O     0.83334   0.89442   0.12846   0.00000  Uiso   1.00
O471   O     0.83333   0.77226   0.12843   0.00000  Uiso   1.00
O472   O     0.83334   0.89441   0.20490   0.00000  Uiso   1.00
O473   O     0.75725   0.83333   0.19595   0.00000  Uiso   1.00
O474   O     0.90942   0.83334   0.13739   0.00000  Uiso   1.00
O475   O     0.75725   0.83334   0.11950   0.00000  Uiso   1.00
O476   O     0.90942   0.83333   0.21383   0.00000  Uiso   1.00
Zn477  Zn    0.83333   0.83333   0.21771   0.00000  Uiso   1.00
Zn478  Zn    0.83333   0.83334   0.11563   0.00000  Uiso   1.00
C479   C     0.82831   0.70167   0.08066   0.00000  Uiso   1.00
N480   N     0.83234   0.71411   0.04544   0.00000  Uiso   1.00
C481   C     0.83836   0.96500   0.25267   0.00000  Uiso   1.00
N482   N     0.83433   0.95255   0.28790   0.00000  Uiso   1.00
C483   C     0.77940   0.95502   0.08849   0.00000  Uiso   1.00
N484   N     0.75401   0.93763   0.05777   0.00000  Uiso   1.00
C485   C     0.88727   0.71164   0.24485   0.00000  Uiso   1.00
N486   N     0.91265   0.72903   0.27557   0.00000  Uiso   1.00
C487   C     0.90901   0.88900   0.05764   0.00000  Uiso   1.00
C488   C     0.90110   0.93481   0.04854   0.00000  Uiso   1.00
H489   H     0.91998   0.94488   0.01931   0.00000  Uiso   1.00
H490   H     0.85871   0.94042   0.04234   0.00000  Uiso   1.00
H491   H     0.91960   0.95460   0.07831   0.00000  Uiso   1.00
H492   H     0.90712   0.88651   0.09334   0.00000  Uiso   1.00
H493   H     0.94957   0.88164   0.05266   0.00000  Uiso   1.00
C494   C     0.75766   0.77767   0.27569   0.00000  Uiso   1.00
C495   C     0.76557   0.73185   0.28480   0.00000  Uiso   1.00
H496   H     0.80796   0.72624   0.29100   0.00000  Uiso   1.00
H497   H     0.74668   0.72178   0.31403   0.00000  Uiso   1.00
H498   H     0.74707   0.71207   0.25503   0.00000  Uiso   1.00
H499   H     0.71710   0.78503   0.28067   0.00000  Uiso   1.00
H500   H     0.75955   0.78016   0.23999   0.00000  Uiso   1.00
C501   C     0.90992   0.88088   0.29465   0.00000  Uiso   1.00
N502   N     0.94242   0.89968   0.27942   0.00000  Uiso   1.00
C503   C     0.75674   0.78578   0.03869   0.00000  Uiso   1.00
N504   N     0.72424   0.76699   0.05392   0.00000  Uiso   1.00
C505   C     0.17071   0.08696   0.49964   0.00000  Uiso   1.00
C506   C     0.16262   0.24637   0.50036   0.00000  Uiso   1.00
C507   C     0.06723   0.16647   0.48820   0.00000  Uiso   1.00
C508   C     0.26610   0.16686   0.51180   0.00000  Uiso   1.00
C509   C     0.01217   0.16630   0.48186   0.00000  Uiso   1.00
C510   C     0.32116   0.16703   0.51814   0.00000  Uiso   1.00
C511   C     0.15819   0.01877   0.45813   0.00000  Uiso   1.00
C512   C     0.17515   0.31456   0.54187   0.00000  Uiso   1.00
C513   C     0.14438   0.31028   0.46053   0.00000  Uiso   1.00
C514   C     0.18895   0.02305   0.53947   0.00000  Uiso   1.00
C515   C     0.15783   0.29083   0.50154   0.00000  Uiso   1.00
C516   C     0.17551   0.04251   0.49846   0.00000  Uiso   1.00
C517   C     0.20237   0.19233   0.36190   0.00000  Uiso   1.00
C518   C     0.13097   0.14100   0.63810   0.00000  Uiso   1.00
C519   C     0.20296   0.19093   0.64736   0.00000  Uiso   1.00
C520   C     0.13037   0.14241   0.35264   0.00000  Uiso   1.00
H521   H     0.32516   0.16549   0.44736   0.00000  Uiso   1.00
H522   H     0.00817   0.16785   0.55264   0.00000  Uiso   1.00
N523   N     0.16665   0.16666   0.61907   0.00000  Uiso   1.00
N524   N     0.16668   0.16668   0.38093   0.00000  Uiso   1.00
O525   O     0.16666   0.10558   0.53821   0.00000  Uiso   1.00
O526   O     0.16667   0.22775   0.46179   0.00000  Uiso   1.00
O527   O     0.16666   0.10559   0.46176   0.00000  Uiso   1.00
O528   O     0.16667   0.22774   0.53824   0.00000  Uiso   1.00
O529   O     0.09058   0.16666   0.52928   0.00000  Uiso   1.00
O530   O     0.24275   0.16667   0.47072   0.00000  Uiso   1.00
O531   O     0.09058   0.16667   0.45284   0.00000  Uiso   1.00
O532   O     0.24275   0.16666   0.54716   0.00000  Uiso   1.00
Zn533  Zn    0.16667   0.16666   0.55104   0.00000  Uiso   1.00
Zn534  Zn    0.16667   0.16667   0.44896   0.00000  Uiso   1.00
C535   C     0.16164   0.03500   0.41400   0.00000  Uiso   1.00
N536   N     0.16567   0.04745   0.37877   0.00000  Uiso   1.00
C537   C     0.17169   0.29833   0.58601   0.00000  Uiso   1.00
N538   N     0.16766   0.28589   0.62123   0.00000  Uiso   1.00
C539   C     0.11273   0.28836   0.42182   0.00000  Uiso   1.00
N540   N     0.08735   0.27097   0.39110   0.00000  Uiso   1.00
C541   C     0.22060   0.04498   0.57818   0.00000  Uiso   1.00
N542   N     0.24599   0.06237   0.60890   0.00000  Uiso   1.00
C543   C     0.24234   0.22233   0.39098   0.00000  Uiso   1.00
C544   C     0.23443   0.26815   0.38187   0.00000  Uiso   1.00
H545   H     0.25332   0.27822   0.35264   0.00000  Uiso   1.00
H546   H     0.19205   0.27376   0.37567   0.00000  Uiso   1.00
H547   H     0.25294   0.28793   0.41164   0.00000  Uiso   1.00
H548   H     0.24045   0.21984   0.42668   0.00000  Uiso   1.00
H549   H     0.28290   0.21497   0.38600   0.00000  Uiso   1.00
C550   C     0.09099   0.11100   0.60902   0.00000  Uiso   1.00
C551   C     0.09890   0.06519   0.61813   0.00000  Uiso   1.00
H552   H     0.14129   0.05958   0.62433   0.00000  Uiso   1.00
H553   H     0.08002   0.05512   0.64736   0.00000  Uiso   1.00
H554   H     0.08040   0.04540   0.58836   0.00000  Uiso   1.00
H555   H     0.05043   0.11836   0.61400   0.00000  Uiso   1.00
H556   H     0.09288   0.11349   0.57332   0.00000  Uiso   1.00
C557   C     0.24326   0.21422   0.62798   0.00000  Uiso   1.00
N558   N     0.27576   0.23301   0.61275   0.00000  Uiso   1.00
C559   C     0.09008   0.11912   0.37202   0.00000  Uiso   1.00
N560   N     0.05758   0.10032   0.38725   0.00000  Uiso   1.00
C561   C     0.50405   0.08696   0.49964   0.00000  Uiso   1.00
C562   C     0.49596   0.24637   0.50036   0.00000  Uiso   1.00
C563   C     0.40056   0.16647   0.48820   0.00000  Uiso   1.00
C564   C     0.59944   0.16686   0.51180   0.00000  Uiso   1.00
C565   C     0.34551   0.16630   0.48186   0.00000  Uiso   1.00
C566   C     0.65449   0.16703   0.51814   0.00000  Uiso   1.00
C567   C     0.49152   0.01877   0.45813   0.00000  Uiso   1.00
C568   C     0.50848   0.31456   0.54187   0.00000  Uiso   1.00
C569   C     0.47772   0.31028   0.46053   0.00000  Uiso   1.00
C570   C     0.52228   0.02305   0.53947   0.00000  Uiso   1.00
C571   C     0.49116   0.29083   0.50154   0.00000  Uiso   1.00
C572   C     0.50884   0.04251   0.49846   0.00000  Uiso   1.00
C573   C     0.53570   0.19233   0.36190   0.00000  Uiso   1.00
C574   C     0.46430   0.14100   0.63810   0.00000  Uiso   1.00
C575   C     0.53629   0.19093   0.64736   0.00000  Uiso   1.00
C576   C     0.46371   0.14241   0.35264   0.00000  Uiso   1.00
H577   H     0.65850   0.16549   0.44736   0.00000  Uiso   1.00
H578   H     0.34150   0.16785   0.55264   0.00000  Uiso   1.00
N579   N     0.49999   0.16666   0.61907   0.00000  Uiso   1.00
N580   N     0.50001   0.16668   0.38093   0.00000  Uiso   1.00
O581   O     0.50000   0.10558   0.53821   0.00000  Uiso   1.00
O582   O     0.50000   0.22775   0.46179   0.00000  Uiso   1.00
O583   O     0.50000   0.10559   0.46176   0.00000  Uiso   1.00
O584   O     0.50000   0.22774   0.53824   0.00000  Uiso   1.00
O585   O     0.42392   0.16666   0.52928   0.00000  Uiso   1.00
O586   O     0.57608   0.16667   0.47072   0.00000  Uiso   1.00
O587   O     0.42392   0.16667   0.45284   0.00000  Uiso   1.00
O588   O     0.57608   0.16666   0.54716   0.00000  Uiso   1.00
Zn589  Zn    0.50000   0.16666   0.55104   0.00000  Uiso   1.00
Zn590  Zn    0.50000   0.16667   0.44896   0.00000  Uiso   1.00
C591   C     0.49498   0.03500   0.41400   0.00000  Uiso   1.00
N592   N     0.49900   0.04745   0.37877   0.00000  Uiso   1.00
C593   C     0.50502   0.29833   0.58601   0.00000  Uiso   1.00
N594   N     0.50100   0.28589   0.62123   0.00000  Uiso   1.00
C595   C     0.44606   0.28836   0.42182   0.00000  Uiso   1.00
N596   N     0.42068   0.27097   0.39110   0.00000  Uiso   1.00
C597   C     0.55394   0.04498   0.57818   0.00000  Uiso   1.00
N598   N     0.57932   0.06237   0.60890   0.00000  Uiso   1.00
C599   C     0.57568   0.22233   0.39098   0.00000  Uiso   1.00
C600   C     0.56776   0.26815   0.38187   0.00000  Uiso   1.00
H601   H     0.58665   0.27822   0.35264   0.00000  Uiso   1.00
H602   H     0.52538   0.27376   0.37567   0.00000  Uiso   1.00
H603   H     0.58627   0.28793   0.41164   0.00000  Uiso   1.00
H604   H     0.57378   0.21984   0.42668   0.00000  Uiso   1.00
H605   H     0.61623   0.21497   0.38600   0.00000  Uiso   1.00
C606   C     0.42432   0.11100   0.60902   0.00000  Uiso   1.00
C607   C     0.43224   0.06519   0.61813   0.00000  Uiso   1.00
H608   H     0.47462   0.05958   0.62433   0.00000  Uiso   1.00
H609   H     0.41335   0.05512   0.64736   0.00000  Uiso   1.00
H610   H     0.41373   0.04540   0.58836   0.00000  Uiso   1.00
H611   H     0.38377   0.11836   0.61400   0.00000  Uiso   1.00
H612   H     0.42622   0.11349   0.57332   0.00000  Uiso   1.00
C613   C     0.57659   0.21422   0.62798   0.00000  Uiso   1.00
N614   N     0.60909   0.23301   0.61275   0.00000  Uiso   1.00
C615   C     0.42341   0.11912   0.37202   0.00000  Uiso   1.00
N616   N     0.39091   0.10032   0.38725   0.00000  Uiso   1.00
C617   C     0.83738   0.08696   0.49964   0.00000  Uiso   1.00
C618   C     0.82929   0.24637   0.50036   0.00000  Uiso   1.00
C619   C     0.73390   0.16647   0.48820   0.00000  Uiso   1.00
C620   C     0.93277   0.16686   0.51180   0.00000  Uiso   1.00
C621   C     0.67884   0.16630   0.48186   0.00000  Uiso   1.00
C622   C     0.98783   0.16703   0.51814   0.00000  Uiso   1.00
C623   C     0.82485   0.01877   0.45813   0.00000  Uiso   1.00
C624   C     0.84182   0.31456   0.54187   0.00000  Uiso   1.00
C625   C     0.81105   0.31028   0.46053   0.00000  Uiso   1.00
C626   C     0.85562   0.02305   0.53947   0.00000  Uiso   1.00
C627   C     0.82449   0.29083   0.50154   0.00000  Uiso   1.00
C628   C     0.84217   0.04251   0.49846   0.00000  Uiso   1.00
C629   C     0.86903   0.19233   0.36190   0.00000  Uiso   1.00
C630   C     0.79763   0.14100   0.63810   0.00000  Uiso   1.00
C631   C     0.86963   0.19093   0.64736   0.00000  Uiso   1.00
C632   C     0.79704   0.14241   0.35264   0.00000  Uiso   1.00
H633   H     0.99183   0.16549   0.44736   0.00000  Uiso   1.00
H634   H     0.67484   0.16785   0.55264   0.00000  Uiso   1.00
N635   N     0.83332   0.16666   0.61907   0.00000  Uiso   1.00
N636   N     0.83335   0.16668   0.38093   0.00000  Uiso   1.00
O637   O     0.83333   0.10558   0.53821   0.00000  Uiso   1.00
O638   O     0.83334   0.22775   0.46179   0.00000  Uiso   1.00
O639   O     0.83333   0.10559   0.46176   0.00000  Uiso   1.00
O640   O     0.83334   0.22774   0.53824   0.00000  Uiso   1.00
O641   O     0.75725   0.16666   0.52928   0.00000  Uiso   1.00
O642   O     0.90942   0.16667   0.47072   0.00000  Uiso   1.00
O643   O     0.75725   0.16667   0.45284   0.00000  Uiso   1.00
O644   O     0.90942   0.16666   0.54716   0.00000  Uiso   1.00
Zn645  Zn    0.83333   0.16666   0.55104   0.00000  Uiso   1.00
Zn646  Zn    0.83333   0.16667   0.44896   0.00000  Uiso   1.00
C647   C     0.82831   0.03500   0.41400   0.00000  Uiso   1.00
N648   N     0.83234   0.04745   0.37877   0.00000  Uiso   1.00
C649   C     0.83836   0.29833   0.58601   0.00000  Uiso   1.00
N650   N     0.83433   0.28589   0.62123   0.00000  Uiso   1.00
C651   C     0.77940   0.28836   0.42182   0.00000  Uiso   1.00
N652   N     0.75401   0.27097   0.39110   0.00000  Uiso   1.00
C653   C     0.88727   0.04498   0.57818   0.00000  Uiso   1.00
N654   N     0.91265   0.06237   0.60890   0.00000  Uiso   1.00
C655   C     0.90901   0.22233   0.39098   0.00000  Uiso   1.00
C656   C     0.90110   0.26815   0.38187   0.00000  Uiso   1.00
H657   H     0.91998   0.27822   0.35264   0.00000  Uiso   1.00
H658   H     0.85871   0.27376   0.37567   0.00000  Uiso   1.00
H659   H     0.91960   0.28793   0.41164   0.00000  Uiso   1.00
H660   H     0.90712   0.21984   0.42668   0.00000  Uiso   1.00
H661   H     0.94957   0.21497   0.38600   0.00000  Uiso   1.00
C662   C     0.75766   0.11100   0.60902   0.00000  Uiso   1.00
C663   C     0.76557   0.06519   0.61813   0.00000  Uiso   1.00
H664   H     0.80796   0.05958   0.62433   0.00000  Uiso   1.00
H665   H     0.74668   0.05512   0.64736   0.00000  Uiso   1.00
H666   H     0.74707   0.04540   0.58836   0.00000  Uiso   1.00
H667   H     0.71710   0.11836   0.61400   0.00000  Uiso   1.00
H668   H     0.75955   0.11349   0.57332   0.00000  Uiso   1.00
C669   C     0.90992   0.21422   0.62798   0.00000  Uiso   1.00
N670   N     0.94242   0.23301   0.61275   0.00000  Uiso   1.00
C671   C     0.75674   0.11912   0.37202   0.00000  Uiso   1.00
N672   N     0.72424   0.10032   0.38725   0.00000  Uiso   1.00
C673   C     0.17071   0.42029   0.49964   0.00000  Uiso   1.00
C674   C     0.16262   0.57971   0.50036   0.00000  Uiso   1.00
C675   C     0.06723   0.49981   0.48820   0.00000  Uiso   1.00
C676   C     0.26610   0.50019   0.51180   0.00000  Uiso   1.00
C677   C     0.01217   0.49963   0.48186   0.00000  Uiso   1.00
C678   C     0.32116   0.50037   0.51814   0.00000  Uiso   1.00
C679   C     0.15819   0.35210   0.45813   0.00000  Uiso   1.00
C680   C     0.17515   0.64790   0.54187   0.00000  Uiso   1.00
C681   C     0.14438   0.64362   0.46053   0.00000  Uiso   1.00
C682   C     0.18895   0.35638   0.53947   0.00000  Uiso   1.00
C683   C     0.15783   0.62416   0.50154   0.00000  Uiso   1.00
C684   C     0.17551   0.37584   0.49846   0.00000  Uiso   1.00
C685   C     0.20237   0.52566   0.36190   0.00000  Uiso   1.00
C686   C     0.13097   0.47434   0.63810   0.00000  Uiso   1.00
C687   C     0.20296   0.52426   0.64736   0.00000  Uiso   1.00
C688   C     0.13037   0.47574   0.35264   0.00000  Uiso   1.00
H689   H     0.32516   0.49882   0.44736   0.00000  Uiso   1.00
H690   H     0.00817   0.50118   0.55264   0.00000  Uiso   1.00
N691   N     0.16665   0.49999   0.61907   0.00000  Uiso   1.00
N692   N     0.16668   0.50001   0.38093   0.00000  Uiso   1.00
O693   O     0.16666   0.43892   0.53821   0.00000  Uiso   1.00
O694   O     0.16667   0.56108   0.46179   0.00000  Uiso   1.00
O695   O     0.16666   0.43893   0.46176   0.00000  Uiso   1.00
O696   O     0.16667   0.56107   0.53824   0.00000  Uiso   1.00
O697   O     0.09058   0.50000   0.52928   0.00000  Uiso   1.00
O698   O     0.24275   0.50000   0.47072   0.00000  Uiso   1.00
O699   O     0.09058   0.50000   0.45284   0.00000  Uiso   1.00
O700   O     0.24275   0.50000   0.54716   0.00000  Uiso   1.00
Zn701  Zn    0.16667   0.49999   0.55104   0.00000  Uiso   1.00
Zn702  Zn    0.16667   0.50001   0.44896   0.00000  Uiso   1.00
C703   C     0.16164   0.36833   0.41400   0.00000  Uiso   1.00
N704   N     0.16567   0.38078   0.37877   0.00000  Uiso   1.00
C705   C     0.17169   0.63167   0.58601   0.00000  Uiso   1.00
N706   N     0.16766   0.61922   0.62123   0.00000  Uiso   1.00
C707   C     0.11273   0.62169   0.42182   0.00000  Uiso   1.00
N708   N     0.08735   0.60430   0.39110   0.00000  Uiso   1.00
C709   C     0.22060   0.37831   0.57818   0.00000  Uiso   1.00
N710   N     0.24599   0.39570   0.60890   0.00000  Uiso   1.00
C711   C     0.24234   0.55566   0.39098   0.00000  Uiso   1.00
C712   C     0.23443   0.60148   0.38187   0.00000  Uiso   1.00
H713   H     0.25332   0.61155   0.35264   0.00000  Uiso   1.00
H714   H     0.19205   0.60709   0.37567   0.00000  Uiso   1.00
H715   H     0.25294   0.62126   0.41164   0.00000  Uiso   1.00
H716   H     0.24045   0.55318   0.42668   0.00000  Uiso   1.00
H717   H     0.28290   0.54830   0.38600   0.00000  Uiso   1.00
C718   C     0.09099   0.44434   0.60902   0.00000  Uiso   1.00
C719   C     0.09890   0.39852   0.61813   0.00000  Uiso   1.00
H720   H     0.14129   0.39291   0.62433   0.00000  Uiso   1.00
H721   H     0.08002   0.38845   0.64736   0.00000  Uiso   1.00
H722   H     0.08040   0.37874   0.58836   0.00000  Uiso   1.00
H723   H     0.05043   0.45170   0.61400   0.00000  Uiso   1.00
H724   H     0.09288   0.44682   0.57332   0.00000  Uiso   1.00
C725   C     0.24326   0.54755   0.62798   0.00000  Uiso   1.00
N726   N     0.27576   0.56635   0.61275   0.00000  Uiso   1.00
C727   C     0.09008   0.45245   0.37202   0.00000  Uiso   1.00
N728   N     0.05758   0.43365   0.38725   0.00000  Uiso   1.00
C729   C     0.50405   0.42029   0.49964   0.00000  Uiso   1.00
C730   C     0.49596   0.57971   0.50036   0.00000  Uiso   1.00
C731   C     0.40056   0.49981   0.48820   0.00000  Uiso   1.00
C732   C     0.59944   0.50019   0.51180   0.00000  Uiso   1.00
C733   C     0.34551   0.49963   0.48186   0.00000  Uiso   1.00
C734   C     0.65449   0.50037   0.51814   0.00000  Uiso   1.00
C735   C     0.49152   0.35210   0.45813   0.00000  Uiso   1.00
C736   C     0.50848   0.64790   0.54187   0.00000  Uiso   1.00
C737   C     0.47772   0.64362   0.46053   0.00000  Uiso   1.00
C738   C     0.52228   0.35638   0.53947   0.00000  Uiso   1.00
C739   C     0.49116   0.62416   0.50154   0.00000  Uiso   1.00
C740   C     0.50884   0.37584   0.49846   0.00000  Uiso   1.00
C741   C     0.53570   0.52566   0.36190   0.00000  Uiso   1.00
C742   C     0.46430   0.47434   0.63810   0.00000  Uiso   1.00
C743   C     0.53629   0.52426   0.64736   0.00000  Uiso   1.00
C744   C     0.46371   0.47574   0.35264   0.00000  Uiso   1.00
H745   H     0.65850   0.49882   0.44736   0.00000  Uiso   1.00
H746   H     0.34150   0.50118   0.55264   0.00000  Uiso   1.00
N747   N     0.49999   0.49999   0.61907   0.00000  Uiso   1.00
N748   N     0.50001   0.50001   0.38093   0.00000  Uiso   1.00
O749   O     0.50000   0.43892   0.53821   0.00000  Uiso   1.00
O750   O     0.50000   0.56108   0.46179   0.00000  Uiso   1.00
O751   O     0.50000   0.43893   0.46176   0.00000  Uiso   1.00
O752   O     0.50000   0.56107   0.53824   0.00000  Uiso   1.00
O753   O     0.42392   0.50000   0.52928   0.00000  Uiso   1.00
O754   O     0.57608   0.50000   0.47072   0.00000  Uiso   1.00
O755   O     0.42392   0.50000   0.45284   0.00000  Uiso   1.00
O756   O     0.57608   0.50000   0.54716   0.00000  Uiso   1.00
Zn757  Zn    0.50000   0.49999   0.55104   0.00000  Uiso   1.00
Zn758  Zn    0.50000   0.50001   0.44896   0.00000  Uiso   1.00
C759   C     0.49498   0.36833   0.41400   0.00000  Uiso   1.00
N760   N     0.49900   0.38078   0.37877   0.00000  Uiso   1.00
C761   C     0.50502   0.63167   0.58601   0.00000  Uiso   1.00
N762   N     0.50100   0.61922   0.62123   0.00000  Uiso   1.00
C763   C     0.44606   0.62169   0.42182   0.00000  Uiso   1.00
N764   N     0.42068   0.60430   0.39110   0.00000  Uiso   1.00
C765   C     0.55394   0.37831   0.57818   0.00000  Uiso   1.00
N766   N     0.57932   0.39570   0.60890   0.00000  Uiso   1.00
C767   C     0.57568   0.55566   0.39098   0.00000  Uiso   1.00
C768   C     0.56776   0.60148   0.38187   0.00000  Uiso   1.00
H769   H     0.58665   0.61155   0.35264   0.00000  Uiso   1.00
H770   H     0.52538   0.60709   0.37567   0.00000  Uiso   1.00
H771   H     0.58627   0.62126   0.41164   0.00000  Uiso   1.00
H772   H     0.57378   0.55318   0.42668   0.00000  Uiso   1.00
H773   H     0.61623   0.54830   0.38600   0.00000  Uiso   1.00
C774   C     0.42432   0.44434   0.60902   0.00000  Uiso   1.00
C775   C     0.43224   0.39852   0.61813   0.00000  Uiso   1.00
H776   H     0.47462   0.39291   0.62433   0.00000  Uiso   1.00
H777   H     0.41335   0.38845   0.64736   0.00000  Uiso   1.00
H778   H     0.41373   0.37874   0.58836   0.00000  Uiso   1.00
H779   H     0.38377   0.45170   0.61400   0.00000  Uiso   1.00
H780   H     0.42622   0.44682   0.57332   0.00000  Uiso   1.00
C781   C     0.57659   0.54755   0.62798   0.00000  Uiso   1.00
N782   N     0.60909   0.56635   0.61275   0.00000  Uiso   1.00
C783   C     0.42341   0.45245   0.37202   0.00000  Uiso   1.00
N784   N     0.39091   0.43365   0.38725   0.00000  Uiso   1.00
C785   C     0.83738   0.42029   0.49964   0.00000  Uiso   1.00
C786   C     0.82929   0.57971   0.50036   0.00000  Uiso   1.00
C787   C     0.73390   0.49981   0.48820   0.00000  Uiso   1.00
C788   C     0.93277   0.50019   0.51180   0.00000  Uiso   1.00
C789   C     0.67884   0.49963   0.48186   0.00000  Uiso   1.00
C790   C     0.98783   0.50037   0.51814   0.00000  Uiso   1.00
C791   C     0.82485   0.35210   0.45813   0.00000  Uiso   1.00
C792   C     0.84182   0.64790   0.54187   0.00000  Uiso   1.00
C793   C     0.81105   0.64362   0.46053   0.00000  Uiso   1.00
C794   C     0.85562   0.35638   0.53947   0.00000  Uiso   1.00
C795   C     0.82449   0.62416   0.50154   0.00000  Uiso   1.00
C796   C     0.84217   0.37584   0.49846   0.00000  Uiso   1.00
C797   C     0.86903   0.52566   0.36190   0.00000  Uiso   1.00
C798   C     0.79763   0.47434   0.63810   0.00000  Uiso   1.00
C799   C     0.86963   0.52426   0.64736   0.00000  Uiso   1.00
C800   C     0.79704   0.47574   0.35264   0.00000  Uiso   1.00
H801   H     0.99183   0.49882   0.44736   0.00000  Uiso   1.00
H802   H     0.67484   0.50118   0.55264   0.00000  Uiso   1.00
N803   N     0.83332   0.49999   0.61907   0.00000  Uiso   1.00
N804   N     0.83335   0.50001   0.38093   0.00000  Uiso   1.00
O805   O     0.83333   0.43892   0.53821   0.00000  Uiso   1.00
O806   O     0.83334   0.56108   0.46179   0.00000  Uiso   1.00
O807   O     0.83333   0.43893   0.46176   0.00000  Uiso   1.00
O808   O     0.83334   0.56107   0.53824   0.00000  Uiso   1.00
O809   O     0.75725   0.50000   0.52928   0.00000  Uiso   1.00
O810   O     0.90942   0.50000   0.47072   0.00000  Uiso   1.00
O811   O     0.75725   0.50000   0.45284   0.00000  Uiso   1.00
O812   O     0.90942   0.50000   0.54716   0.00000  Uiso   1.00
Zn813  Zn    0.83333   0.49999   0.55104   0.00000  Uiso   1.00
Zn814  Zn    0.83333   0.50001   0.44896   0.00000  Uiso   1.00
C815   C     0.82831   0.36833   0.41400   0.00000  Uiso   1.00
N816   N     0.83234   0.38078   0.37877   0.00000  Uiso   1.00
C817   C     0.83836   0.63167   0.58601   0.00000  Uiso   1.00
N818   N     0.83433   0.61922   0.62123   0.00000  Uiso   1.00
C819   C     0.77940   0.62169   0.42182   0.00000  Uiso   1.00
N820   N     0.75401   0.60430   0.39110   0.00000  Uiso   1.00
C821   C     0.88727   0.37831   0.57818   0.00000  Uiso   1.00
N822   N     0.91265   0.39570   0.60890   0.00000  Uiso   1.00
C823   C     0.90901   0.55566   0.39098   0.00000  Uiso   1.00
C824   C     0.90110   0.60148   0.38187   0.00000  Uiso   1.00
H825   H     0.91998   0.61155   0.35264   0.00000  Uiso   1.00
H826   H     0.85871   0.60709   0.37567   0.00000  Uiso   1.00
H827   H     0.91960   0.62126   0.41164   0.00000  Uiso   1.00
H828   H     0.90712   0.55318   0.42668   0.00000  Uiso   1.00
H829   H     0.94957   0.54830   0.38600   0.00000  Uiso   1.00
C830   C     0.75766   0.44434   0.60902   0.00000  Uiso   1.00
C831   C     0.76557   0.39852   0.61813   0.00000  Uiso   1.00
H832   H     0.80796   0.39291   0.62433   0.00000  Uiso   1.00
H833   H     0.74668   0.38845   0.64736   0.00000  Uiso   1.00
H834   H     0.74707   0.37874   0.58836   0.00000  Uiso   1.00
H835   H     0.71710   0.45170   0.61400   0.00000  Uiso   1.00
H836   H     0.75955   0.44682   0.57332   0.00000  Uiso   1.00
C837   C     0.90992   0.54755   0.62798   0.00000  Uiso   1.00
N838   N     0.94242   0.56635   0.61275   0.00000  Uiso   1.00
C839   C     0.75674   0.45245   0.37202   0.00000  Uiso   1.00
N840   N     0.72424   0.43365   0.38725   0.00000  Uiso   1.00
C841   C     0.17071   0.75363   0.49964   0.00000  Uiso   1.00
C842   C     0.16262   0.91304   0.50036   0.00000  Uiso   1.00
C843   C     0.06723   0.83314   0.48820   0.00000  Uiso   1.00
C844   C     0.26610   0.83353   0.51180   0.00000  Uiso   1.00
C845   C     0.01217   0.83297   0.48186   0.00000  Uiso   1.00
C846   C     0.32116   0.83370   0.51814   0.00000  Uiso   1.00
C847   C     0.15819   0.68544   0.45813   0.00000  Uiso   1.00
C848   C     0.17515   0.98123   0.54187   0.00000  Uiso   1.00
C849   C     0.14438   0.97695   0.46053   0.00000  Uiso   1.00
C850   C     0.18895   0.68972   0.53947   0.00000  Uiso   1.00
C851   C     0.15783   0.95749   0.50154   0.00000  Uiso   1.00
C852   C     0.17551   0.70917   0.49846   0.00000  Uiso   1.00
C853   C     0.20237   0.85900   0.36190   0.00000  Uiso   1.00
C854   C     0.13097   0.80767   0.63810   0.00000  Uiso   1.00
C855   C     0.20296   0.85759   0.64736   0.00000  Uiso   1.00
C856   C     0.13037   0.80907   0.35264   0.00000  Uiso   1.00
H857   H     0.32516   0.83215   0.44736   0.00000  Uiso   1.00
H858   H     0.00817   0.83451   0.55264   0.00000  Uiso   1.00
N859   N     0.16665   0.83332   0.61907   0.00000  Uiso   1.00
N860   N     0.16668   0.83334   0.38093   0.00000  Uiso   1.00
O861   O     0.16666   0.77225   0.53821   0.00000  Uiso   1.00
O862   O     0.16667   0.89442   0.46179   0.00000  Uiso   1.00
O863   O     0.16666   0.77226   0.46176   0.00000  Uiso   1.00
O864   O     0.16667   0.89441   0.53824   0.00000  Uiso   1.00
O865   O     0.09058   0.83333   0.52928   0.00000  Uiso   1.00
O866   O     0.24275   0.83334   0.47072   0.00000  Uiso   1.00
O867   O     0.09058   0.83334   0.45284   0.00000  Uiso   1.00
O868   O     0.24275   0.83333   0.54716   0.00000  Uiso   1.00
Zn869  Zn    0.16667   0.83333   0.55104   0.00000  Uiso   1.00
Zn870  Zn    0.16667   0.83334   0.44896   0.00000  Uiso   1.00
C871   C     0.16164   0.70167   0.41400   0.00000  Uiso   1.00
N872   N     0.16567   0.71411   0.37877   0.00000  Uiso   1.00
C873   C     0.17169   0.96500   0.58601   0.00000  Uiso   1.00
N874   N     0.16766   0.95255   0.62123   0.00000  Uiso   1.00
C875   C     0.11273   0.95502   0.42182   0.00000  Uiso   1.00
N876   N     0.08735   0.93763   0.39110   0.00000  Uiso   1.00
C877   C     0.22060   0.71164   0.57818   0.00000  Uiso   1.00
N878   N     0.24599   0.72903   0.60890   0.00000  Uiso   1.00
C879   C     0.24234   0.88900   0.39098   0.00000  Uiso   1.00
C880   C     0.23443   0.93481   0.38187   0.00000  Uiso   1.00
H881   H     0.25332   0.94488   0.35264   0.00000  Uiso   1.00
H882   H     0.19205   0.94042   0.37567   0.00000  Uiso   1.00
H883   H     0.25294   0.95460   0.41164   0.00000  Uiso   1.00
H884   H     0.24045   0.88651   0.42668   0.00000  Uiso   1.00
H885   H     0.28290   0.88164   0.38600   0.00000  Uiso   1.00
C886   C     0.09099   0.77767   0.60902   0.00000  Uiso   1.00
C887   C     0.09890   0.73185   0.61813   0.00000  Uiso   1.00
H888   H     0.14129   0.72624   0.62433   0.00000  Uiso   1.00
H889   H     0.08002   0.72178   0.64736   0.00000  Uiso   1.00
H890   H     0.08040   0.71207   0.58836   0.00000  Uiso   1.00
H891   H     0.05043   0.78503   0.61400   0.00000  Uiso   1.00
H892   H     0.09288   0.78016   0.57332   0.00000  Uiso   1.00
C893   C     0.24326   0.88088   0.62798   0.00000  Uiso   1.00
N894   N     0.27576   0.89968   0.61275   0.00000  Uiso   1.00
C895   C     0.09008   0.78578   0.37202   0.00000  Uiso   1.00
N896   N     0.05758   0.76699   0.38725   0.00000  Uiso   1.00
C897   C     0.50405   0.75363   0.49964   0.00000  Uiso   1.00
C898   C     0.49596   0.91304   0.50036   0.00000  Uiso   1.00
C899   C     0.40056   0.83314   0.48820   0.00000  Uiso   1.00
C900   C     0.59944   0.83353   0.51180   0.00000  Uiso   1.00
C901   C     0.34551   0.83297   0.48186   0.00000  Uiso   1.00
C902   C     0.65449   0.83370   0.51814   0.00000  Uiso   1.00
C903   C     0.49152   0.68544   0.45813   0.00000  Uiso   1.00
C904   C     0.50848   0.98123   0.54187   0.00000  Uiso   1.00
C905   C     0.47772   0.97695   0.46053   0.00000  Uiso   1.00
C906   C     0.52228   0.68972   0.53947   0.00000  Uiso   1.00
C907   C     0.49116   0.95749   0.50154   0.00000  Uiso   1.00
C908   C     0.50884   0.70917   0.49846   0.00000  Uiso   1.00
C909   C     0.53570   0.85900   0.36190   0.00000  Uiso   1.00
C910   C     0.46430   0.80767   0.63810   0.00000  Uiso   1.00
C911   C     0.53629   0.85759   0.64736   0.00000  Uiso   1.00
C912   C     0.46371   0.80907   0.35264   0.00000  Uiso   1.00
H913   H     0.65850   0.83215   0.44736   0.00000  Uiso   1.00
H914   H     0.34150   0.83451   0.55264   0.00000  Uiso   1.00
N915   N     0.49999   0.83332   0.61907   0.00000  Uiso   1.00
N916   N     0.50001   0.83334   0.38093   0.00000  Uiso   1.00
O917   O     0.50000   0.77225   0.53821   0.00000  Uiso   1.00
O918   O     0.50000   0.89442   0.46179   0.00000  Uiso   1.00
O919   O     0.50000   0.77226   0.46176   0.00000  Uiso   1.00
O920   O     0.50000   0.89441   0.53824   0.00000  Uiso   1.00
O921   O     0.42392   0.83333   0.52928   0.00000  Uiso   1.00
O922   O     0.57608   0.83334   0.47072   0.00000  Uiso   1.00
O923   O     0.42392   0.83334   0.45284   0.00000  Uiso   1.00
O924   O     0.57608   0.83333   0.54716   0.00000  Uiso   1.00
Zn925  Zn    0.50000   0.83333   0.55104   0.00000  Uiso   1.00
Zn926  Zn    0.50000   0.83334   0.44896   0.00000  Uiso   1.00
C927   C     0.49498   0.70167   0.41400   0.00000  Uiso   1.00
N928   N     0.49900   0.71411   0.37877   0.00000  Uiso   1.00
C929   C     0.50502   0.96500   0.58601   0.00000  Uiso   1.00
N930   N     0.50100   0.95255   0.62123   0.00000  Uiso   1.00
C931   C     0.44606   0.95502   0.42182   0.00000  Uiso   1.00
N932   N     0.42068   0.93763   0.39110   0.00000  Uiso   1.00
C933   C     0.55394   0.71164   0.57818   0.00000  Uiso   1.00
N934   N     0.57932   0.72903   0.60890   0.00000  Uiso   1.00
C935   C     0.57568   0.88900   0.39098   0.00000  Uiso   1.00
C936   C     0.56776   0.93481   0.38187   0.00000  Uiso   1.00
H937   H     0.58665   0.94488   0.35264   0.00000  Uiso   1.00
H938   H     0.52538   0.94042   0.37567   0.00000  Uiso   1.00
H939   H     0.58627   0.95460   0.41164   0.00000  Uiso   1.00
H940   H     0.57378   0.88651   0.42668   0.00000  Uiso   1.00
H941   H     0.61623   0.88164   0.38600   0.00000  Uiso   1.00
C942   C     0.42432   0.77767   0.60902   0.00000  Uiso   1.00
C943   C     0.43224   0.73185   0.61813   0.00000  Uiso   1.00
H944   H     0.47462   0.72624   0.62433   0.00000  Uiso   1.00
H945   H     0.41335   0.72178   0.64736   0.00000  Uiso   1.00
H946   H     0.41373   0.71207   0.58836   0.00000  Uiso   1.00
H947   H     0.38377   0.78503   0.61400   0.00000  Uiso   1.00
H948   H     0.42622   0.78016   0.57332   0.00000  Uiso   1.00
C949   C     0.57659   0.88088   0.62798   0.00000  Uiso   1.00
N950   N     0.60909   0.89968   0.61275   0.00000  Uiso   1.00
C951   C     0.42341   0.78578   0.37202   0.00000  Uiso   1.00
N952   N     0.39091   0.76699   0.38725   0.00000  Uiso   1.00
C953   C     0.83738   0.75363   0.49964   0.00000  Uiso   1.00
C954   C     0.82929   0.91304   0.50036   0.00000  Uiso   1.00
C955   C     0.73390   0.83314   0.48820   0.00000  Uiso   1.00
C956   C     0.93277   0.83353   0.51180   0.00000  Uiso   1.00
C957   C     0.67884   0.83297   0.48186   0.00000  Uiso   1.00
C958   C     0.98783   0.83370   0.51814   0.00000  Uiso   1.00
C959   C     0.82485   0.68544   0.45813   0.00000  Uiso   1.00
C960   C     0.84182   0.98123   0.54187   0.00000  Uiso   1.00
C961   C     0.81105   0.97695   0.46053   0.00000  Uiso   1.00
C962   C     0.85562   0.68972   0.53947   0.00000  Uiso   1.00
C963   C     0.82449   0.95749   0.50154   0.00000  Uiso   1.00
C964   C     0.84217   0.70917   0.49846   0.00000  Uiso   1.00
C965   C     0.86903   0.85900   0.36190   0.00000  Uiso   1.00
C966   C     0.79763   0.80767   0.63810   0.00000  Uiso   1.00
C967   C     0.86963   0.85759   0.64736   0.00000  Uiso   1.00
C968   C     0.79704   0.80907   0.35264   0.00000  Uiso   1.00
H969   H     0.99183   0.83215   0.44736   0.00000  Uiso   1.00
H970   H     0.67484   0.83451   0.55264   0.00000  Uiso   1.00
N971   N     0.83332   0.83332   0.61907   0.00000  Uiso   1.00
N972   N     0.83335   0.83334   0.38093   0.00000  Uiso   1.00
O973   O     0.83333   0.77225   0.53821   0.00000  Uiso   1.00
O974   O     0.83334   0.89442   0.46179   0.00000  Uiso   1.00
O975   O     0.83333   0.77226   0.46176   0.00000  Uiso   1.00
O976   O     0.83334   0.89441   0.53824   0.00000  Uiso   1.00
O977   O     0.75725   0.83333   0.52928   0.00000  Uiso   1.00
O978   O     0.90942   0.83334   0.47072   0.00000  Uiso   1.00
O979   O     0.75725   0.83334   0.45284   0.00000  Uiso   1.00
O980   O     0.90942   0.83333   0.54716   0.00000  Uiso   1.00
Zn981  Zn    0.83333   0.83333   0.55104   0.00000  Uiso   1.00
Zn982  Zn    0.83333   0.83334   0.44896   0.00000  Uiso   1.00
C983   C     0.82831   0.70167   0.41400   0.00000  Uiso   1.00
N984   N     0.83234   0.71411   0.37877   0.00000  Uiso   1.00
C985   C     0.83836   0.96500   0.58601   0.00000  Uiso   1.00
N986   N     0.83433   0.95255   0.62123   0.00000  Uiso   1.00
C987   C     0.77940   0.95502   0.42182   0.00000  Uiso   1.00
N988   N     0.75401   0.93763   0.39110   0.00000  Uiso   1.00
C989   C     0.88727   0.71164   0.57818   0.00000  Uiso   1.00
N990   N     0.91265   0.72903   0.60890   0.00000  Uiso   1.00
C991   C     0.90901   0.88900   0.39098   0.00000  Uiso   1.00
C992   C     0.90110   0.93481   0.38187   0.00000  Uiso   1.00
H993   H     0.91998   0.94488   0.35264   0.00000  Uiso   1.00
H994   H     0.85871   0.94042   0.37567   0.00000  Uiso   1.00
H995   H     0.91960   0.95460   0.41164   0.00000  Uiso   1.00
H996   H     0.90712   0.88651   0.42668   0.00000  Uiso   1.00
H997   H     0.94957   0.88164   0.38600   0.00000  Uiso   1.00
C998   C     0.75766   0.77767   0.60902   0.00000  Uiso   1.00
C999   C     0.76557   0.73185   0.61813   0.00000  Uiso   1.00
H1000  H     0.80796   0.72624   0.62433   0.00000  Uiso   1.00
H1001  H     0.74668   0.72178   0.64736   0.00000  Uiso   1.00
H1002  H     0.74707   0.71207   0.58836   0.00000  Uiso   1.00
H1003  H     0.71710   0.78503   0.61400   0.00000  Uiso   1.00
H1004  H     0.75955   0.78016   0.57332   0.00000  Uiso   1.00
C1005  C     0.90992   0.88088   0.62798   0.00000  Uiso   1.00
N1006  N     0.94242   0.89968   0.61275   0.00000  Uiso   1.00
C1007  C     0.75674   0.78578   0.37202   0.00000  Uiso   1.00
N1008  N     0.72424   0.76699   0.38725   0.00000  Uiso   1.00
C1009  C     0.17071   0.08696   0.83297   0.00000  Uiso   1.00
C1010  C     0.16262   0.24637   0.83370   0.00000  Uiso   1.00
C1011  C     0.06723   0.16647   0.82153   0.00000  Uiso   1.00
C1012  C     0.26610   0.16686   0.84514   0.00000  Uiso   1.00
C1013  C     0.01217   0.16630   0.81520   0.00000  Uiso   1.00
C1014  C     0.32116   0.16703   0.85147   0.00000  Uiso   1.00
C1015  C     0.15819   0.01877   0.79146   0.00000  Uiso   1.00
C1016  C     0.17515   0.31456   0.87521   0.00000  Uiso   1.00
C1017  C     0.14438   0.31028   0.79386   0.00000  Uiso   1.00
C1018  C     0.18895   0.02305   0.87281   0.00000  Uiso   1.00
C1019  C     0.15783   0.29083   0.83487   0.00000  Uiso   1.00
C1020  C     0.17551   0.04251   0.83179   0.00000  Uiso   1.00
C1021  C     0.20237   0.19233   0.69524   0.00000  Uiso   1.00
C1022  C     0.13097   0.14100   0.97143   0.00000  Uiso   1.00
C1023  C     0.20296   0.19093   0.98069   0.00000  Uiso   1.00
C1024  C     0.13037   0.14241   0.68597   0.00000  Uiso   1.00
H1025  H     0.32516   0.16549   0.78069   0.00000  Uiso   1.00
H1026  H     0.00817   0.16785   0.88597   0.00000  Uiso   1.00
N1027  N     0.16665   0.16666   0.95240   0.00000  Uiso   1.00
N1028  N     0.16668   0.16668   0.71427   0.00000  Uiso   1.00
O1029  O     0.16666   0.10558   0.87154   0.00000  Uiso   1.00
O1030  O     0.16667   0.22775   0.79513   0.00000  Uiso   1.00
O1031  O     0.16666   0.10559   0.79510   0.00000  Uiso   1.00
O1032  O     0.16667   0.22774   0.87157   0.00000  Uiso   1.00
O1033  O     0.09058   0.16666   0.86261   0.00000  Uiso   1.00
O1034  O     0.24275   0.16667   0.80405   0.00000  Uiso   1.00
O1035  O     0.09058   0.16667   0.78617   0.00000  Uiso   1.00
O1036  O     0.24275   0.16666   0.88050   0.00000  Uiso   1.00
Zn1037 Zn    0.16667   0.16666   0.88437   0.00000  Uiso   1.00
Zn1038 Zn    0.16667   0.16667   0.78229   0.00000  Uiso   1.00
C1039  C     0.16164   0.03500   0.74733   0.00000  Uiso   1.00
N1040  N     0.16567   0.04745   0.71210   0.00000  Uiso   1.00
C1041  C     0.17169   0.29833   0.91934   0.00000  Uiso   1.00
N1042  N     0.16766   0.28589   0.95457   0.00000  Uiso   1.00
C1043  C     0.11273   0.28836   0.75515   0.00000  Uiso   1.00
N1044  N     0.08735   0.27097   0.72443   0.00000  Uiso   1.00
C1045  C     0.22060   0.04498   0.91151   0.00000  Uiso   1.00
N1046  N     0.24599   0.06237   0.94223   0.00000  Uiso   1.00
C1047  C     0.24234   0.22233   0.72431   0.00000  Uiso   1.00
C1048  C     0.23443   0.26815   0.71520   0.00000  Uiso   1.00
H1049  H     0.25332   0.27822   0.68597   0.00000  Uiso   1.00
H1050  H     0.19205   0.27376   0.70900   0.00000  Uiso   1.00
H1051  H     0.25294   0.28793   0.74497   0.00000  Uiso   1.00
H1052  H     0.24045   0.21984   0.76001   0.00000  Uiso   1.00
H1053  H     0.28290   0.21497   0.71933   0.00000  Uiso   1.00
C1054  C     0.09099   0.11100   0.94236   0.00000  Uiso   1.00
C1055  C     0.09890   0.06519   0.95146   0.00000  Uiso   1.00
H1056  H     0.14129   0.05958   0.95767   0.00000  Uiso   1.00
H1057  H     0.08002   0.05512   0.98069   0.00000  Uiso   1.00
H1058  H     0.08040   0.04540   0.92169   0.00000  Uiso   1.00
H1059  H     0.05043   0.11836   0.94734   0.00000  Uiso   1.00
H1060  H     0.09288   0.11349   0.90666   0.00000  Uiso   1.00
C1061  C     0.24326   0.21422   0.96131   0.00000  Uiso   1.00
N1062  N     0.27576   0.23301   0.94608   0.00000  Uiso   1.00
C1063  C     0.09008   0.11912   0.70535   0.00000  Uiso   1.00
N1064  N     0.05758   0.10032   0.72058   0.00000  Uiso   1.00
C1065  C     0.50405   0.08696   0.83297   0.00000  Uiso   1.00
C1066  C     0.49596   0.24637   0.83370   0.00000  Uiso   1.00
C1067  C     0.40056   0.16647   0.82153   0.00000  Uiso   1.00
C1068  C     0.59944   0.16686   0.84514   0.00000  Uiso   1.00
C1069  C     0.34551   0.16630   0.81520   0.00000  Uiso   1.00
C1070  C     0.65449   0.16703   0.85147   0.00000  Uiso   1.00
C1071  C     0.49152   0.01877   0.79146   0.00000  Uiso   1.00
C1072  C     0.50848   0.31456   0.87521   0.00000  Uiso   1.00
C1073  C     0.47772   0.31028   0.79386   0.00000  Uiso   1.00
C1074  C     0.52228   0.02305   0.87281   0.00000  Uiso   1.00
C1075  C     0.49116   0.29083   0.83487   0.00000  Uiso   1.00
C1076  C     0.50884   0.04251   0.83179   0.00000  Uiso   1.00
C1077  C     0.53570   0.19233   0.69524   0.00000  Uiso   1.00
C1078  C     0.46430   0.14100   0.97143   0.00000  Uiso   1.00
C1079  C     0.53629   0.19093   0.98069   0.00000  Uiso   1.00
C1080  C     0.46371   0.14241   0.68597   0.00000  Uiso   1.00
H1081  H     0.65850   0.16549   0.78069   0.00000  Uiso   1.00
H1082  H     0.34150   0.16785   0.88597   0.00000  Uiso   1.00
N1083  N     0.49999   0.16666   0.95240   0.00000  Uiso   1.00
N1084  N     0.50001   0.16668   0.71427   0.00000  Uiso   1.00
O1085  O     0.50000   0.10558   0.87154   0.00000  Uiso   1.00
O1086  O     0.50000   0.22775   0.79513   0.00000  Uiso   1.00
O1087  O     0.50000   0.10559   0.79510   0.00000  Uiso   1.00
O1088  O     0.50000   0.22774   0.87157   0.00000  Uiso   1.00
O1089  O     0.42392   0.16666   0.86261   0.00000  Uiso   1.00
O1090  O     0.57608   0.16667   0.80405   0.00000  Uiso   1.00
O1091  O     0.42392   0.16667   0.78617   0.00000  Uiso   1.00
O1092  O     0.57608   0.16666   0.88050   0.00000  Uiso   1.00
Zn1093 Zn    0.50000   0.16666   0.88437   0.00000  Uiso   1.00
Zn1094 Zn    0.50000   0.16667   0.78229   0.00000  Uiso   1.00
C1095  C     0.49498   0.03500   0.74733   0.00000  Uiso   1.00
N1096  N     0.49900   0.04745   0.71210   0.00000  Uiso   1.00
C1097  C     0.50502   0.29833   0.91934   0.00000  Uiso   1.00
N1098  N     0.50100   0.28589   0.95457   0.00000  Uiso   1.00
C1099  C     0.44606   0.28836   0.75515   0.00000  Uiso   1.00
N1100  N     0.42068   0.27097   0.72443   0.00000  Uiso   1.00
C1101  C     0.55394   0.04498   0.91151   0.00000  Uiso   1.00
N1102  N     0.57932   0.06237   0.94223   0.00000  Uiso   1.00
C1103  C     0.57568   0.22233   0.72431   0.00000  Uiso   1.00
C1104  C     0.56776   0.26815   0.71520   0.00000  Uiso   1.00
H1105  H     0.58665   0.27822   0.68597   0.00000  Uiso   1.00
H1106  H     0.52538   0.27376   0.70900   0.00000  Uiso   1.00
H1107  H     0.58627   0.28793   0.74497   0.00000  Uiso   1.00
H1108  H     0.57378   0.21984   0.76001   0.00000  Uiso   1.00
H1109  H     0.61623   0.21497   0.71933   0.00000  Uiso   1.00
C1110  C     0.42432   0.11100   0.94236   0.00000  Uiso   1.00
C1111  C     0.43224   0.06519   0.95146   0.00000  Uiso   1.00
H1112  H     0.47462   0.05958   0.95767   0.00000  Uiso   1.00
H1113  H     0.41335   0.05512   0.98069   0.00000  Uiso   1.00
H1114  H     0.41373   0.04540   0.92169   0.00000  Uiso   1.00
H1115  H     0.38377   0.11836   0.94734   0.00000  Uiso   1.00
H1116  H     0.42622   0.11349   0.90666   0.00000  Uiso   1.00
C1117  C     0.57659   0.21422   0.96131   0.00000  Uiso   1.00
N1118  N     0.60909   0.23301   0.94608   0.00000  Uiso   1.00
C1119  C     0.42341   0.11912   0.70535   0.00000  Uiso   1.00
N1120  N     0.39091   0.10032   0.72058   0.00000  Uiso   1.00
C1121  C     0.83738   0.08696   0.83297   0.00000  Uiso   1.00
C1122  C     0.82929   0.24637   0.83370   0.00000  Uiso   1.00
C1123  C     0.73390   0.16647   0.82153   0.00000  Uiso   1.00
C1124  C     0.93277   0.16686   0.84514   0.00000  Uiso   1.00
C1125  C     0.67884   0.16630   0.81520   0.00000  Uiso   1.00
C1126  C     0.98783   0.16703   0.85147   0.00000  Uiso   1.00
C1127  C     0.82485   0.01877   0.79146   0.00000  Uiso   1.00
C1128  C     0.84182   0.31456   0.87521   0.00000  Uiso   1.00
C1129  C     0.81105   0.31028   0.79386   0.00000  Uiso   1.00
C1130  C     0.85562   0.02305   0.87281   0.00000  Uiso   1.00
C1131  C     0.82449   0.29083   0.83487   0.00000  Uiso   1.00
C1132  C     0.84217   0.04251   0.83179   0.00000  Uiso   1.00
C1133  C     0.86903   0.19233   0.69524   0.00000  Uiso   1.00
C1134  C     0.79763   0.14100   0.97143   0.00000  Uiso   1.00
C1135  C     0.86963   0.19093   0.98069   0.00000  Uiso   1.00
C1136  C     0.79704   0.14241   0.68597   0.00000  Uiso   1.00
H1137  H     0.99183   0.16549   0.78069   0.00000  Uiso   1.00
H1138  H     0.67484   0.16785   0.88597   0.00000  Uiso   1.00
N1139  N     0.83332   0.16666   0.95240   0.00000  Uiso   1.00
N1140  N     0.83335   0.16668   0.71427   0.00000  Uiso   1.00
O1141  O     0.83333   0.10558   0.87154   0.00000  Uiso   1.00
O1142  O     0.83334   0.22775   0.79513   0.00000  Uiso   1.00
O1143  O     0.83333   0.10559   0.79510   0.00000  Uiso   1.00
O1144  O     0.83334   0.22774   0.87157   0.00000  Uiso   1.00
O1145  O     0.75725   0.16666   0.86261   0.00000  Uiso   1.00
O1146  O     0.90942   0.16667   0.80405   0.00000  Uiso   1.00
O1147  O     0.75725   0.16667   0.78617   0.00000  Uiso   1.00
O1148  O     0.90942   0.16666   0.88050   0.00000  Uiso   1.00
Zn1149 Zn    0.83333   0.16666   0.88437   0.00000  Uiso   1.00
Zn1150 Zn    0.83333   0.16667   0.78229   0.00000  Uiso   1.00
C1151  C     0.82831   0.03500   0.74733   0.00000  Uiso   1.00
N1152  N     0.83234   0.04745   0.71210   0.00000  Uiso   1.00
C1153  C     0.83836   0.29833   0.91934   0.00000  Uiso   1.00
N1154  N     0.83433   0.28589   0.95457   0.00000  Uiso   1.00
C1155  C     0.77940   0.28836   0.75515   0.00000  Uiso   1.00
N1156  N     0.75401   0.27097   0.72443   0.00000  Uiso   1.00
C1157  C     0.88727   0.04498   0.91151   0.00000  Uiso   1.00
N1158  N     0.91265   0.06237   0.94223   0.00000  Uiso   1.00
C1159  C     0.90901   0.22233   0.72431   0.00000  Uiso   1.00
C1160  C     0.90110   0.26815   0.71520   0.00000  Uiso   1.00
H1161  H     0.91998   0.27822   0.68597   0.00000  Uiso   1.00
H1162  H     0.85871   0.27376   0.70900   0.00000  Uiso   1.00
H1163  H     0.91960   0.28793   0.74497   0.00000  Uiso   1.00
H1164  H     0.90712   0.21984   0.76001   0.00000  Uiso   1.00
H1165  H     0.94957   0.21497   0.71933   0.00000  Uiso   1.00
C1166  C     0.75766   0.11100   0.94236   0.00000  Uiso   1.00
C1167  C     0.76557   0.06519   0.95146   0.00000  Uiso   1.00
H1168  H     0.80796   0.05958   0.95767   0.00000  Uiso   1.00
H1169  H     0.74668   0.05512   0.98069   0.00000  Uiso   1.00
H1170  H     0.74707   0.04540   0.92169   0.00000  Uiso   1.00
H1171  H     0.71710   0.11836   0.94734   0.00000  Uiso   1.00
H1172  H     0.75955   0.11349   0.90666   0.00000  Uiso   1.00
C1173  C     0.90992   0.21422   0.96131   0.00000  Uiso   1.00
N1174  N     0.94242   0.23301   0.94608   0.00000  Uiso   1.00
C1175  C     0.75674   0.11912   0.70535   0.00000  Uiso   1.00
N1176  N     0.72424   0.10032   0.72058   0.00000  Uiso   1.00
C1177  C     0.17071   0.42029   0.83297   0.00000  Uiso   1.00
C1178  C     0.16262   0.57971   0.83370   0.00000  Uiso   1.00
C1179  C     0.06723   0.49981   0.82153   0.00000  Uiso   1.00
C1180  C     0.26610   0.50019   0.84514   0.00000  Uiso   1.00
C1181  C     0.01217   0.49963   0.81520   0.00000  Uiso   1.00
C1182  C     0.32116   0.50037   0.85147   0.00000  Uiso   1.00
C1183  C     0.15819   0.35210   0.79146   0.00000  Uiso   1.00
C1184  C     0.17515   0.64790   0.87521   0.00000  Uiso   1.00
C1185  C     0.14438   0.64362   0.79386   0.00000  Uiso   1.00
C1186  C     0.18895   0.35638   0.87281   0.00000  Uiso   1.00
C1187  C     0.15783   0.62416   0.83487   0.00000  Uiso   1.00
C1188  C     0.17551   0.37584   0.83179   0.00000  Uiso   1.00
C1189  C     0.20237   0.52566   0.69524   0.00000  Uiso   1.00
C1190  C     0.13097   0.47434   0.97143   0.00000  Uiso   1.00
C1191  C     0.20296   0.52426   0.98069   0.00000  Uiso   1.00
C1192  C     0.13037   0.47574   0.68597   0.00000  Uiso   1.00
H1193  H     0.32516   0.49882   0.78069   0.00000  Uiso   1.00
H1194  H     0.00817   0.50118   0.88597   0.00000  Uiso   1.00
N1195  N     0.16665   0.49999   0.95240   0.00000  Uiso   1.00
N1196  N     0.16668   0.50001   0.71427   0.00000  Uiso   1.00
O1197  O     0.16666   0.43892   0.87154   0.00000  Uiso   1.00
O1198  O     0.16667   0.56108   0.79513   0.00000  Uiso   1.00
O1199  O     0.16666   0.43893   0.79510   0.00000  Uiso   1.00
O1200  O     0.16667   0.56107   0.87157   0.00000  Uiso   1.00
O1201  O     0.09058   0.50000   0.86261   0.00000  Uiso   1.00
O1202  O     0.24275   0.50000   0.80405   0.00000  Uiso   1.00
O1203  O     0.09058   0.50000   0.78617   0.00000  Uiso   1.00
O1204  O     0.24275   0.50000   0.88050   0.00000  Uiso   1.00
Zn1205 Zn    0.16667   0.49999   0.88437   0.00000  Uiso   1.00
Zn1206 Zn    0.16667   0.50001   0.78229   0.00000  Uiso   1.00
C1207  C     0.16164   0.36833   0.74733   0.00000  Uiso   1.00
N1208  N     0.16567   0.38078   0.71210   0.00000  Uiso   1.00
C1209  C     0.17169   0.63167   0.91934   0.00000  Uiso   1.00
N1210  N     0.16766   0.61922   0.95457   0.00000  Uiso   1.00
C1211  C     0.11273   0.62169   0.75515   0.00000  Uiso   1.00
N1212  N     0.08735   0.60430   0.72443   0.00000  Uiso   1.00
C1213  C     0.22060   0.37831   0.91151   0.00000  Uiso   1.00
N1214  N     0.24599   0.39570   0.94223   0.00000  Uiso   1.00
C1215  C     0.24234   0.55566   0.72431   0.00000  Uiso   1.00
C1216  C     0.23443   0.60148   0.71520   0.00000  Uiso   1.00
H1217  H     0.25332   0.61155   0.68597   0.00000  Uiso   1.00
H1218  H     0.19205   0.60709   0.70900   0.00000  Uiso   1.00
H1219  H     0.25294   0.62126   0.74497   0.00000  Uiso   1.00
H1220  H     0.24045   0.55318   0.76001   0.00000  Uiso   1.00
H1221  H     0.28290   0.54830   0.71933   0.00000  Uiso   1.00
C1222  C     0.09099   0.44434   0.94236   0.00000  Uiso   1.00
C1223  C     0.09890   0.39852   0.95146   0.00000  Uiso   1.00
H1224  H     0.14129   0.39291   0.95767   0.00000  Uiso   1.00
H1225  H     0.08002   0.38845   0.98069   0.00000  Uiso   1.00
H1226  H     0.08040   0.37874   0.92169   0.00000  Uiso   1.00
H1227  H     0.05043   0.45170   0.94734   0.00000  Uiso   1.00
H1228  H     0.09288   0.44682   0.90666   0.00000  Uiso   1.00
C1229  C     0.24326   0.54755   0.96131   0.00000  Uiso   1.00
N1230  N     0.27576   0.56635   0.94608   0.00000  Uiso   1.00
C1231  C     0.09008   0.45245   0.70535   0.00000  Uiso   1.00
N1232  N     0.05758   0.43365   0.72058   0.00000  Uiso   1.00
C1233  C     0.50405   0.42029   0.83297   0.00000  Uiso   1.00
C1234  C     0.49596   0.57971   0.83370   0.00000  Uiso   1.00
C1235  C     0.40056   0.49981   0.82153   0.00000  Uiso   1.00
C1236  C     0.59944   0.50019   0.84514   0.00000  Uiso   1.00
C1237  C     0.34551   0.49963   0.81520   0.00000  Uiso   1.00
C1238  C     0.65449   0.50037   0.85147   0.00000  Uiso   1.00
C1239  C     0.49152   0.35210   0.79146   0.00000  Uiso   1.00
C1240  C     0.50848   0.64790   0.87521   0.00000  Uiso   1.00
C1241  C     0.47772   0.64362   0.79386   0.00000  Uiso   1.00
C1242  C     0.52228   0.35638   0.87281   0.00000  Uiso   1.00
C1243  C     0.49116   0.62416   0.83487   0.00000  Uiso   1.00
C1244  C     0.50884   0.37584   0.83179   0.00000  Uiso   1.00
C1245  C     0.53570   0.52566   0.69524   0.00000  Uiso   1.00
C1246  C     0.46430   0.47434   0.97143   0.00000  Uiso   1.00
C1247  C     0.53629   0.52426   0.98069   0.00000  Uiso   1.00
C1248  C     0.46371   0.47574   0.68597   0.00000  Uiso   1.00
H1249  H     0.65850   0.49882   0.78069   0.00000  Uiso   1.00
H1250  H     0.34150   0.50118   0.88597   0.00000  Uiso   1.00
N1251  N     0.49999   0.49999   0.95240   0.00000  Uiso   1.00
N1252  N     0.50001   0.50001   0.71427   0.00000  Uiso   1.00
O1253  O     0.50000   0.43892   0.87154   0.00000  Uiso   1.00
O1254  O     0.50000   0.56108   0.79513   0.00000  Uiso   1.00
O1255  O     0.50000   0.43893   0.79510   0.00000  Uiso   1.00
O1256  O     0.50000   0.56107   0.87157   0.00000  Uiso   1.00
O1257  O     0.42392   0.50000   0.86261   0.00000  Uiso   1.00
O1258  O     0.57608   0.50000   0.80405   0.00000  Uiso   1.00
O1259  O     0.42392   0.50000   0.78617   0.00000  Uiso   1.00
O1260  O     0.57608   0.50000   0.88050   0.00000  Uiso   1.00
Zn1261 Zn    0.50000   0.49999   0.88437   0.00000  Uiso   1.00
Zn1262 Zn    0.50000   0.50001   0.78229   0.00000  Uiso   1.00
C1263  C     0.49498   0.36833   0.74733   0.00000  Uiso   1.00
N1264  N     0.49900   0.38078   0.71210   0.00000  Uiso   1.00
C1265  C     0.50502   0.63167   0.91934   0.00000  Uiso   1.00
N1266  N     0.50100   0.61922   0.95457   0.00000  Uiso   1.00
C1267  C     0.44606   0.62169   0.75515   0.00000  Uiso   1.00
N1268  N     0.42068   0.60430   0.72443   0.00000  Uiso   1.00
C1269  C     0.55394   0.37831   0.91151   0.00000  Uiso   1.00
N1270  N     0.57932   0.39570   0.94223   0.00000  Uiso   1.00
C1271  C     0.57568   0.55566   0.72431   0.00000  Uiso   1.00
C1272  C     0.56776   0.60148   0.71520   0.00000  Uiso   1.00
H1273  H     0.58665   0.61155   0.68597   0.00000  Uiso   1.00
H1274  H     0.52538   0.60709   0.70900   0.00000  Uiso   1.00
H1275  H     0.58627   0.62126   0.74497   0.00000  Uiso   1.00
H1276  H     0.57378   0.55318   0.76001   0.00000  Uiso   1.00
H1277  H     0.61623   0.54830   0.71933   0.00000  Uiso   1.00
C1278  C     0.42432   0.44434   0.94236   0.00000  Uiso   1.00
C1279  C     0.43224   0.39852   0.95146   0.00000  Uiso   1.00
H1280  H     0.47462   0.39291   0.95767   0.00000  Uiso   1.00
H1281  H     0.41335   0.38845   0.98069   0.00000  Uiso   1.00
H1282  H     0.41373   0.37874   0.92169   0.00000  Uiso   1.00
H1283  H     0.38377   0.45170   0.94734   0.00000  Uiso   1.00
H1284  H     0.42622   0.44682   0.90666   0.00000  Uiso   1.00
C1285  C     0.57659   0.54755   0.96131   0.00000  Uiso   1.00
N1286  N     0.60909   0.56635   0.94608   0.00000  Uiso   1.00
C1287  C     0.42341   0.45245   0.70535   0.00000  Uiso   1.00
N1288  N     0.39091   0.43365   0.72058   0.00000  Uiso   1.00
C1289  C     0.83738   0.42029   0.83297   0.00000  Uiso   1.00
C1290  C     0.82929   0.57971   0.83370   0.00000  Uiso   1.00
C1291  C     0.73390   0.49981   0.82153   0.00000  Uiso   1.00
C1292  C     0.93277   0.50019   0.84514   0.00000  Uiso   1.00
C1293  C     0.67884   0.49963   0.81520   0.00000  Uiso   1.00
C1294  C     0.98783   0.50037   0.85147   0.00000  Uiso   1.00
C1295  C     0.82485   0.35210   0.79146   0.00000  Uiso   1.00
C1296  C     0.84182   0.64790   0.87521   0.00000  Uiso   1.00
C1297  C     0.81105   0.64362   0.79386   0.00000  Uiso   1.00
C1298  C     0.85562   0.35638   0.87281   0.00000  Uiso   1.00
C1299  C     0.82449   0.62416   0.83487   0.00000  Uiso   1.00
C1300  C     0.84217   0.37584   0.83179   0.00000  Uiso   1.00
C1301  C     0.86903   0.52566   0.69524   0.00000  Uiso   1.00
C1302  C     0.79763   0.47434   0.97143   0.00000  Uiso   1.00
C1303  C     0.86963   0.52426   0.98069   0.00000  Uiso   1.00
C1304  C     0.79704   0.47574   0.68597   0.00000  Uiso   1.00
H1305  H     0.99183   0.49882   0.78069   0.00000  Uiso   1.00
H1306  H     0.67484   0.50118   0.88597   0.00000  Uiso   1.00
N1307  N     0.83332   0.49999   0.95240   0.00000  Uiso   1.00
N1308  N     0.83335   0.50001   0.71427   0.00000  Uiso   1.00
O1309  O     0.83333   0.43892   0.87154   0.00000  Uiso   1.00
O1310  O     0.83334   0.56108   0.79513   0.00000  Uiso   1.00
O1311  O     0.83333   0.43893   0.79510   0.00000  Uiso   1.00
O1312  O     0.83334   0.56107   0.87157   0.00000  Uiso   1.00
O1313  O     0.75725   0.50000   0.86261   0.00000  Uiso   1.00
O1314  O     0.90942   0.50000   0.80405   0.00000  Uiso   1.00
O1315  O     0.75725   0.50000   0.78617   0.00000  Uiso   1.00
O1316  O     0.90942   0.50000   0.88050   0.00000  Uiso   1.00
Zn1317 Zn    0.83333   0.49999   0.88437   0.00000  Uiso   1.00
Zn1318 Zn    0.83333   0.50001   0.78229   0.00000  Uiso   1.00
C1319  C     0.82831   0.36833   0.74733   0.00000  Uiso   1.00
N1320  N     0.83234   0.38078   0.71210   0.00000  Uiso   1.00
C1321  C     0.83836   0.63167   0.91934   0.00000  Uiso   1.00
N1322  N     0.83433   0.61922   0.95457   0.00000  Uiso   1.00
C1323  C     0.77940   0.62169   0.75515   0.00000  Uiso   1.00
N1324  N     0.75401   0.60430   0.72443   0.00000  Uiso   1.00
C1325  C     0.88727   0.37831   0.91151   0.00000  Uiso   1.00
N1326  N     0.91265   0.39570   0.94223   0.00000  Uiso   1.00
C1327  C     0.90901   0.55566   0.72431   0.00000  Uiso   1.00
C1328  C     0.90110   0.60148   0.71520   0.00000  Uiso   1.00
H1329  H     0.91998   0.61155   0.68597   0.00000  Uiso   1.00
H1330  H     0.85871   0.60709   0.70900   0.00000  Uiso   1.00
H1331  H     0.91960   0.62126   0.74497   0.00000  Uiso   1.00
H1332  H     0.90712   0.55318   0.76001   0.00000  Uiso   1.00
H1333  H     0.94957   0.54830   0.71933   0.00000  Uiso   1.00
C1334  C     0.75766   0.44434   0.94236   0.00000  Uiso   1.00
C1335  C     0.76557   0.39852   0.95146   0.00000  Uiso   1.00
H1336  H     0.80796   0.39291   0.95767   0.00000  Uiso   1.00
H1337  H     0.74668   0.38845   0.98069   0.00000  Uiso   1.00
H1338  H     0.74707   0.37874   0.92169   0.00000  Uiso   1.00
H1339  H     0.71710   0.45170   0.94734   0.00000  Uiso   1.00
H1340  H     0.75955   0.44682   0.90666   0.00000  Uiso   1.00
C1341  C     0.90992   0.54755   0.96131   0.00000  Uiso   1.00
N1342  N     0.94242   0.56635   0.94608   0.00000  Uiso   1.00
C1343  C     0.75674   0.45245   0.70535   0.00000  Uiso   1.00
N1344  N     0.72424   0.43365   0.72058   0.00000  Uiso   1.00
C1345  C     0.17071   0.75363   0.83297   0.00000  Uiso   1.00
C1346  C     0.16262   0.91304   0.83370   0.00000  Uiso   1.00
C1347  C     0.06723   0.83314   0.82153   0.00000  Uiso   1.00
C1348  C     0.26610   0.83353   0.84514   0.00000  Uiso   1.00
C1349  C     0.01217   0.83297   0.81520   0.00000  Uiso   1.00
C1350  C     0.32116   0.83370   0.85147   0.00000  Uiso   1.00
C1351  C     0.15819   0.68544   0.79146   0.00000  Uiso   1.00
C1352  C     0.17515   0.98123   0.87521   0.00000  Uiso   1.00
C1353  C     0.14438   0.97695   0.79386   0.00000  Uiso   1.00
C1354  C     0.18895   0.68972   0.87281   0.00000  Uiso   1.00
C1355  C     0.15783   0.95749   0.83487   0.00000  Uiso   1.00
C1356  C     0.17551   0.70917   0.83179   0.00000  Uiso   1.00
C1357  C     0.20237   0.85900   0.69524   0.00000  Uiso   1.00
C1358  C     0.13097   0.80767   0.97143   0.00000  Uiso   1.00
C1359  C     0.20296   0.85759   0.98069   0.00000  Uiso   1.00
C1360  C     0.13037   0.80907   0.68597   0.00000  Uiso   1.00
H1361  H     0.32516   0.83215   0.78069   0.00000  Uiso   1.00
H1362  H     0.00817   0.83451   0.88597   0.00000  Uiso   1.00
N1363  N     0.16665   0.83332   0.95240   0.00000  Uiso   1.00
N1364  N     0.16668   0.83334   0.71427   0.00000  Uiso   1.00
O1365  O     0.16666   0.77225   0.87154   0.00000  Uiso   1.00
O1366  O     0.16667   0.89442   0.79513   0.00000  Uiso   1.00
O1367  O     0.16666   0.77226   0.79510   0.00000  Uiso   1.00
O1368  O     0.16667   0.89441   0.87157   0.00000  Uiso   1.00
O1369  O     0.09058   0.83333   0.86261   0.00000  Uiso   1.00
O1370  O     0.24275   0.83334   0.80405   0.00000  Uiso   1.00
O1371  O     0.09058   0.83334   0.78617   0.00000  Uiso   1.00
O1372  O     0.24275   0.83333   0.88050   0.00000  Uiso   1.00
Zn1373 Zn    0.16667   0.83333   0.88437   0.00000  Uiso   1.00
Zn1374 Zn    0.16667   0.83334   0.78229   0.00000  Uiso   1.00
C1375  C     0.16164   0.70167   0.74733   0.00000  Uiso   1.00
N1376  N     0.16567   0.71411   0.71210   0.00000  Uiso   1.00
C1377  C     0.17169   0.96500   0.91934   0.00000  Uiso   1.00
N1378  N     0.16766   0.95255   0.95457   0.00000  Uiso   1.00
C1379  C     0.11273   0.95502   0.75515   0.00000  Uiso   1.00
N1380  N     0.08735   0.93763   0.72443   0.00000  Uiso   1.00
C1381  C     0.22060   0.71164   0.91151   0.00000  Uiso   1.00
N1382  N     0.24599   0.72903   0.94223   0.00000  Uiso   1.00
C1383  C     0.24234   0.88900   0.72431   0.00000  Uiso   1.00
C1384  C     0.23443   0.93481   0.71520   0.00000  Uiso   1.00
H1385  H     0.25332   0.94488   0.68597   0.00000  Uiso   1.00
H1386  H     0.19205   0.94042   0.70900   0.00000  Uiso   1.00
H1387  H     0.25294   0.95460   0.74497   0.00000  Uiso   1.00
H1388  H     0.24045   0.88651   0.76001   0.00000  Uiso   1.00
H1389  H     0.28290   0.88164   0.71933   0.00000  Uiso   1.00
C1390  C     0.09099   0.77767   0.94236   0.00000  Uiso   1.00
C1391  C     0.09890   0.73185   0.95146   0.00000  Uiso   1.00
H1392  H     0.14129   0.72624   0.95767   0.00000  Uiso   1.00
H1393  H     0.08002   0.72178   0.98069   0.00000  Uiso   1.00
H1394  H     0.08040   0.71207   0.92169   0.00000  Uiso   1.00
H1395  H     0.05043   0.78503   0.94734   0.00000  Uiso   1.00
H1396  H     0.09288   0.78016   0.90666   0.00000  Uiso   1.00
C1397  C     0.24326   0.88088   0.96131   0.00000  Uiso   1.00
N1398  N     0.27576   0.89968   0.94608   0.00000  Uiso   1.00
C1399  C     0.09008   0.78578   0.70535   0.00000  Uiso   1.00
N1400  N     0.05758   0.76699   0.72058   0.00000  Uiso   1.00
C1401  C     0.50405   0.75363   0.83297   0.00000  Uiso   1.00
C1402  C     0.49596   0.91304   0.83370   0.00000  Uiso   1.00
C1403  C     0.40056   0.83314   0.82153   0.00000  Uiso   1.00
C1404  C     0.59944   0.83353   0.84514   0.00000  Uiso   1.00
C1405  C     0.34551   0.83297   0.81520   0.00000  Uiso   1.00
C1406  C     0.65449   0.83370   0.85147   0.00000  Uiso   1.00
C1407  C     0.49152   0.68544   0.79146   0.00000  Uiso   1.00
C1408  C     0.50848   0.98123   0.87521   0.00000  Uiso   1.00
C1409  C     0.47772   0.97695   0.79386   0.00000  Uiso   1.00
C1410  C     0.52228   0.68972   0.87281   0.00000  Uiso   1.00
C1411  C     0.49116   0.95749   0.83487   0.00000  Uiso   1.00
C1412  C     0.50884   0.70917   0.83179   0.00000  Uiso   1.00
C1413  C     0.53570   0.85900   0.69524   0.00000  Uiso   1.00
C1414  C     0.46430   0.80767   0.97143   0.00000  Uiso   1.00
C1415  C     0.53629   0.85759   0.98069   0.00000  Uiso   1.00
C1416  C     0.46371   0.80907   0.68597   0.00000  Uiso   1.00
H1417  H     0.65850   0.83215   0.78069   0.00000  Uiso   1.00
H1418  H     0.34150   0.83451   0.88597   0.00000  Uiso   1.00
N1419  N     0.49999   0.83332   0.95240   0.00000  Uiso   1.00
N1420  N     0.50001   0.83334   0.71427   0.00000  Uiso   1.00
O1421  O     0.50000   0.77225   0.87154   0.00000  Uiso   1.00
O1422  O     0.50000   0.89442   0.79513   0.00000  Uiso   1.00
O1423  O     0.50000   0.77226   0.79510   0.00000  Uiso   1.00
O1424  O     0.50000   0.89441   0.87157   0.00000  Uiso   1.00
O1425  O     0.42392   0.83333   0.86261   0.00000  Uiso   1.00
O1426  O     0.57608   0.83334   0.80405   0.00000  Uiso   1.00
O1427  O     0.42392   0.83334   0.78617   0.00000  Uiso   1.00
O1428  O     0.57608   0.83333   0.88050   0.00000  Uiso   1.00
Zn1429 Zn    0.50000   0.83333   0.88437   0.00000  Uiso   1.00
Zn1430 Zn    0.50000   0.83334   0.78229   0.00000  Uiso   1.00
C1431  C     0.49498   0.70167   0.74733   0.00000  Uiso   1.00
N1432  N     0.49900   0.71411   0.71210   0.00000  Uiso   1.00
C1433  C     0.50502   0.96500   0.91934   0.00000  Uiso   1.00
N1434  N     0.50100   0.95255   0.95457   0.00000  Uiso   1.00
C1435  C     0.44606   0.95502   0.75515   0.00000  Uiso   1.00
N1436  N     0.42068   0.93763   0.72443   0.00000  Uiso   1.00
C1437  C     0.55394   0.71164   0.91151   0.00000  Uiso   1.00
N1438  N     0.57932   0.72903   0.94223   0.00000  Uiso   1.00
C1439  C     0.57568   0.88900   0.72431   0.00000  Uiso   1.00
C1440  C     0.56776   0.93481   0.71520   0.00000  Uiso   1.00
H1441  H     0.58665   0.94488   0.68597   0.00000  Uiso   1.00
H1442  H     0.52538   0.94042   0.70900   0.00000  Uiso   1.00
H1443  H     0.58627   0.95460   0.74497   0.00000  Uiso   1.00
H1444  H     0.57378   0.88651   0.76001   0.00000  Uiso   1.00
H1445  H     0.61623   0.88164   0.71933   0.00000  Uiso   1.00
C1446  C     0.42432   0.77767   0.94236   0.00000  Uiso   1.00
C1447  C     0.43224   0.73185   0.95146   0.00000  Uiso   1.00
H1448  H     0.47462   0.72624   0.95767   0.00000  Uiso   1.00
H1449  H     0.41335   0.72178   0.98069   0.00000  Uiso   1.00
H1450  H     0.41373   0.71207   0.92169   0.00000  Uiso   1.00
H1451  H     0.38377   0.78503   0.94734   0.00000  Uiso   1.00
H1452  H     0.42622   0.78016   0.90666   0.00000  Uiso   1.00
C1453  C     0.57659   0.88088   0.96131   0.00000  Uiso   1.00
N1454  N     0.60909   0.89968   0.94608   0.00000  Uiso   1.00
C1455  C     0.42341   0.78578   0.70535   0.00000  Uiso   1.00
N1456  N     0.39091   0.76699   0.72058   0.00000  Uiso   1.00
C1457  C     0.83738   0.75363   0.83297   0.00000  Uiso   1.00
C1458  C     0.82929   0.91304   0.83370   0.00000  Uiso   1.00
C1459  C     0.73390   0.83314   0.82153   0.00000  Uiso   1.00
C1460  C     0.93277   0.83353   0.84514   0.00000  Uiso   1.00
C1461  C     0.67884   0.83297   0.81520   0.00000  Uiso   1.00
C1462  C     0.98783   0.83370   0.85147   0.00000  Uiso   1.00
C1463  C     0.82485   0.68544   0.79146   0.00000  Uiso   1.00
C1464  C     0.84182   0.98123   0.87521   0.00000  Uiso   1.00
C1465  C     0.81105   0.97695   0.79386   0.00000  Uiso   1.00
C1466  C     0.85562   0.68972   0.87281   0.00000  Uiso   1.00
C1467  C     0.82449   0.95749   0.83487   0.00000  Uiso   1.00
C1468  C     0.84217   0.70917   0.83179   0.00000  Uiso   1.00
C1469  C     0.86903   0.85900   0.69524   0.00000  Uiso   1.00
C1470  C     0.79763   0.80767   0.97143   0.00000  Uiso   1.00
C1471  C     0.86963   0.85759   0.98069   0.00000  Uiso   1.00
C1472  C     0.79704   0.80907   0.68597   0.00000  Uiso   1.00
H1473  H     0.99183   0.83215   0.78069   0.00000  Uiso   1.00
H1474  H     0.67484   0.83451   0.88597   0.00000  Uiso   1.00
N1475  N     0.83332   0.83332   0.95240   0.00000  Uiso   1.00
N1476  N     0.83335   0.83334   0.71427   0.00000  Uiso   1.00
O1477  O     0.83333   0.77225   0.87154   0.00000  Uiso   1.00
O1478  O     0.83334   0.89442   0.79513   0.00000  Uiso   1.00
O1479  O     0.83333   0.77226   0.79510   0.00000  Uiso   1.00
O1480  O     0.83334   0.89441   0.87157   0.00000  Uiso   1.00
O1481  O     0.75725   0.83333   0.86261   0.00000  Uiso   1.00
O1482  O     0.90942   0.83334   0.80405   0.00000  Uiso   1.00
O1483  O     0.75725   0.83334   0.78617   0.00000  Uiso   1.00
O1484  O     0.90942   0.83333   0.88050   0.00000  Uiso   1.00
Zn1485 Zn    0.83333   0.83333   0.88437   0.00000  Uiso   1.00
Zn1486 Zn    0.83333   0.83334   0.78229   0.00000  Uiso   1.00
C1487  C     0.82831   0.70167   0.74733   0.00000  Uiso   1.00
N1488  N     0.83234   0.71411   0.71210   0.00000  Uiso   1.00
C1489  C     0.83836   0.96500   0.91934   0.00000  Uiso   1.00
N1490  N     0.83433   0.95255   0.95457   0.00000  Uiso   1.00
C1491  C     0.77940   0.95502   0.75515   0.00000  Uiso   1.00
N1492  N     0.75401   0.93763   0.72443   0.00000  Uiso   1.00
C1493  C     0.88727   0.71164   0.91151   0.00000  Uiso   1.00
N1494  N     0.91265   0.72903   0.94223   0.00000  Uiso   1.00
C1495  C     0.90901   0.88900   0.72431   0.00000  Uiso   1.00
C1496  C     0.90110   0.93481   0.71520   0.00000  Uiso   1.00
H1497  H     0.91998   0.94488   0.68597   0.00000  Uiso   1.00
H1498  H     0.85871   0.94042   0.70900   0.00000  Uiso   1.00
H1499  H     0.91960   0.95460   0.74497   0.00000  Uiso   1.00
H1500  H     0.90712   0.88651   0.76001   0.00000  Uiso   1.00
H1501  H     0.94957   0.88164   0.71933   0.00000  Uiso   1.00
C1502  C     0.75766   0.77767   0.94236   0.00000  Uiso   1.00
C1503  C     0.76557   0.73185   0.95146   0.00000  Uiso   1.00
H1504  H     0.80796   0.72624   0.95767   0.00000  Uiso   1.00
H1505  H     0.74668   0.72178   0.98069   0.00000  Uiso   1.00
H1506  H     0.74707   0.71207   0.92169   0.00000  Uiso   1.00
H1507  H     0.71710   0.78503   0.94734   0.00000  Uiso   1.00
H1508  H     0.75955   0.78016   0.90666   0.00000  Uiso   1.00
C1509  C     0.90992   0.88088   0.96131   0.00000  Uiso   1.00
N1510  N     0.94242   0.89968   0.94608   0.00000  Uiso   1.00
C1511  C     0.75674   0.78578   0.70535   0.00000  Uiso   1.00
N1512  N     0.72424   0.76699   0.72058   0.00000  Uiso   1.00
loop_
_geom_bond_atom_site_label_1
_geom_bond_atom_site_label_2
_geom_bond_distance
_geom_bond_site_symmetry_2
_ccdc_geom_bond_type
C1     O21     1.303   .     A
C1     O23     1.293   .     A
C1     C12     1.445   .     S
C2     O22     1.303   .     A
C2     C11     1.445   .     S
C2     O24     1.293   .     A
C3     O27     1.288   .     A
C3     O25     1.289   .     A
C3     C5      1.401   .     S
C4     O26     1.289   .     A
C4     O28     1.288   .     A
C4     C6      1.401   .     S
C5     C118    1.327   1_455 S
C5     H129    1.088   1_455 S
C6     C61     1.327   .     S
C6     H74     1.088   .     S
C7     C12     1.410   .     A
C7     C31     1.448   .     S
C7     C345    1.382   1_545 S
C8     C11     1.410   .     A
C8     C33     1.448   .     S
C8     C178    1.382   .     S
C9     C11     1.405   .     A
C9     C35     1.455   .     S
C9     C175    1.382   .     S
C10    C12     1.405   .     A
C10    C37     1.455   .     S
C10    C344    1.382   1_545 S
C13    C39     1.526   .     S
C13    N20     1.394   .     A
C13    C1023   1.433   1_554 S
C14    N19     1.394   .     A
C14    C46     1.526   .     S
C14    C520    1.433   .     S
C15    N19     1.361   .     A
C15    C53     1.443   .     S
C15    C517    1.433   .     S
C16    N20     1.361   .     A
C16    C55     1.443   .     S
C16    C1022   1.433   1_554 S
H17    C61     1.088   .     S
H18    C118    1.088   1_455 S
N19    Zn29    2.035   .     S
N20    Zn30    2.035   .     S
O21    Zn29    1.994   .     S
O22    Zn30    1.994   .     S
O23    Zn30    2.019   .     S
O24    Zn29    2.019   .     S
O25    Zn29    1.972   .     S
O26    Zn30    1.972   .     S
O27    Zn30    1.976   .     S
O28    Zn29    1.976   .     S
C31    N32     1.156   .     T
C33    N34     1.156   .     T
C35    N36     1.158   .     T
C37    N38     1.158   .     T
C39    H45     1.111   .     S
C39    H44     1.081   .     S
C39    C40     1.531   .     S
C40    H41     1.107   .     S
C40    H43     1.111   .     S
C40    H42     1.105   .     S
C46    H52     1.081   .     S
C46    C47     1.531   .     S
C46    H51     1.111   .     S
C47    H49     1.107   .     S
C47    H50     1.111   .     S
C47    H48     1.105   .     S
C53    N54     1.158   .     T
C55    N56     1.158   .     T
C57    O77     1.303   .     A
C57    O79     1.293   .     A
C57    C68     1.445   .     S
C58    O78     1.303   .     A
C58    C67     1.445   .     S
C58    O80     1.293   .     A
C59    O83     1.288   .     A
C59    O81     1.289   .     A
C59    C61     1.401   .     S
C60    O82     1.289   .     A
C60    O84     1.288   .     A
C60    C62     1.401   .     S
C62    C117    1.327   .     S
C62    H130    1.088   .     S
C63    C68     1.410   .     A
C63    C87     1.448   .     S
C63    C401    1.382   1_545 S
C64    C67     1.410   .     A
C64    C89     1.448   .     S
C64    C234    1.382   .     S
C65    C67     1.405   .     A
C65    C91     1.455   .     S
C65    C231    1.382   .     S
C66    C68     1.405   .     A
C66    C93     1.455   .     S
C66    C400    1.382   1_545 S
C69    C95     1.526   .     S
C69    N76     1.394   .     A
C69    C1079   1.433   1_554 S
C70    N75     1.394   .     A
C70    C102    1.526   .     S
C70    C576    1.433   .     S
C71    N75     1.361   .     A
C71    C109    1.443   .     S
C71    C573    1.433   .     S
C72    N76     1.361   .     A
C72    C111    1.443   .     S
C72    C1078   1.433   1_554 S
H73    C117    1.088   .     S
N75    Zn85    2.035   .     S
N76    Zn86    2.035   .     S
O77    Zn85    1.994   .     S
O78    Zn86    1.994   .     S
O79    Zn86    2.019   .     S
O80    Zn85    2.019   .     S
O81    Zn85    1.972   .     S
O82    Zn86    1.972   .     S
O83    Zn86    1.976   .     S
O84    Zn85    1.976   .     S
C87    N88     1.156   .     T
C89    N90     1.156   .     T
C91    N92     1.158   .     T
C93    N94     1.158   .     T
C95    H101    1.111   .     S
C95    H100    1.081   .     S
C95    C96     1.531   .     S
C96    H97     1.107   .     S
C96    H99     1.111   .     S
C96    H98     1.105   .     S
C102   H108    1.081   .     S
C102   C103    1.531   .     S
C102   H107    1.111   .     S
C103   H105    1.107   .     S
C103   H106    1.111   .     S
C103   H104    1.105   .     S
C109   N110    1.158   .     T
C111   N112    1.158   .     T
C113   O133    1.303   .     A
C113   O135    1.293   .     A
C113   C124    1.445   .     S
C114   O134    1.303   .     A
C114   C123    1.445   .     S
C114   O136    1.293   .     A
C115   O139    1.288   .     A
C115   O137    1.289   .     A
C115   C117    1.401   .     S
C116   O138    1.289   .     A
C116   O140    1.288   .     A
C116   C118    1.401   .     S
C118   C5      1.327   1_655 S
C118   H18     1.088   1_655 S
C119   C124    1.410   .     A
C119   C143    1.448   .     S
C119   C457    1.382   1_545 S
C120   C123    1.410   .     A
C120   C145    1.448   .     S
C120   C290    1.382   .     S
C121   C123    1.405   .     A
C121   C147    1.455   .     S
C121   C287    1.382   .     S
C122   C124    1.405   .     A
C122   C149    1.455   .     S
C122   C456    1.382   1_545 S
C125   C151    1.526   .     S
C125   N132    1.394   .     A
C125   C1135   1.433   1_554 S
C126   N131    1.394   .     A
C126   C158    1.526   .     S
C126   C632    1.433   .     S
C127   N131    1.361   .     A
C127   C165    1.443   .     S
C127   C629    1.433   .     S
C128   N132    1.361   .     A
C128   C167    1.443   .     S
C128   C1134   1.433   1_554 S
H129   C5      1.088   1_655 S
N131   Zn141   2.035   .     S
N132   Zn142   2.035   .     S
O133   Zn141   1.994   .     S
O134   Zn142   1.994   .     S
O135   Zn142   2.019   .     S
O136   Zn141   2.019   .     S
O137   Zn141   1.972   .     S
O138   Zn142   1.972   .     S
O139   Zn142   1.976   .     S
O140   Zn141   1.976   .     S
C143   N144    1.156   .     T
C145   N146    1.156   .     T
C147   N148    1.158   .     T
C149   N150    1.158   .     T
C151   H157    1.111   .     S
C151   H156    1.081   .     S
C151   C152    1.531   .     S
C152   H153    1.107   .     S
C152   H155    1.111   .     S
C152   H154    1.105   .     S
C158   H164    1.081   .     S
C158   C159    1.531   .     S
C158   H163    1.111   .     S
C159   H161    1.107   .     S
C159   H162    1.111   .     S
C159   H160    1.105   .     S
C165   N166    1.158   .     T
C167   N168    1.158   .     T
C169   O189    1.303   .     A
C169   O191    1.293   .     A
C169   C180    1.445   .     S
C170   O190    1.303   .     A
C170   C179    1.445   .     S
C170   O192    1.293   .     A
C171   O195    1.288   .     A
C171   O193    1.289   .     A
C171   C173    1.401   .     S
C172   O194    1.289   .     A
C172   O196    1.288   .     A
C172   C174    1.401   .     S
C173   C286    1.327   1_455 S
C173   H297    1.088   1_455 S
C174   C229    1.327   .     S
C174   H242    1.088   .     S
C175   C180    1.410   .     A
C175   C199    1.448   .     S
C176   C179    1.410   .     A
C176   C201    1.448   .     S
C176   C346    1.382   .     S
C177   C179    1.405   .     A
C177   C203    1.455   .     S
C177   C343    1.382   .     S
C178   C180    1.405   .     A
C178   C205    1.455   .     S
C181   C207    1.526   .     S
C181   N188    1.394   .     A
C181   C1191   1.433   1_554 S
C182   N187    1.394   .     A
C182   C214    1.526   .     S
C182   C688    1.433   .     S
C183   N187    1.361   .     A
C183   C221    1.443   .     S
C183   C685    1.433   .     S
C184   N188    1.361   .     A
C184   C223    1.443   .     S
C184   C1190   1.433   1_554 S
H185   C229    1.088   .     S
H186   C286    1.088   1_455 S
N187   Zn197   2.035   .     S
N188   Zn198   2.035   .     S
O189   Zn197   1.994   .     S
O190   Zn198   1.994   .     S
O191   Zn198   2.019   .     S
O192   Zn197   2.019   .     S
O193   Zn197   1.972   .     S
O194   Zn198   1.972   .     S
O195   Zn198   1.976   .     S
O196   Zn197   1.976   .     S
C199   N200    1.156   .     T
C201   N202    1.156   .     T
C203   N204    1.158   .     T
C205   N206    1.158   .     T
C207   H213    1.111   .     S
C207   H212    1.081   .     S
C207   C208    1.531   .     S
C208   H209    1.107   .     S
C208   H211    1.111   .     S
C208   H210    1.105   .     S
C214   H220    1.081   .     S
C214   C215    1.531   .     S
C214   H219    1.111   .     S
C215   H217    1.107   .     S
C215   H218    1.111   .     S
C215   H216    1.105   .     S
C221   N222    1.158   .     T
C223   N224    1.158   .     T
C225   O245    1.303   .     A
C225   O247    1.293   .     A
C225   C236    1.445   .     S
C226   O246    1.303   .     A
C226   C235    1.445   .     S
C226   O248    1.293   .     A
C227   O251    1.288   .     A
C227   O249    1.289   .     A
C227   C229    1.401   .     S
C228   O250    1.289   .     A
C228   O252    1.288   .     A
C228   C230    1.401   .     S
C230   C285    1.327   .     S
C230   H298    1.088   .     S
C231   C236    1.410   .     A
C231   C255    1.448   .     S
C232   C235    1.410   .     A
C232   C257    1.448   .     S
C232   C402    1.382   .     S
C233   C235    1.405   .     A
C233   C259    1.455   .     S
C233   C399    1.382   .     S
C234   C236    1.405   .     A
C234   C261    1.455   .     S
C237   C263    1.526   .     S
C237   N244    1.394   .     A
C237   C1247   1.433   1_554 S
C238   N243    1.394   .     A
C238   C270    1.526   .     S
C238   C744    1.433   .     S
C239   N243    1.361   .     A
C239   C277    1.443   .     S
C239   C741    1.433   .     S
C240   N244    1.361   .     A
C240   C279    1.443   .     S
C240   C1246   1.433   1_554 S
H241   C285    1.088   .     S
N243   Zn253   2.035   .     S
N244   Zn254   2.035   .     S
O245   Zn253   1.994   .     S
O246   Zn254   1.994   .     S
O247   Zn254   2.019   .     S
O248   Zn253   2.019   .     S
O249   Zn253   1.972   .     S
O250   Zn254   1.972   .     S
O251   Zn254   1.976   .     S
O252   Zn253   1.976   .     S
C255   N256    1.156   .     T
C257   N258    1.156   .     T
C259   N260    1.158   .     T
C261   N262    1.158   .     T
C263   H269    1.111   .     S
C263   H268    1.081   .     S
C263   C264    1.531   .     S
C264   H265    1.107   .     S
C264   H267    1.111   .     S
C264   H266    1.105   .     S
C270   H276    1.081   .     S
C270   C271    1.531   .     S
C270   H275    1.111   .     S
C271   H273    1.107   .     S
C271   H274    1.111   .     S
C271   H272    1.105   .     S
C277   N278    1.158   .     T
C279   N280    1.158   .     T
C281   O301    1.303   .     A
C281   O303    1.293   .     A
C281   C292    1.445   .     S
C282   O302    1.303   .     A
C282   C291    1.445   .     S
C282   O304    1.293   .     A
C283   O307    1.288   .     A
C283   O305    1.289   .     A
C283   C285    1.401   .     S
C284   O306    1.289   .     A
C284   O308    1.288   .     A
C284   C286    1.401   .     S
C286   C173    1.327   1_655 S
C286   H186    1.088   1_655 S
C287   C292    1.410   .     A
C287   C311    1.448   .     S
C288   C291    1.410   .     A
C288   C313    1.448   .     S
C288   C458    1.382   .     S
C289   C291    1.405   .     A
C289   C315    1.455   .     S
C289   C455    1.382   .     S
C290   C292    1.405   .     A
C290   C317    1.455   .     S
C293   C319    1.526   .     S
C293   N300    1.394   .     A
C293   C1303   1.433   1_554 S
C294   N299    1.394   .     A
C294   C326    1.526   .     S
C294   C800    1.433   .     S
C295   N299    1.361   .     A
C295   C333    1.443   .     S
C295   C797    1.433   .     S
C296   N300    1.361   .     A
C296   C335    1.443   .     S
C296   C1302   1.433   1_554 S
H297   C173    1.088   1_655 S
N299   Zn309   2.035   .     S
N300   Zn310   2.035   .     S
O301   Zn309   1.994   .     S
O302   Zn310   1.994   .     S
O303   Zn310   2.019   .     S
O304   Zn309   2.019   .     S
O305   Zn309   1.972   .     S
O306   Zn310   1.972   .     S
O307   Zn310   1.976   .     S
O308   Zn309   1.976   .     S
C311   N312    1.156   .     T
C313   N314    1.156   .     T
C315   N316    1.158   .     T
C317   N318    1.158   .     T
C319   H325    1.111   .     S
C319   H324    1.081   .     S
C319   C320    1.531   .     S
C320   H321    1.107   .     S
C320   H323    1.111   .     S
C320   H322    1.105   .     S
C326   H332    1.081   .     S
C326   C327    1.531   .     S
C326   H331    1.111   .     S
C327   H329    1.107   .     S
C327   H330    1.111   .     S
C327   H328    1.105   .     S
C333   N334    1.158   .     T
C335   N336    1.158   .     T
C337   O357    1.303   .     A
C337   O359    1.293   .     A
C337   C348    1.445   .     S
C338   O358    1.303   .     A
C338   C347    1.445   .     S
C338   O360    1.293   .     A
C339   O363    1.288   .     A
C339   O361    1.289   .     A
C339   C341    1.401   .     S
C340   O362    1.289   .     A
C340   O364    1.288   .     A
C340   C342    1.401   .     S
C341   C454    1.327   1_455 S
C341   H465    1.088   1_455 S
C342   C397    1.327   .     S
C342   H410    1.088   .     S
C343   C348    1.410   .     A
C343   C367    1.448   .     S
C344   C347    1.410   .     A
C344   C369    1.448   .     S
C344   C10     1.382   1_565 S
C345   C347    1.405   .     A
C345   C371    1.455   .     S
C345   C7      1.382   1_565 S
C346   C348    1.405   .     A
C346   C373    1.455   .     S
C349   C375    1.526   .     S
C349   N356    1.394   .     A
C349   C1359   1.433   1_554 S
C350   N355    1.394   .     A
C350   C382    1.526   .     S
C350   C856    1.433   .     S
C351   N355    1.361   .     A
C351   C389    1.443   .     S
C351   C853    1.433   .     S
C352   N356    1.361   .     A
C352   C391    1.443   .     S
C352   C1358   1.433   1_554 S
H353   C397    1.088   .     S
H354   C454    1.088   1_455 S
N355   Zn365   2.035   .     S
N356   Zn366   2.035   .     S
O357   Zn365   1.994   .     S
O358   Zn366   1.994   .     S
O359   Zn366   2.019   .     S
O360   Zn365   2.019   .     S
O361   Zn365   1.972   .     S
O362   Zn366   1.972   .     S
O363   Zn366   1.976   .     S
O364   Zn365   1.976   .     S
C367   N368    1.156   .     T
C369   N370    1.156   .     T
C371   N372    1.158   .     T
C373   N374    1.158   .     T
C375   H381    1.111   .     S
C375   H380    1.081   .     S
C375   C376    1.531   .     S
C376   H377    1.107   .     S
C376   H379    1.111   .     S
C376   H378    1.105   .     S
C382   H388    1.081   .     S
C382   C383    1.531   .     S
C382   H387    1.111   .     S
C383   H385    1.107   .     S
C383   H386    1.111   .     S
C383   H384    1.105   .     S
C389   N390    1.158   .     T
C391   N392    1.158   .     T
C393   O413    1.303   .     A
C393   O415    1.293   .     A
C393   C404    1.445   .     S
C394   O414    1.303   .     A
C394   C403    1.445   .     S
C394   O416    1.293   .     A
C395   O419    1.288   .     A
C395   O417    1.289   .     A
C395   C397    1.401   .     S
C396   O418    1.289   .     A
C396   O420    1.288   .     A
C396   C398    1.401   .     S
C398   C453    1.327   .     S
C398   H466    1.088   .     S
C399   C404    1.410   .     A
C399   C423    1.448   .     S
C400   C403    1.410   .     A
C400   C425    1.448   .     S
C400   C66     1.382   1_565 S
C401   C403    1.405   .     A
C401   C427    1.455   .     S
C401   C63     1.382   1_565 S
C402   C404    1.405   .     A
C402   C429    1.455   .     S
C405   C431    1.526   .     S
C405   N412    1.394   .     A
C405   C1415   1.433   1_554 S
C406   N411    1.394   .     A
C406   C438    1.526   .     S
C406   C912    1.433   .     S
C407   N411    1.361   .     A
C407   C445    1.443   .     S
C407   C909    1.433   .     S
C408   N412    1.361   .     A
C408   C447    1.443   .     S
C408   C1414   1.433   1_554 S
H409   C453    1.088   .     S
N411   Zn421   2.035   .     S
N412   Zn422   2.035   .     S
O413   Zn421   1.994   .     S
O414   Zn422   1.994   .     S
O415   Zn422   2.019   .     S
O416   Zn421   2.019   .     S
O417   Zn421   1.972   .     S
O418   Zn422   1.972   .     S
O419   Zn422   1.976   .     S
O420   Zn421   1.976   .     S
C423   N424    1.156   .     T
C425   N426    1.156   .     T
C427   N428    1.158   .     T
C429   N430    1.158   .     T
C431   H437    1.111   .     S
C431   H436    1.081   .     S
C431   C432    1.531   .     S
C432   H433    1.107   .     S
C432   H435    1.111   .     S
C432   H434    1.105   .     S
C438   H444    1.081   .     S
C438   C439    1.531   .     S
C438   H443    1.111   .     S
C439   H441    1.107   .     S
C439   H442    1.111   .     S
C439   H440    1.105   .     S
C445   N446    1.158   .     T
C447   N448    1.158   .     T
C449   O469    1.303   .     A
C449   O471    1.293   .     A
C449   C460    1.445   .     S
C450   O470    1.303   .     A
C450   C459    1.445   .     S
C450   O472    1.293   .     A
C451   O475    1.288   .     A
C451   O473    1.289   .     A
C451   C453    1.401   .     S
C452   O474    1.289   .     A
C452   O476    1.288   .     A
C452   C454    1.401   .     S
C454   C341    1.327   1_655 S
C454   H354    1.088   1_655 S
C455   C460    1.410   .     A
C455   C479    1.448   .     S
C456   C459    1.410   .     A
C456   C481    1.448   .     S
C456   C122    1.382   1_565 S
C457   C459    1.405   .     A
C457   C483    1.455   .     S
C457   C119    1.382   1_565 S
C458   C460    1.405   .     A
C458   C485    1.455   .     S
C461   C487    1.526   .     S
C461   N468    1.394   .     A
C461   C1471   1.433   1_554 S
C462   N467    1.394   .     A
C462   C494    1.526   .     S
C462   C968    1.433   .     S
C463   N467    1.361   .     A
C463   C501    1.443   .     S
C463   C965    1.433   .     S
C464   N468    1.361   .     A
C464   C503    1.443   .     S
C464   C1470   1.433   1_554 S
H465   C341    1.088   1_655 S
N467   Zn477   2.035   .     S
N468   Zn478   2.035   .     S
O469   Zn477   1.994   .     S
O470   Zn478   1.994   .     S
O471   Zn478   2.019   .     S
O472   Zn477   2.019   .     S
O473   Zn477   1.972   .     S
O474   Zn478   1.972   .     S
O475   Zn478   1.976   .     S
O476   Zn477   1.976   .     S
C479   N480    1.156   .     T
C481   N482    1.156   .     T
C483   N484    1.158   .     T
C485   N486    1.158   .     T
C487   H493    1.111   .     S
C487   H492    1.081   .     S
C487   C488    1.531   .     S
C488   H489    1.107   .     S
C488   H491    1.111   .     S
C488   H490    1.105   .     S
C494   H500    1.081   .     S
C494   C495    1.531   .     S
C494   H499    1.111   .     S
C495   H497    1.107   .     S
C495   H498    1.111   .     S
C495   H496    1.105   .     S
C501   N502    1.158   .     T
C503   N504    1.158   .     T
C505   O525    1.303   .     A
C505   O527    1.293   .     A
C505   C516    1.445   .     S
C506   O526    1.303   .     A
C506   C515    1.445   .     S
C506   O528    1.293   .     A
C507   O531    1.288   .     A
C507   O529    1.289   .     A
C507   C509    1.401   .     S
C508   O530    1.289   .     A
C508   O532    1.288   .     A
C508   C510    1.401   .     S
C509   C622    1.327   1_455 S
C509   H633    1.088   1_455 S
C510   C565    1.327   .     S
C510   H578    1.088   .     S
C511   C516    1.410   .     A
C511   C535    1.448   .     S
C511   C849    1.382   1_545 S
C512   C515    1.410   .     A
C512   C537    1.448   .     S
C512   C682    1.382   .     S
C513   C515    1.405   .     A
C513   C539    1.455   .     S
C513   C679    1.382   .     S
C514   C516    1.405   .     A
C514   C541    1.455   .     S
C514   C848    1.382   1_545 S
C517   C543    1.526   .     S
C517   N524    1.394   .     A
C518   N523    1.394   .     A
C518   C550    1.526   .     S
C518   C1024   1.433   .     S
C519   N523    1.361   .     A
C519   C557    1.443   .     S
C519   C1021   1.433   .     S
C520   N524    1.361   .     A
C520   C559    1.443   .     S
H521   C565    1.088   .     S
H522   C622    1.088   1_455 S
N523   Zn533   2.035   .     S
N524   Zn534   2.035   .     S
O525   Zn533   1.994   .     S
O526   Zn534   1.994   .     S
O527   Zn534   2.019   .     S
O528   Zn533   2.019   .     S
O529   Zn533   1.972   .     S
O530   Zn534   1.972   .     S
O531   Zn534   1.976   .     S
O532   Zn533   1.976   .     S
C535   N536    1.156   .     T
C537   N538    1.156   .     T
C539   N540    1.158   .     T
C541   N542    1.158   .     T
C543   H549    1.111   .     S
C543   H548    1.081   .     S
C543   C544    1.531   .     S
C544   H545    1.107   .     S
C544   H547    1.111   .     S
C544   H546    1.105   .     S
C550   H556    1.081   .     S
C550   C551    1.531   .     S
C550   H555    1.111   .     S
C551   H553    1.107   .     S
C551   H554    1.111   .     S
C551   H552    1.105   .     S
C557   N558    1.158   .     T
C559   N560    1.158   .     T
C561   O581    1.303   .     A
C561   O583    1.293   .     A
C561   C572    1.445   .     S
C562   O582    1.303   .     A
C562   C571    1.445   .     S
C562   O584    1.293   .     A
C563   O587    1.288   .     A
C563   O585    1.289   .     A
C563   C565    1.401   .     S
C564   O586    1.289   .     A
C564   O588    1.288   .     A
C564   C566    1.401   .     S
C566   C621    1.327   .     S
C566   H634    1.088   .     S
C567   C572    1.410   .     A
C567   C591    1.448   .     S
C567   C905    1.382   1_545 S
C568   C571    1.410   .     A
C568   C593    1.448   .     S
C568   C738    1.382   .     S
C569   C571    1.405   .     A
C569   C595    1.455   .     S
C569   C735    1.382   .     S
C570   C572    1.405   .     A
C570   C597    1.455   .     S
C570   C904    1.382   1_545 S
C573   C599    1.526   .     S
C573   N580    1.394   .     A
C574   N579    1.394   .     A
C574   C606    1.526   .     S
C574   C1080   1.433   .     S
C575   N579    1.361   .     A
C575   C613    1.443   .     S
C575   C1077   1.433   .     S
C576   N580    1.361   .     A
C576   C615    1.443   .     S
H577   C621    1.088   .     S
N579   Zn589   2.035   .     S
N580   Zn590   2.035   .     S
O581   Zn589   1.994   .     S
O582   Zn590   1.994   .     S
O583   Zn590   2.019   .     S
O584   Zn589   2.019   .     S
O585   Zn589   1.972   .     S
O586   Zn590   1.972   .     S
O587   Zn590   1.976   .     S
O588   Zn589   1.976   .     S
C591   N592    1.156   .     T
C593   N594    1.156   .     T
C595   N596    1.158   .     T
C597   N598    1.158   .     T
C599   H605    1.111   .     S
C599   H604    1.081   .     S
C599   C600    1.531   .     S
C600   H601    1.107   .     S
C600   H603    1.111   .     S
C600   H602    1.105   .     S
C606   H612    1.081   .     S
C606   C607    1.531   .     S
C606   H611    1.111   .     S
C607   H609    1.107   .     S
C607   H610    1.111   .     S
C607   H608    1.105   .     S
C613   N614    1.158   .     T
C615   N616    1.158   .     T
C617   O637    1.303   .     A
C617   O639    1.293   .     A
C617   C628    1.445   .     S
C618   O638    1.303   .     A
C618   C627    1.445   .     S
C618   O640    1.293   .     A
C619   O643    1.288   .     A
C619   O641    1.289   .     A
C619   C621    1.401   .     S
C620   O642    1.289   .     A
C620   O644    1.288   .     A
C620   C622    1.401   .     S
C622   C509    1.327   1_655 S
C622   H522    1.088   1_655 S
C623   C628    1.410   .     A
C623   C647    1.448   .     S
C623   C961    1.382   1_545 S
C624   C627    1.410   .     A
C624   C649    1.448   .     S
C624   C794    1.382   .     S
C625   C627    1.405   .     A
C625   C651    1.455   .     S
C625   C791    1.382   .     S
C626   C628    1.405   .     A
C626   C653    1.455   .     S
C626   C960    1.382   1_545 S
C629   C655    1.526   .     S
C629   N636    1.394   .     A
C630   N635    1.394   .     A
C630   C662    1.526   .     S
C630   C1136   1.433   .     S
C631   N635    1.361   .     A
C631   C669    1.443   .     S
C631   C1133   1.433   .     S
C632   N636    1.361   .     A
C632   C671    1.443   .     S
H633   C509    1.088   1_655 S
N635   Zn645   2.035   .     S
N636   Zn646   2.035   .     S
O637   Zn645   1.994   .     S
O638   Zn646   1.994   .     S
O639   Zn646   2.019   .     S
O640   Zn645   2.019   .     S
O641   Zn645   1.972   .     S
O642   Zn646   1.972   .     S
O643   Zn646   1.976   .     S
O644   Zn645   1.976   .     S
C647   N648    1.156   .     T
C649   N650    1.156   .     T
C651   N652    1.158   .     T
C653   N654    1.158   .     T
C655   H661    1.111   .     S
C655   H660    1.081   .     S
C655   C656    1.531   .     S
C656   H657    1.107   .     S
C656   H659    1.111   .     S
C656   H658    1.105   .     S
C662   H668    1.081   .     S
C662   C663    1.531   .     S
C662   H667    1.111   .     S
C663   H665    1.107   .     S
C663   H666    1.111   .     S
C663   H664    1.105   .     S
C669   N670    1.158   .     T
C671   N672    1.158   .     T
C673   O693    1.303   .     A
C673   O695    1.293   .     A
C673   C684    1.445   .     S
C674   O694    1.303   .     A
C674   C683    1.445   .     S
C674   O696    1.293   .     A
C675   O699    1.288   .     A
C675   O697    1.289   .     A
C675   C677    1.401   .     S
C676   O698    1.289   .     A
C676   O700    1.288   .     A
C676   C678    1.401   .     S
C677   C790    1.327   1_455 S
C677   H801    1.088   1_455 S
C678   C733    1.327   .     S
C678   H746    1.088   .     S
C679   C684    1.410   .     A
C679   C703    1.448   .     S
C680   C683    1.410   .     A
C680   C705    1.448   .     S
C680   C850    1.382   .     S
C681   C683    1.405   .     A
C681   C707    1.455   .     S
C681   C847    1.382   .     S
C682   C684    1.405   .     A
C682   C709    1.455   .     S
C685   C711    1.526   .     S
C685   N692    1.394   .     A
C686   N691    1.394   .     A
C686   C718    1.526   .     S
C686   C1192   1.433   .     S
C687   N691    1.361   .     A
C687   C725    1.443   .     S
C687   C1189   1.433   .     S
C688   N692    1.361   .     A
C688   C727    1.443   .     S
H689   C733    1.088   .     S
H690   C790    1.088   1_455 S
N691   Zn701   2.035   .     S
N692   Zn702   2.035   .     S
O693   Zn701   1.994   .     S
O694   Zn702   1.994   .     S
O695   Zn702   2.019   .     S
O696   Zn701   2.019   .     S
O697   Zn701   1.972   .     S
O698   Zn702   1.972   .     S
O699   Zn702   1.976   .     S
O700   Zn701   1.976   .     S
C703   N704    1.156   .     T
C705   N706    1.156   .     T
C707   N708    1.158   .     T
C709   N710    1.158   .     T
C711   H717    1.111   .     S
C711   H716    1.081   .     S
C711   C712    1.531   .     S
C712   H713    1.107   .     S
C712   H715    1.111   .     S
C712   H714    1.105   .     S
C718   H724    1.081   .     S
C718   C719    1.531   .     S
C718   H723    1.111   .     S
C719   H721    1.107   .     S
C719   H722    1.111   .     S
C719   H720    1.105   .     S
C725   N726    1.158   .     T
C727   N728    1.158   .     T
C729   O749    1.303   .     A
C729   O751    1.293   .     A
C729   C740    1.445   .     S
C730   O750    1.303   .     A
C730   C739    1.445   .     S
C730   O752    1.293   .     A
C731   O755    1.288   .     A
C731   O753    1.289   .     A
C731   C733    1.401   .     S
C732   O754    1.289   .     A
C732   O756    1.288   .     A
C732   C734    1.401   .     S
C734   C789    1.327   .     S
C734   H802    1.088   .     S
C735   C740    1.410   .     A
C735   C759    1.448   .     S
C736   C739    1.410   .     A
C736   C761    1.448   .     S
C736   C906    1.382   .     S
C737   C739    1.405   .     A
C737   C763    1.455   .     S
C737   C903    1.382   .     S
C738   C740    1.405   .     A
C738   C765    1.455   .     S
C741   C767    1.526   .     S
C741   N748    1.394   .     A
C742   N747    1.394   .     A
C742   C774    1.526   .     S
C742   C1248   1.433   .     S
C743   N747    1.361   .     A
C743   C781    1.443   .     S
C743   C1245   1.433   .     S
C744   N748    1.361   .     A
C744   C783    1.443   .     S
H745   C789    1.088   .     S
N747   Zn757   2.035   .     S
N748   Zn758   2.035   .     S
O749   Zn757   1.994   .     S
O750   Zn758   1.994   .     S
O751   Zn758   2.019   .     S
O752   Zn757   2.019   .     S
O753   Zn757   1.972   .     S
O754   Zn758   1.972   .     S
O755   Zn758   1.976   .     S
O756   Zn757   1.976   .     S
C759   N760    1.156   .     T
C761   N762    1.156   .     T
C763   N764    1.158   .     T
C765   N766    1.158   .     T
C767   H773    1.111   .     S
C767   H772    1.081   .     S
C767   C768    1.531   .     S
C768   H769    1.107   .     S
C768   H771    1.111   .     S
C768   H770    1.105   .     S
C774   H780    1.081   .     S
C774   C775    1.531   .     S
C774   H779    1.111   .     S
C775   H777    1.107   .     S
C775   H778    1.111   .     S
C775   H776    1.105   .     S
C781   N782    1.158   .     T
C783   N784    1.158   .     T
C785   O805    1.303   .     A
C785   O807    1.293   .     A
C785   C796    1.445   .     S
C786   O806    1.303   .     A
C786   C795    1.445   .     S
C786   O808    1.293   .     A
C787   O811    1.288   .     A
C787   O809    1.289   .     A
C787   C789    1.401   .     S
C788   O810    1.289   .     A
C788   O812    1.288   .     A
C788   C790    1.401   .     S
C790   C677    1.327   1_655 S
C790   H690    1.088   1_655 S
C791   C796    1.410   .     A
C791   C815    1.448   .     S
C792   C795    1.410   .     A
C792   C817    1.448   .     S
C792   C962    1.382   .     S
C793   C795    1.405   .     A
C793   C819    1.455   .     S
C793   C959    1.382   .     S
C794   C796    1.405   .     A
C794   C821    1.455   .     S
C797   C823    1.526   .     S
C797   N804    1.394   .     A
C798   N803    1.394   .     A
C798   C830    1.526   .     S
C798   C1304   1.433   .     S
C799   N803    1.361   .     A
C799   C837    1.443   .     S
C799   C1301   1.433   .     S
C800   N804    1.361   .     A
C800   C839    1.443   .     S
H801   C677    1.088   1_655 S
N803   Zn813   2.035   .     S
N804   Zn814   2.035   .     S
O805   Zn813   1.994   .     S
O806   Zn814   1.994   .     S
O807   Zn814   2.019   .     S
O808   Zn813   2.019   .     S
O809   Zn813   1.972   .     S
O810   Zn814   1.972   .     S
O811   Zn814   1.976   .     S
O812   Zn813   1.976   .     S
C815   N816    1.156   .     T
C817   N818    1.156   .     T
C819   N820    1.158   .     T
C821   N822    1.158   .     T
C823   H829    1.111   .     S
C823   H828    1.081   .     S
C823   C824    1.531   .     S
C824   H825    1.107   .     S
C824   H827    1.111   .     S
C824   H826    1.105   .     S
C830   H836    1.081   .     S
C830   C831    1.531   .     S
C830   H835    1.111   .     S
C831   H833    1.107   .     S
C831   H834    1.111   .     S
C831   H832    1.105   .     S
C837   N838    1.158   .     T
C839   N840    1.158   .     T
C841   O861    1.303   .     A
C841   O863    1.293   .     A
C841   C852    1.445   .     S
C842   O862    1.303   .     A
C842   C851    1.445   .     S
C842   O864    1.293   .     A
C843   O867    1.288   .     A
C843   O865    1.289   .     A
C843   C845    1.401   .     S
C844   O866    1.289   .     A
C844   O868    1.288   .     A
C844   C846    1.401   .     S
C845   C958    1.327   1_455 S
C845   H969    1.088   1_455 S
C846   C901    1.327   .     S
C846   H914    1.088   .     S
C847   C852    1.410   .     A
C847   C871    1.448   .     S
C848   C851    1.410   .     A
C848   C873    1.448   .     S
C848   C514    1.382   1_565 S
C849   C851    1.405   .     A
C849   C875    1.455   .     S
C849   C511    1.382   1_565 S
C850   C852    1.405   .     A
C850   C877    1.455   .     S
C853   C879    1.526   .     S
C853   N860    1.394   .     A
C854   N859    1.394   .     A
C854   C886    1.526   .     S
C854   C1360   1.433   .     S
C855   N859    1.361   .     A
C855   C893    1.443   .     S
C855   C1357   1.433   .     S
C856   N860    1.361   .     A
C856   C895    1.443   .     S
H857   C901    1.088   .     S
H858   C958    1.088   1_455 S
N859   Zn869   2.035   .     S
N860   Zn870   2.035   .     S
O861   Zn869   1.994   .     S
O862   Zn870   1.994   .     S
O863   Zn870   2.019   .     S
O864   Zn869   2.019   .     S
O865   Zn869   1.972   .     S
O866   Zn870   1.972   .     S
O867   Zn870   1.976   .     S
O868   Zn869   1.976   .     S
C871   N872    1.156   .     T
C873   N874    1.156   .     T
C875   N876    1.158   .     T
C877   N878    1.158   .     T
C879   H885    1.111   .     S
C879   H884    1.081   .     S
C879   C880    1.531   .     S
C880   H881    1.107   .     S
C880   H883    1.111   .     S
C880   H882    1.105   .     S
C886   H892    1.081   .     S
C886   C887    1.531   .     S
C886   H891    1.111   .     S
C887   H889    1.107   .     S
C887   H890    1.111   .     S
C887   H888    1.105   .     S
C893   N894    1.158   .     T
C895   N896    1.158   .     T
C897   O917    1.303   .     A
C897   O919    1.293   .     A
C897   C908    1.445   .     S
C898   O918    1.303   .     A
C898   C907    1.445   .     S
C898   O920    1.293   .     A
C899   O923    1.288   .     A
C899   O921    1.289   .     A
C899   C901    1.401   .     S
C900   O922    1.289   .     A
C900   O924    1.288   .     A
C900   C902    1.401   .     S
C902   C957    1.327   .     S
C902   H970    1.088   .     S
C903   C908    1.410   .     A
C903   C927    1.448   .     S
C904   C907    1.410   .     A
C904   C929    1.448   .     S
C904   C570    1.382   1_565 S
C905   C907    1.405   .     A
C905   C931    1.455   .     S
C905   C567    1.382   1_565 S
C906   C908    1.405   .     A
C906   C933    1.455   .     S
C909   C935    1.526   .     S
C909   N916    1.394   .     A
C910   N915    1.394   .     A
C910   C942    1.526   .     S
C910   C1416   1.433   .     S
C911   N915    1.361   .     A
C911   C949    1.443   .     S
C911   C1413   1.433   .     S
C912   N916    1.361   .     A
C912   C951    1.443   .     S
H913   C957    1.088   .     S
N915   Zn925   2.035   .     S
N916   Zn926   2.035   .     S
O917   Zn925   1.994   .     S
O918   Zn926   1.994   .     S
O919   Zn926   2.019   .     S
O920   Zn925   2.019   .     S
O921   Zn925   1.972   .     S
O922   Zn926   1.972   .     S
O923   Zn926   1.976   .     S
O924   Zn925   1.976   .     S
C927   N928    1.156   .     T
C929   N930    1.156   .     T
C931   N932    1.158   .     T
C933   N934    1.158   .     T
C935   H941    1.111   .     S
C935   H940    1.081   .     S
C935   C936    1.531   .     S
C936   H937    1.107   .     S
C936   H939    1.111   .     S
C936   H938    1.105   .     S
C942   H948    1.081   .     S
C942   C943    1.531   .     S
C942   H947    1.111   .     S
C943   H945    1.107   .     S
C943   H946    1.111   .     S
C943   H944    1.105   .     S
C949   N950    1.158   .     T
C951   N952    1.158   .     T
C953   O973    1.303   .     A
C953   O975    1.293   .     A
C953   C964    1.445   .     S
C954   O974    1.303   .     A
C954   C963    1.445   .     S
C954   O976    1.293   .     A
C955   O979    1.288   .     A
C955   O977    1.289   .     A
C955   C957    1.401   .     S
C956   O978    1.289   .     A
C956   O980    1.288   .     A
C956   C958    1.401   .     S
C958   C845    1.327   1_655 S
C958   H858    1.088   1_655 S
C959   C964    1.410   .     A
C959   C983    1.448   .     S
C960   C963    1.410   .     A
C960   C985    1.448   .     S
C960   C626    1.382   1_565 S
C961   C963    1.405   .     A
C961   C987    1.455   .     S
C961   C623    1.382   1_565 S
C962   C964    1.405   .     A
C962   C989    1.455   .     S
C965   C991    1.526   .     S
C965   N972    1.394   .     A
C966   N971    1.394   .     A
C966   C998    1.526   .     S
C966   C1472   1.433   .     S
C967   N971    1.361   .     A
C967   C1005   1.443   .     S
C967   C1469   1.433   .     S
C968   N972    1.361   .     A
C968   C1007   1.443   .     S
H969   C845    1.088   1_655 S
N971   Zn981   2.035   .     S
N972   Zn982   2.035   .     S
O973   Zn981   1.994   .     S
O974   Zn982   1.994   .     S
O975   Zn982   2.019   .     S
O976   Zn981   2.019   .     S
O977   Zn981   1.972   .     S
O978   Zn982   1.972   .     S
O979   Zn982   1.976   .     S
O980   Zn981   1.976   .     S
C983   N984    1.156   .     T
C985   N986    1.156   .     T
C987   N988    1.158   .     T
C989   N990    1.158   .     T
C991   H997    1.111   .     S
C991   H996    1.081   .     S
C991   C992    1.531   .     S
C992   H993    1.107   .     S
C992   H995    1.111   .     S
C992   H994    1.105   .     S
C998   H1004   1.081   .     S
C998   C999    1.531   .     S
C998   H1003   1.111   .     S
C999   H1001   1.107   .     S
C999   H1002   1.111   .     S
C999   H1000   1.105   .     S
C1005  N1006   1.158   .     T
C1007  N1008   1.158   .     T
C1009  O1029   1.303   .     A
C1009  O1031   1.293   .     A
C1009  C1020   1.445   .     S
C1010  O1030   1.303   .     A
C1010  C1019   1.445   .     S
C1010  O1032   1.293   .     A
C1011  O1035   1.288   .     A
C1011  O1033   1.289   .     A
C1011  C1013   1.401   .     S
C1012  O1034   1.289   .     A
C1012  O1036   1.288   .     A
C1012  C1014   1.401   .     S
C1013  C1126   1.327   1_455 S
C1013  H1137   1.088   1_455 S
C1014  C1069   1.327   .     S
C1014  H1082   1.088   .     S
C1015  C1020   1.410   .     A
C1015  C1039   1.448   .     S
C1015  C1353   1.382   1_545 S
C1016  C1019   1.410   .     A
C1016  C1041   1.448   .     S
C1016  C1186   1.382   .     S
C1017  C1019   1.405   .     A
C1017  C1043   1.455   .     S
C1017  C1183   1.382   .     S
C1018  C1020   1.405   .     A
C1018  C1045   1.455   .     S
C1018  C1352   1.382   1_545 S
C1021  C1047   1.526   .     S
C1021  N1028   1.394   .     A
C1022  N1027   1.394   .     A
C1022  C1054   1.526   .     S
C1022  C16     1.433   1_556 S
C1023  N1027   1.361   .     A
C1023  C1061   1.443   .     S
C1023  C13     1.433   1_556 S
C1024  N1028   1.361   .     A
C1024  C1063   1.443   .     S
H1025  C1069   1.088   .     S
H1026  C1126   1.088   1_455 S
N1027  Zn1037  2.035   .     S
N1028  Zn1038  2.035   .     S
O1029  Zn1037  1.994   .     S
O1030  Zn1038  1.994   .     S
O1031  Zn1038  2.019   .     S
O1032  Zn1037  2.019   .     S
O1033  Zn1037  1.972   .     S
O1034  Zn1038  1.972   .     S
O1035  Zn1038  1.976   .     S
O1036  Zn1037  1.976   .     S
C1039  N1040   1.156   .     T
C1041  N1042   1.156   .     T
C1043  N1044   1.158   .     T
C1045  N1046   1.158   .     T
C1047  H1053   1.111   .     S
C1047  H1052   1.081   .     S
C1047  C1048   1.531   .     S
C1048  H1049   1.107   .     S
C1048  H1051   1.111   .     S
C1048  H1050   1.105   .     S
C1054  H1060   1.081   .     S
C1054  C1055   1.531   .     S
C1054  H1059   1.111   .     S
C1055  H1057   1.107   .     S
C1055  H1058   1.111   .     S
C1055  H1056   1.105   .     S
C1061  N1062   1.158   .     T
C1063  N1064   1.158   .     T
C1065  O1085   1.303   .     A
C1065  O1087   1.293   .     A
C1065  C1076   1.445   .     S
C1066  O1086   1.303   .     A
C1066  C1075   1.445   .     S
C1066  O1088   1.293   .     A
C1067  O1091   1.288   .     A
C1067  O1089   1.289   .     A
C1067  C1069   1.401   .     S
C1068  O1090   1.289   .     A
C1068  O1092   1.288   .     A
C1068  C1070   1.401   .     S
C1070  C1125   1.327   .     S
C1070  H1138   1.088   .     S
C1071  C1076   1.410   .     A
C1071  C1095   1.448   .     S
C1071  C1409   1.382   1_545 S
C1072  C1075   1.410   .     A
C1072  C1097   1.448   .     S
C1072  C1242   1.382   .     S
C1073  C1075   1.405   .     A
C1073  C1099   1.455   .     S
C1073  C1239   1.382   .     S
C1074  C1076   1.405   .     A
C1074  C1101   1.455   .     S
C1074  C1408   1.382   1_545 S
C1077  C1103   1.526   .     S
C1077  N1084   1.394   .     A
C1078  N1083   1.394   .     A
C1078  C1110   1.526   .     S
C1078  C72     1.433   1_556 S
C1079  N1083   1.361   .     A
C1079  C1117   1.443   .     S
C1079  C69     1.433   1_556 S
C1080  N1084   1.361   .     A
C1080  C1119   1.443   .     S
H1081  C1125   1.088   .     S
N1083  Zn1093  2.035   .     S
N1084  Zn1094  2.035   .     S
O1085  Zn1093  1.994   .     S
O1086  Zn1094  1.994   .     S
O1087  Zn1094  2.019   .     S
O1088  Zn1093  2.019   .     S
O1089  Zn1093  1.972   .     S
O1090  Zn1094  1.972   .     S
O1091  Zn1094  1.976   .     S
O1092  Zn1093  1.976   .     S
C1095  N1096   1.156   .     T
C1097  N1098   1.156   .     T
C1099  N1100   1.158   .     T
C1101  N1102   1.158   .     T
C1103  H1109   1.111   .     S
C1103  H1108   1.081   .     S
C1103  C1104   1.531   .     S
C1104  H1105   1.107   .     S
C1104  H1107   1.111   .     S
C1104  H1106   1.105   .     S
C1110  H1116   1.081   .     S
C1110  C1111   1.531   .     S
C1110  H1115   1.111   .     S
C1111  H1113   1.107   .     S
C1111  H1114   1.111   .     S
C1111  H1112   1.105   .     S
C1117  N1118   1.158   .     T
C1119  N1120   1.158   .     T
C1121  O1141   1.303   .     A
C1121  O1143   1.293   .     A
C1121  C1132   1.445   .     S
C1122  O1142   1.303   .     A
C1122  C1131   1.445   .     S
C1122  O1144   1.293   .     A
C1123  O1147   1.288   .     A
C1123  O1145   1.289   .     A
C1123  C1125   1.401   .     S
C1124  O1146   1.289   .     A
C1124  O1148   1.288   .     A
C1124  C1126   1.401   .     S
C1126  C1013   1.327   1_655 S
C1126  H1026   1.088   1_655 S
C1127  C1132   1.410   .     A
C1127  C1151   1.448   .     S
C1127  C1465   1.382   1_545 S
C1128  C1131   1.410   .     A
C1128  C1153   1.448   .     S
C1128  C1298   1.382   .     S
C1129  C1131   1.405   .     A
C1129  C1155   1.455   .     S
C1129  C1295   1.382   .     S
C1130  C1132   1.405   .     A
C1130  C1157   1.455   .     S
C1130  C1464   1.382   1_545 S
C1133  C1159   1.526   .     S
C1133  N1140   1.394   .     A
C1134  N1139   1.394   .     A
C1134  C1166   1.526   .     S
C1134  C128    1.433   1_556 S
C1135  N1139   1.361   .     A
C1135  C1173   1.443   .     S
C1135  C125    1.433   1_556 S
C1136  N1140   1.361   .     A
C1136  C1175   1.443   .     S
H1137  C1013   1.088   1_655 S
N1139  Zn1149  2.035   .     S
N1140  Zn1150  2.035   .     S
O1141  Zn1149  1.994   .     S
O1142  Zn1150  1.994   .     S
O1143  Zn1150  2.019   .     S
O1144  Zn1149  2.019   .     S
O1145  Zn1149  1.972   .     S
O1146  Zn1150  1.972   .     S
O1147  Zn1150  1.976   .     S
O1148  Zn1149  1.976   .     S
C1151  N1152   1.156   .     T
C1153  N1154   1.156   .     T
C1155  N1156   1.158   .     T
C1157  N1158   1.158   .     T
C1159  H1165   1.111   .     S
C1159  H1164   1.081   .     S
C1159  C1160   1.531   .     S
C1160  H1161   1.107   .     S
C1160  H1163   1.111   .     S
C1160  H1162   1.105   .     S
C1166  H1172   1.081   .     S
C1166  C1167   1.531   .     S
C1166  H1171   1.111   .     S
C1167  H1169   1.107   .     S
C1167  H1170   1.111   .     S
C1167  H1168   1.105   .     S
C1173  N1174   1.158   .     T
C1175  N1176   1.158   .     T
C1177  O1197   1.303   .     A
C1177  O1199   1.293   .     A
C1177  C1188   1.445   .     S
C1178  O1198   1.303   .     A
C1178  C1187   1.445   .     S
C1178  O1200   1.293   .     A
C1179  O1203   1.288   .     A
C1179  O1201   1.289   .     A
C1179  C1181   1.401   .     S
C1180  O1202   1.289   .     A
C1180  O1204   1.288   .     A
C1180  C1182   1.401   .     S
C1181  C1294   1.327   1_455 S
C1181  H1305   1.088   1_455 S
C1182  C1237   1.327   .     S
C1182  H1250   1.088   .     S
C1183  C1188   1.410   .     A
C1183  C1207   1.448   .     S
C1184  C1187   1.410   .     A
C1184  C1209   1.448   .     S
C1184  C1354   1.382   .     S
C1185  C1187   1.405   .     A
C1185  C1211   1.455   .     S
C1185  C1351   1.382   .     S
C1186  C1188   1.405   .     A
C1186  C1213   1.455   .     S
C1189  C1215   1.526   .     S
C1189  N1196   1.394   .     A
C1190  N1195   1.394   .     A
C1190  C1222   1.526   .     S
C1190  C184    1.433   1_556 S
C1191  N1195   1.361   .     A
C1191  C1229   1.443   .     S
C1191  C181    1.433   1_556 S
C1192  N1196   1.361   .     A
C1192  C1231   1.443   .     S
H1193  C1237   1.088   .     S
H1194  C1294   1.088   1_455 S
N1195  Zn1205  2.035   .     S
N1196  Zn1206  2.035   .     S
O1197  Zn1205  1.994   .     S
O1198  Zn1206  1.994   .     S
O1199  Zn1206  2.019   .     S
O1200  Zn1205  2.019   .     S
O1201  Zn1205  1.972   .     S
O1202  Zn1206  1.972   .     S
O1203  Zn1206  1.976   .     S
O1204  Zn1205  1.976   .     S
C1207  N1208   1.156   .     T
C1209  N1210   1.156   .     T
C1211  N1212   1.158   .     T
C1213  N1214   1.158   .     T
C1215  H1221   1.111   .     S
C1215  H1220   1.081   .     S
C1215  C1216   1.531   .     S
C1216  H1217   1.107   .     S
C1216  H1219   1.111   .     S
C1216  H1218   1.105   .     S
C1222  H1228   1.081   .     S
C1222  C1223   1.531   .     S
C1222  H1227   1.111   .     S
C1223  H1225   1.107   .     S
C1223  H1226   1.111   .     S
C1223  H1224   1.105   .     S
C1229  N1230   1.158   .     T
C1231  N1232   1.158   .     T
C1233  O1253   1.303   .     A
C1233  O1255   1.293   .     A
C1233  C1244   1.445   .     S
C1234  O1254   1.303   .     A
C1234  C1243   1.445   .     S
C1234  O1256   1.293   .     A
C1235  O1259   1.288   .     A
C1235  O1257   1.289   .     A
C1235  C1237   1.401   .     S
C1236  O1258   1.289   .     A
C1236  O1260   1.288   .     A
C1236  C1238   1.401   .     S
C1238  C1293   1.327   .     S
C1238  H1306   1.088   .     S
C1239  C1244   1.410   .     A
C1239  C1263   1.448   .     S
C1240  C1243   1.410   .     A
C1240  C1265   1.448   .     S
C1240  C1410   1.382   .     S
C1241  C1243   1.405   .     A
C1241  C1267   1.455   .     S
C1241  C1407   1.382   .     S
C1242  C1244   1.405   .     A
C1242  C1269   1.455   .     S
C1245  C1271   1.526   .     S
C1245  N1252   1.394   .     A
C1246  N1251   1.394   .     A
C1246  C1278   1.526   .     S
C1246  C240    1.433   1_556 S
C1247  N1251   1.361   .     A
C1247  C1285   1.443   .     S
C1247  C237    1.433   1_556 S
C1248  N1252   1.361   .     A
C1248  C1287   1.443   .     S
H1249  C1293   1.088   .     S
N1251  Zn1261  2.035   .     S
N1252  Zn1262  2.035   .     S
O1253  Zn1261  1.994   .     S
O1254  Zn1262  1.994   .     S
O1255  Zn1262  2.019   .     S
O1256  Zn1261  2.019   .     S
O1257  Zn1261  1.972   .     S
O1258  Zn1262  1.972   .     S
O1259  Zn1262  1.976   .     S
O1260  Zn1261  1.976   .     S
C1263  N1264   1.156   .     T
C1265  N1266   1.156   .     T
C1267  N1268   1.158   .     T
C1269  N1270   1.158   .     T
C1271  H1277   1.111   .     S
C1271  H1276   1.081   .     S
C1271  C1272   1.531   .     S
C1272  H1273   1.107   .     S
C1272  H1275   1.111   .     S
C1272  H1274   1.105   .     S
C1278  H1284   1.081   .     S
C1278  C1279   1.531   .     S
C1278  H1283   1.111   .     S
C1279  H1281   1.107   .     S
C1279  H1282   1.111   .     S
C1279  H1280   1.105   .     S
C1285  N1286   1.158   .     T
C1287  N1288   1.158   .     T
C1289  O1309   1.303   .     A
C1289  O1311   1.293   .     A
C1289  C1300   1.445   .     S
C1290  O1310   1.303   .     A
C1290  C1299   1.445   .     S
C1290  O1312   1.293   .     A
C1291  O1315   1.288   .     A
C1291  O1313   1.289   .     A
C1291  C1293   1.401   .     S
C1292  O1314   1.289   .     A
C1292  O1316   1.288   .     A
C1292  C1294   1.401   .     S
C1294  C1181   1.327   1_655 S
C1294  H1194   1.088   1_655 S
C1295  C1300   1.410   .     A
C1295  C1319   1.448   .     S
C1296  C1299   1.410   .     A
C1296  C1321   1.448   .     S
C1296  C1466   1.382   .     S
C1297  C1299   1.405   .     A
C1297  C1323   1.455   .     S
C1297  C1463   1.382   .     S
C1298  C1300   1.405   .     A
C1298  C1325   1.455   .     S
C1301  C1327   1.526   .     S
C1301  N1308   1.394   .     A
C1302  N1307   1.394   .     A
C1302  C1334   1.526   .     S
C1302  C296    1.433   1_556 S
C1303  N1307   1.361   .     A
C1303  C1341   1.443   .     S
C1303  C293    1.433   1_556 S
C1304  N1308   1.361   .     A
C1304  C1343   1.443   .     S
H1305  C1181   1.088   1_655 S
N1307  Zn1317  2.035   .     S
N1308  Zn1318  2.035   .     S
O1309  Zn1317  1.994   .     S
O1310  Zn1318  1.994   .     S
O1311  Zn1318  2.019   .     S
O1312  Zn1317  2.019   .     S
O1313  Zn1317  1.972   .     S
O1314  Zn1318  1.972   .     S
O1315  Zn1318  1.976   .     S
O1316  Zn1317  1.976   .     S
C1319  N1320   1.156   .     T
C1321  N1322   1.156   .     T
C1323  N1324   1.158   .     T
C1325  N1326   1.158   .     T
C1327  H1333   1.111   .     S
C1327  H1332   1.081   .     S
C1327  C1328   1.531   .     S
C1328  H1329   1.107   .     S
C1328  H1331   1.111   .     S
C1328  H1330   1.105   .     S
C1334  H1340   1.081   .     S
C1334  C1335   1.531   .     S
C1334  H1339   1.111   .     S
C1335  H1337   1.107   .     S
C1335  H1338   1.111   .     S
C1335  H1336   1.105   .     S
C1341  N1342   1.158   .     T
C1343  N1344   1.158   .     T
C1345  O1365   1.303   .     A
C1345  O1367   1.293   .     A
C1345  C1356   1.445   .     S
C1346  O1366   1.303   .     A
C1346  C1355   1.445   .     S
C1346  O1368   1.293   .     A
C1347  O1371   1.288   .     A
C1347  O1369   1.289   .     A
C1347  C1349   1.401   .     S
C1348  O1370   1.289   .     A
C1348  O1372   1.288   .     A
C1348  C1350   1.401   .     S
C1349  C1462   1.327   1_455 S
C1349  H1473   1.088   1_455 S
C1350  C1405   1.327   .     S
C1350  H1418   1.088   .     S
C1351  C1356   1.410   .     A
C1351  C1375   1.448   .     S
C1352  C1355   1.410   .     A
C1352  C1377   1.448   .     S
C1352  C1018   1.382   1_565 S
C1353  C1355   1.405   .     A
C1353  C1379   1.455   .     S
C1353  C1015   1.382   1_565 S
C1354  C1356   1.405   .     A
C1354  C1381   1.455   .     S
C1357  C1383   1.526   .     S
C1357  N1364   1.394   .     A
C1358  N1363   1.394   .     A
C1358  C1390   1.526   .     S
C1358  C352    1.433   1_556 S
C1359  N1363   1.361   .     A
C1359  C1397   1.443   .     S
C1359  C349    1.433   1_556 S
C1360  N1364   1.361   .     A
C1360  C1399   1.443   .     S
H1361  C1405   1.088   .     S
H1362  C1462   1.088   1_455 S
N1363  Zn1373  2.035   .     S
N1364  Zn1374  2.035   .     S
O1365  Zn1373  1.994   .     S
O1366  Zn1374  1.994   .     S
O1367  Zn1374  2.019   .     S
O1368  Zn1373  2.019   .     S
O1369  Zn1373  1.972   .     S
O1370  Zn1374  1.972   .     S
O1371  Zn1374  1.976   .     S
O1372  Zn1373  1.976   .     S
C1375  N1376   1.156   .     T
C1377  N1378   1.156   .     T
C1379  N1380   1.158   .     T
C1381  N1382   1.158   .     T
C1383  H1389   1.111   .     S
C1383  H1388   1.081   .     S
C1383  C1384   1.531   .     S
C1384  H1385   1.107   .     S
C1384  H1387   1.111   .     S
C1384  H1386   1.105   .     S
C1390  H1396   1.081   .     S
C1390  C1391   1.531   .     S
C1390  H1395   1.111   .     S
C1391  H1393   1.107   .     S
C1391  H1394   1.111   .     S
C1391  H1392   1.105   .     S
C1397  N1398   1.158   .     T
C1399  N1400   1.158   .     T
C1401  O1421   1.303   .     A
C1401  O1423   1.293   .     A
C1401  C1412   1.445   .     S
C1402  O1422   1.303   .     A
C1402  C1411   1.445   .     S
C1402  O1424   1.293   .     A
C1403  O1427   1.288   .     A
C1403  O1425   1.289   .     A
C1403  C1405   1.401   .     S
C1404  O1426   1.289   .     A
C1404  O1428   1.288   .     A
C1404  C1406   1.401   .     S
C1406  C1461   1.327   .     S
C1406  H1474   1.088   .     S
C1407  C1412   1.410   .     A
C1407  C1431   1.448   .     S
C1408  C1411   1.410   .     A
C1408  C1433   1.448   .     S
C1408  C1074   1.382   1_565 S
C1409  C1411   1.405   .     A
C1409  C1435   1.455   .     S
C1409  C1071   1.382   1_565 S
C1410  C1412   1.405   .     A
C1410  C1437   1.455   .     S
C1413  C1439   1.526   .     S
C1413  N1420   1.394   .     A
C1414  N1419   1.394   .     A
C1414  C1446   1.526   .     S
C1414  C408    1.433   1_556 S
C1415  N1419   1.361   .     A
C1415  C1453   1.443   .     S
C1415  C405    1.433   1_556 S
C1416  N1420   1.361   .     A
C1416  C1455   1.443   .     S
H1417  C1461   1.088   .     S
N1419  Zn1429  2.035   .     S
N1420  Zn1430  2.035   .     S
O1421  Zn1429  1.994   .     S
O1422  Zn1430  1.994   .     S
O1423  Zn1430  2.019   .     S
O1424  Zn1429  2.019   .     S
O1425  Zn1429  1.972   .     S
O1426  Zn1430  1.972   .     S
O1427  Zn1430  1.976   .     S
O1428  Zn1429  1.976   .     S
C1431  N1432   1.156   .     T
C1433  N1434   1.156   .     T
C1435  N1436   1.158   .     T
C1437  N1438   1.158   .     T
C1439  H1445   1.111   .     S
C1439  H1444   1.081   .     S
C1439  C1440   1.531   .     S
C1440  H1441   1.107   .     S
C1440  H1443   1.111   .     S
C1440  H1442   1.105   .     S
C1446  H1452   1.081   .     S
C1446  C1447   1.531   .     S
C1446  H1451   1.111   .     S
C1447  H1449   1.107   .     S
C1447  H1450   1.111   .     S
C1447  H1448   1.105   .     S
C1453  N1454   1.158   .     T
C1455  N1456   1.158   .     T
C1457  O1477   1.303   .     A
C1457  O1479   1.293   .     A
C1457  C1468   1.445   .     S
C1458  O1478   1.303   .     A
C1458  C1467   1.445   .     S
C1458  O1480   1.293   .     A
C1459  O1483   1.288   .     A
C1459  O1481   1.289   .     A
C1459  C1461   1.401   .     S
C1460  O1482   1.289   .     A
C1460  O1484   1.288   .     A
C1460  C1462   1.401   .     S
C1462  C1349   1.327   1_655 S
C1462  H1362   1.088   1_655 S
C1463  C1468   1.410   .     A
C1463  C1487   1.448   .     S
C1464  C1467   1.410   .     A
C1464  C1489   1.448   .     S
C1464  C1130   1.382   1_565 S
C1465  C1467   1.405   .     A
C1465  C1491   1.455   .     S
C1465  C1127   1.382   1_565 S
C1466  C1468   1.405   .     A
C1466  C1493   1.455   .     S
C1469  C1495   1.526   .     S
C1469  N1476   1.394   .     A
C1470  N1475   1.394   .     A
C1470  C1502   1.526   .     S
C1470  C464    1.433   1_556 S
C1471  N1475   1.361   .     A
C1471  C1509   1.443   .     S
C1471  C461    1.433   1_556 S
C1472  N1476   1.361   .     A
C1472  C1511   1.443   .     S
H1473  C1349   1.088   1_655 S
N1475  Zn1485  2.035   .     S
N1476  Zn1486  2.035   .     S
O1477  Zn1485  1.994   .     S
O1478  Zn1486  1.994   .     S
O1479  Zn1486  2.019   .     S
O1480  Zn1485  2.019   .     S
O1481  Zn1485  1.972   .     S
O1482  Zn1486  1.972   .     S
O1483  Zn1486  1.976   .     S
O1484  Zn1485  1.976   .     S
C1487  N1488   1.156   .     T
C1489  N1490   1.156   .     T
C1491  N1492   1.158   .     T
C1493  N1494   1.158   .     T
C1495  H1501   1.111   .     S
C1495  H1500   1.081   .     S
C1495  C1496   1.531   .     S
C1496  H1497   1.107   .     S
C1496  H1499   1.111   .     S
C1496  H1498   1.105   .     S
C1502  H1508   1.081   .     S
C1502  C1503   1.531   .     S
C1502  H1507   1.111   .     S
C1503  H1505   1.107   .     S
C1503  H1506   1.111   .     S
C1503  H1504   1.105   .     S
C1509  N1510   1.158   .     T
C1511  N1512   1.158   .     T
