data_str_m1_o10_o16_pcu_sym.37
_audit_creation_date              2020-01-03
_audit_creation_method            'Materials Studio'
_symmetry_space_group_name_H-M    'P1'
_symmetry_Int_Tables_number       1
_symmetry_cell_setting            triclinic
loop_
_symmetry_equiv_pos_as_xyz
  x,y,z
_cell_length_a                    32.4372
_cell_length_b                    32.5761
_cell_length_c                    31.1161
_cell_angle_alpha                 96.7779
_cell_angle_beta                  74.6019
_cell_angle_gamma                 98.5896
loop_
_atom_site_label
_atom_site_type_symbol
_atom_site_fract_x
_atom_site_fract_y
_atom_site_fract_z
_atom_site_U_iso_or_equiv
_atom_site_adp_type
_atom_site_occupancy
C1     C     0.05270   0.15963   0.26003   0.00000  Uiso   1.00
C2     C     0.17246   0.16632   0.06004   0.00000  Uiso   1.00
C3     C     0.20570   0.10365   0.05925   0.00000  Uiso   1.00
C4     C     0.28078   0.17392   0.24005   0.00000  Uiso   1.00
C5     C     0.14394   0.19596   0.41928   0.00000  Uiso   1.00
C6     C     0.32672   0.17710   0.23644   0.00000  Uiso   1.00
C7     C     0.00737   0.15714   0.26383   0.00000  Uiso   1.00
C8     C     0.17831   0.32203   0.23412   0.00000  Uiso   1.00
C9     C     0.15189   0.01218   0.26418   0.00000  Uiso   1.00
C10    C     0.15601   0.05603   0.26030   0.00000  Uiso   1.00
C11    C     0.17618   0.27783   0.23981   0.00000  Uiso   1.00
C12    C     0.15155   0.25327   0.47516   0.00000  Uiso   1.00
C13    C     0.18518   0.14804   0.12944   0.00000  Uiso   1.00
C14    C     0.14811   0.18451   0.37104   0.00000  Uiso   1.00
C15    C     0.19783   0.08986   0.01776   0.00000  Uiso   1.00
C16    C     0.19047   0.14067   0.08148   0.00000  Uiso   1.00
C17    C     0.13911   0.23782   0.43606   0.00000  Uiso   1.00
C18    C     0.26677   0.09405   0.07834   0.00000  Uiso   1.00
C19    C     0.29683   0.07464   0.03668   0.00000  Uiso   1.00
C20    C     0.01072   0.09012   0.03466   0.00000  Uiso   1.00
C21    C     0.20207   0.32603   0.15778   0.00000  Uiso   1.00
C22    C     0.24425   0.31575   0.12501   0.00000  Uiso   1.00
C23    C     0.16438   0.22698   0.49968   0.00000  Uiso   1.00
C24    C     0.23727   0.29804   0.07951   0.00000  Uiso   1.00
C25    C     0.10809   0.18473   0.10544   0.00000  Uiso   1.00
C26    C     0.07799   0.19677   0.07975   0.00000  Uiso   1.00
C27    C     0.03087   0.18988   0.10594   0.00000  Uiso   1.00
C28    C     0.08808   0.27794   0.43148   0.00000  Uiso   1.00
C29    C     0.05234   0.24714   0.41765   0.00000  Uiso   1.00
C30    C     0.00799   0.26084   0.43935   0.00000  Uiso   1.00
C31    C     0.16214   0.18372   0.48793   0.00000  Uiso   1.00
C32    C     0.15211   0.16791   0.44685   0.00000  Uiso   1.00
C33    C     0.17224   0.15604   0.01460   0.00000  Uiso   1.00
C34    C     0.18018   0.11527   0.49589   0.00000  Uiso   1.00
C35    C     0.16826   0.09956   0.45676   0.00000  Uiso   1.00
C36    C     0.15128   0.12460   0.43437   0.00000  Uiso   1.00
F37    F     0.12207   0.32992   0.30006   0.00000  Uiso   1.00
F38    F     0.15372   0.29467   0.48805   0.00000  Uiso   1.00
F39    F     0.13281   0.10570   0.40161   0.00000  Uiso   1.00
H40    H     0.31892   0.13826   0.28898   0.00000  Uiso   1.00
H41    H     0.01699   0.12429   0.03195   0.00000  Uiso   1.00
H42    H     0.03160   0.07464   0.00480   0.00000  Uiso   1.00
H43    H     0.01913   0.08275   0.06502   0.00000  Uiso   1.00
H44    H     0.19012   0.01811   0.14537   0.00000  Uiso   1.00
H45    H     0.17734   0.29811   0.15832   0.00000  Uiso   1.00
H46    H     0.26783   0.01103   0.12080   0.00000  Uiso   1.00
H47    H     0.25802   0.29247   0.13872   0.00000  Uiso   1.00
H48    H     0.21607   0.26792   0.08291   0.00000  Uiso   1.00
H49    H     0.26869   0.29253   0.05604   0.00000  Uiso   1.00
H50    H     0.22236   0.32014   0.06544   0.00000  Uiso   1.00
H51    H     0.17021   0.06715   0.44454   0.00000  Uiso   1.00
H52    H     0.10029   0.20030   0.13987   0.00000  Uiso   1.00
H53    H     0.10161   0.15050   0.10908   0.00000  Uiso   1.00
H54    H     0.08652   0.23013   0.07297   0.00000  Uiso   1.00
H55    H     0.08178   0.17756   0.04733   0.00000  Uiso   1.00
H56    H     0.02524   0.21179   0.13645   0.00000  Uiso   1.00
H57    H     0.02196   0.15734   0.11556   0.00000  Uiso   1.00
H58    H     0.00988   0.19580   0.08493   0.00000  Uiso   1.00
H59    H     0.08740   0.30882   0.42003   0.00000  Uiso   1.00
H60    H     0.08139   0.28241   0.46867   0.00000  Uiso   1.00
H61    H     0.05783   0.24499   0.38069   0.00000  Uiso   1.00
H62    H     0.20546   0.05926   0.00274   0.00000  Uiso   1.00
H63    H     0.05302   0.21575   0.42791   0.00000  Uiso   1.00
H64    H     0.00138   0.26233   0.47638   0.00000  Uiso   1.00
H65    H     0.31621   0.23805   0.42855   0.00000  Uiso   1.00
H66    H     0.00619   0.29193   0.42913   0.00000  Uiso   1.00
H67    H     0.17714   0.24145   0.02717   0.00000  Uiso   1.00
H68    H     0.01595   0.19573   0.21158   0.00000  Uiso   1.00
H69    H     0.27449   0.08538   0.10853   0.00000  Uiso   1.00
H70    H     0.27304   0.12878   0.07944   0.00000  Uiso   1.00
H71    H     0.29169   0.04019   0.03711   0.00000  Uiso   1.00
H72    H     0.28934   0.08276   0.00613   0.00000  Uiso   1.00
O73    O     0.16667   0.16667   0.25000   0.00000  Uiso   1.00
O74    O     0.15451   0.12637   0.15458   0.00000  Uiso   1.00
O75    O     0.12940   0.20391   0.34968   0.00000  Uiso   1.00
O76    O     0.20824   0.17759   0.14606   0.00000  Uiso   1.00
O77    O     0.17451   0.15880   0.34968   0.00000  Uiso   1.00
O78    O     0.22327   0.07807   0.08025   0.00000  Uiso   1.00
O79    O     0.21008   0.00704   0.19996   0.00000  Uiso   1.00
O80    O     0.15169   0.19896   0.08496   0.00000  Uiso   1.00
O81    O     0.12918   0.26529   0.41058   0.00000  Uiso   1.00
O82    O     0.17930   0.08019   0.28213   0.00000  Uiso   1.00
O83    O     0.14632   0.26085   0.27013   0.00000  Uiso   1.00
O84    O     0.07412   0.13291   0.23413   0.00000  Uiso   1.00
O85    O     0.26693   0.19272   0.21360   0.00000  Uiso   1.00
O86    O     0.07071   0.18878   0.28213   0.00000  Uiso   1.00
O87    O     0.25491   0.15226   0.27013   0.00000  Uiso   1.00
O88    O     0.13760   0.06944   0.23413   0.00000  Uiso   1.00
O89    O     0.20345   0.25620   0.21360   0.00000  Uiso   1.00
Zn90   Zn    0.19338   0.13994   0.28734   0.00000  Uiso   1.00
Zn91   Zn    0.13379   0.12458   0.21875   0.00000  Uiso   1.00
Zn92   Zn    0.21056   0.19775   0.20657   0.00000  Uiso   1.00
Zn93   Zn    0.12893   0.20439   0.28733   0.00000  Uiso   1.00
C94    C     0.38603   0.15963   0.26003   0.00000  Uiso   1.00
C95    C     0.50579   0.16632   0.06004   0.00000  Uiso   1.00
C96    C     0.53903   0.10365   0.05925   0.00000  Uiso   1.00
C97    C     0.61411   0.17392   0.24005   0.00000  Uiso   1.00
C98    C     0.47727   0.19596   0.41928   0.00000  Uiso   1.00
C99    C     0.66005   0.17710   0.23644   0.00000  Uiso   1.00
C100   C     0.34070   0.15714   0.26383   0.00000  Uiso   1.00
C101   C     0.51164   0.32203   0.23412   0.00000  Uiso   1.00
C102   C     0.48522   0.01218   0.26418   0.00000  Uiso   1.00
C103   C     0.48935   0.05603   0.26030   0.00000  Uiso   1.00
C104   C     0.50951   0.27783   0.23981   0.00000  Uiso   1.00
C105   C     0.48488   0.25327   0.47516   0.00000  Uiso   1.00
C106   C     0.51851   0.14804   0.12944   0.00000  Uiso   1.00
C107   C     0.48144   0.18451   0.37104   0.00000  Uiso   1.00
C108   C     0.53116   0.08986   0.01776   0.00000  Uiso   1.00
C109   C     0.52381   0.14067   0.08148   0.00000  Uiso   1.00
C110   C     0.47244   0.23782   0.43606   0.00000  Uiso   1.00
C111   C     0.60010   0.09405   0.07834   0.00000  Uiso   1.00
C112   C     0.63017   0.07464   0.03668   0.00000  Uiso   1.00
C113   C     0.34405   0.09012   0.03466   0.00000  Uiso   1.00
C114   C     0.53540   0.32603   0.15778   0.00000  Uiso   1.00
C115   C     0.57759   0.31575   0.12501   0.00000  Uiso   1.00
C116   C     0.49772   0.22698   0.49968   0.00000  Uiso   1.00
C117   C     0.57060   0.29804   0.07951   0.00000  Uiso   1.00
C118   C     0.44142   0.18473   0.10544   0.00000  Uiso   1.00
C119   C     0.41132   0.19677   0.07975   0.00000  Uiso   1.00
C120   C     0.36421   0.18988   0.10594   0.00000  Uiso   1.00
C121   C     0.42141   0.27794   0.43148   0.00000  Uiso   1.00
C122   C     0.38568   0.24714   0.41765   0.00000  Uiso   1.00
C123   C     0.34132   0.26084   0.43935   0.00000  Uiso   1.00
C124   C     0.49547   0.18372   0.48793   0.00000  Uiso   1.00
C125   C     0.48544   0.16791   0.44685   0.00000  Uiso   1.00
C126   C     0.50557   0.15604   0.01460   0.00000  Uiso   1.00
C127   C     0.51351   0.11527   0.49589   0.00000  Uiso   1.00
C128   C     0.50159   0.09956   0.45676   0.00000  Uiso   1.00
C129   C     0.48461   0.12460   0.43437   0.00000  Uiso   1.00
F130   F     0.45540   0.32992   0.30006   0.00000  Uiso   1.00
F131   F     0.48705   0.29467   0.48805   0.00000  Uiso   1.00
F132   F     0.46614   0.10570   0.40161   0.00000  Uiso   1.00
H133   H     0.65226   0.13826   0.28898   0.00000  Uiso   1.00
H134   H     0.35033   0.12429   0.03195   0.00000  Uiso   1.00
H135   H     0.36493   0.07464   0.00480   0.00000  Uiso   1.00
H136   H     0.35246   0.08275   0.06502   0.00000  Uiso   1.00
H137   H     0.52346   0.01811   0.14537   0.00000  Uiso   1.00
H138   H     0.51067   0.29811   0.15832   0.00000  Uiso   1.00
H139   H     0.60116   0.01103   0.12080   0.00000  Uiso   1.00
H140   H     0.59135   0.29247   0.13872   0.00000  Uiso   1.00
H141   H     0.54940   0.26792   0.08291   0.00000  Uiso   1.00
H142   H     0.60203   0.29253   0.05604   0.00000  Uiso   1.00
H143   H     0.55569   0.32014   0.06544   0.00000  Uiso   1.00
H144   H     0.50354   0.06715   0.44454   0.00000  Uiso   1.00
H145   H     0.43362   0.20030   0.13987   0.00000  Uiso   1.00
H146   H     0.43495   0.15050   0.10908   0.00000  Uiso   1.00
H147   H     0.41986   0.23013   0.07297   0.00000  Uiso   1.00
H148   H     0.41512   0.17756   0.04733   0.00000  Uiso   1.00
H149   H     0.35858   0.21179   0.13645   0.00000  Uiso   1.00
H150   H     0.35529   0.15734   0.11556   0.00000  Uiso   1.00
H151   H     0.34322   0.19580   0.08493   0.00000  Uiso   1.00
H152   H     0.42074   0.30882   0.42003   0.00000  Uiso   1.00
H153   H     0.41472   0.28241   0.46867   0.00000  Uiso   1.00
H154   H     0.39116   0.24499   0.38069   0.00000  Uiso   1.00
H155   H     0.53879   0.05926   0.00274   0.00000  Uiso   1.00
H156   H     0.38635   0.21575   0.42791   0.00000  Uiso   1.00
H157   H     0.33471   0.26233   0.47638   0.00000  Uiso   1.00
H158   H     0.64954   0.23805   0.42855   0.00000  Uiso   1.00
H159   H     0.33953   0.29193   0.42913   0.00000  Uiso   1.00
H160   H     0.51048   0.24145   0.02717   0.00000  Uiso   1.00
H161   H     0.34928   0.19573   0.21158   0.00000  Uiso   1.00
H162   H     0.60782   0.08538   0.10853   0.00000  Uiso   1.00
H163   H     0.60637   0.12878   0.07944   0.00000  Uiso   1.00
H164   H     0.62502   0.04019   0.03711   0.00000  Uiso   1.00
H165   H     0.62268   0.08276   0.00613   0.00000  Uiso   1.00
O166   O     0.50000   0.16667   0.25000   0.00000  Uiso   1.00
O167   O     0.48784   0.12637   0.15458   0.00000  Uiso   1.00
O168   O     0.46274   0.20391   0.34968   0.00000  Uiso   1.00
O169   O     0.54157   0.17759   0.14606   0.00000  Uiso   1.00
O170   O     0.50785   0.15880   0.34968   0.00000  Uiso   1.00
O171   O     0.55661   0.07807   0.08025   0.00000  Uiso   1.00
O172   O     0.54341   0.00704   0.19996   0.00000  Uiso   1.00
O173   O     0.48503   0.19896   0.08496   0.00000  Uiso   1.00
O174   O     0.46251   0.26529   0.41058   0.00000  Uiso   1.00
O175   O     0.51264   0.08019   0.28213   0.00000  Uiso   1.00
O176   O     0.47965   0.26085   0.27013   0.00000  Uiso   1.00
O177   O     0.40745   0.13291   0.23413   0.00000  Uiso   1.00
O178   O     0.60026   0.19272   0.21360   0.00000  Uiso   1.00
O179   O     0.40405   0.18878   0.28213   0.00000  Uiso   1.00
O180   O     0.58824   0.15226   0.27013   0.00000  Uiso   1.00
O181   O     0.47093   0.06944   0.23413   0.00000  Uiso   1.00
O182   O     0.53678   0.25620   0.21360   0.00000  Uiso   1.00
Zn183  Zn    0.52672   0.13994   0.28734   0.00000  Uiso   1.00
Zn184  Zn    0.46713   0.12458   0.21875   0.00000  Uiso   1.00
Zn185  Zn    0.54389   0.19775   0.20657   0.00000  Uiso   1.00
Zn186  Zn    0.46226   0.20439   0.28733   0.00000  Uiso   1.00
C187   C     0.71937   0.15963   0.26003   0.00000  Uiso   1.00
C188   C     0.83912   0.16632   0.06004   0.00000  Uiso   1.00
C189   C     0.87236   0.10365   0.05925   0.00000  Uiso   1.00
C190   C     0.94745   0.17392   0.24005   0.00000  Uiso   1.00
C191   C     0.81061   0.19596   0.41928   0.00000  Uiso   1.00
C192   C     0.99338   0.17710   0.23644   0.00000  Uiso   1.00
C193   C     0.67404   0.15714   0.26383   0.00000  Uiso   1.00
C194   C     0.84498   0.32203   0.23412   0.00000  Uiso   1.00
C195   C     0.81856   0.01218   0.26418   0.00000  Uiso   1.00
C196   C     0.82268   0.05603   0.26030   0.00000  Uiso   1.00
C197   C     0.84284   0.27783   0.23981   0.00000  Uiso   1.00
C198   C     0.81821   0.25327   0.47516   0.00000  Uiso   1.00
C199   C     0.85185   0.14804   0.12944   0.00000  Uiso   1.00
C200   C     0.81477   0.18451   0.37104   0.00000  Uiso   1.00
C201   C     0.86450   0.08986   0.01776   0.00000  Uiso   1.00
C202   C     0.85714   0.14067   0.08148   0.00000  Uiso   1.00
C203   C     0.80577   0.23782   0.43606   0.00000  Uiso   1.00
C204   C     0.93343   0.09405   0.07834   0.00000  Uiso   1.00
C205   C     0.96350   0.07464   0.03668   0.00000  Uiso   1.00
C206   C     0.67738   0.09012   0.03466   0.00000  Uiso   1.00
C207   C     0.86873   0.32603   0.15778   0.00000  Uiso   1.00
C208   C     0.91092   0.31575   0.12501   0.00000  Uiso   1.00
C209   C     0.83105   0.22698   0.49968   0.00000  Uiso   1.00
C210   C     0.90393   0.29804   0.07951   0.00000  Uiso   1.00
C211   C     0.77476   0.18473   0.10544   0.00000  Uiso   1.00
C212   C     0.74465   0.19677   0.07975   0.00000  Uiso   1.00
C213   C     0.69754   0.18988   0.10594   0.00000  Uiso   1.00
C214   C     0.75474   0.27794   0.43148   0.00000  Uiso   1.00
C215   C     0.71901   0.24714   0.41765   0.00000  Uiso   1.00
C216   C     0.67465   0.26084   0.43935   0.00000  Uiso   1.00
C217   C     0.82880   0.18372   0.48793   0.00000  Uiso   1.00
C218   C     0.81878   0.16791   0.44685   0.00000  Uiso   1.00
C219   C     0.83890   0.15604   0.01460   0.00000  Uiso   1.00
C220   C     0.84685   0.11527   0.49589   0.00000  Uiso   1.00
C221   C     0.83492   0.09956   0.45676   0.00000  Uiso   1.00
C222   C     0.81795   0.12460   0.43437   0.00000  Uiso   1.00
F223   F     0.78874   0.32992   0.30006   0.00000  Uiso   1.00
F224   F     0.82039   0.29467   0.48805   0.00000  Uiso   1.00
F225   F     0.79948   0.10570   0.40161   0.00000  Uiso   1.00
H226   H     0.98559   0.13826   0.28898   0.00000  Uiso   1.00
H227   H     0.68366   0.12429   0.03195   0.00000  Uiso   1.00
H228   H     0.69826   0.07464   0.00480   0.00000  Uiso   1.00
H229   H     0.68579   0.08275   0.06502   0.00000  Uiso   1.00
H230   H     0.85679   0.01811   0.14537   0.00000  Uiso   1.00
H231   H     0.84401   0.29811   0.15832   0.00000  Uiso   1.00
H232   H     0.93450   0.01103   0.12080   0.00000  Uiso   1.00
H233   H     0.92469   0.29247   0.13872   0.00000  Uiso   1.00
H234   H     0.88273   0.26792   0.08291   0.00000  Uiso   1.00
H235   H     0.93536   0.29253   0.05604   0.00000  Uiso   1.00
H236   H     0.88902   0.32014   0.06544   0.00000  Uiso   1.00
H237   H     0.83688   0.06715   0.44454   0.00000  Uiso   1.00
H238   H     0.76696   0.20030   0.13987   0.00000  Uiso   1.00
H239   H     0.76828   0.15050   0.10908   0.00000  Uiso   1.00
H240   H     0.75319   0.23013   0.07297   0.00000  Uiso   1.00
H241   H     0.74845   0.17756   0.04733   0.00000  Uiso   1.00
H242   H     0.69191   0.21179   0.13645   0.00000  Uiso   1.00
H243   H     0.68863   0.15734   0.11556   0.00000  Uiso   1.00
H244   H     0.67655   0.19580   0.08493   0.00000  Uiso   1.00
H245   H     0.75407   0.30882   0.42003   0.00000  Uiso   1.00
H246   H     0.74805   0.28241   0.46867   0.00000  Uiso   1.00
H247   H     0.72449   0.24499   0.38069   0.00000  Uiso   1.00
H248   H     0.87213   0.05926   0.00274   0.00000  Uiso   1.00
H249   H     0.71968   0.21575   0.42791   0.00000  Uiso   1.00
H250   H     0.66805   0.26233   0.47638   0.00000  Uiso   1.00
H251   H     0.98288   0.23805   0.42855   0.00000  Uiso   1.00
H252   H     0.67286   0.29193   0.42913   0.00000  Uiso   1.00
H253   H     0.84381   0.24145   0.02717   0.00000  Uiso   1.00
H254   H     0.68261   0.19573   0.21158   0.00000  Uiso   1.00
H255   H     0.94115   0.08538   0.10853   0.00000  Uiso   1.00
H256   H     0.93970   0.12878   0.07944   0.00000  Uiso   1.00
H257   H     0.95836   0.04019   0.03711   0.00000  Uiso   1.00
H258   H     0.95601   0.08276   0.00613   0.00000  Uiso   1.00
O259   O     0.83333   0.16667   0.25000   0.00000  Uiso   1.00
O260   O     0.82118   0.12637   0.15458   0.00000  Uiso   1.00
O261   O     0.79607   0.20391   0.34968   0.00000  Uiso   1.00
O262   O     0.87491   0.17759   0.14606   0.00000  Uiso   1.00
O263   O     0.84118   0.15880   0.34968   0.00000  Uiso   1.00
O264   O     0.88994   0.07807   0.08025   0.00000  Uiso   1.00
O265   O     0.87674   0.00704   0.19996   0.00000  Uiso   1.00
O266   O     0.81836   0.19896   0.08496   0.00000  Uiso   1.00
O267   O     0.79585   0.26529   0.41058   0.00000  Uiso   1.00
O268   O     0.84597   0.08019   0.28213   0.00000  Uiso   1.00
O269   O     0.81298   0.26085   0.27013   0.00000  Uiso   1.00
O270   O     0.74078   0.13291   0.23413   0.00000  Uiso   1.00
O271   O     0.93360   0.19272   0.21360   0.00000  Uiso   1.00
O272   O     0.73738   0.18878   0.28213   0.00000  Uiso   1.00
O273   O     0.92158   0.15226   0.27013   0.00000  Uiso   1.00
O274   O     0.80426   0.06944   0.23413   0.00000  Uiso   1.00
O275   O     0.87012   0.25620   0.21360   0.00000  Uiso   1.00
Zn276  Zn    0.86005   0.13994   0.28734   0.00000  Uiso   1.00
Zn277  Zn    0.80046   0.12458   0.21875   0.00000  Uiso   1.00
Zn278  Zn    0.87723   0.19775   0.20657   0.00000  Uiso   1.00
Zn279  Zn    0.79560   0.20439   0.28733   0.00000  Uiso   1.00
C280   C     0.05270   0.49296   0.26003   0.00000  Uiso   1.00
C281   C     0.17246   0.49966   0.06004   0.00000  Uiso   1.00
C282   C     0.20570   0.43698   0.05925   0.00000  Uiso   1.00
C283   C     0.28078   0.50725   0.24005   0.00000  Uiso   1.00
C284   C     0.14394   0.52930   0.41928   0.00000  Uiso   1.00
C285   C     0.32672   0.51043   0.23644   0.00000  Uiso   1.00
C286   C     0.00737   0.49048   0.26383   0.00000  Uiso   1.00
C287   C     0.17831   0.65536   0.23412   0.00000  Uiso   1.00
C288   C     0.15189   0.34551   0.26418   0.00000  Uiso   1.00
C289   C     0.15601   0.38936   0.26030   0.00000  Uiso   1.00
C290   C     0.17618   0.61116   0.23981   0.00000  Uiso   1.00
C291   C     0.15155   0.58660   0.47516   0.00000  Uiso   1.00
C292   C     0.18518   0.48138   0.12944   0.00000  Uiso   1.00
C293   C     0.14811   0.51785   0.37104   0.00000  Uiso   1.00
C294   C     0.19783   0.42320   0.01776   0.00000  Uiso   1.00
C295   C     0.19047   0.47400   0.08148   0.00000  Uiso   1.00
C296   C     0.13911   0.57115   0.43606   0.00000  Uiso   1.00
C297   C     0.26677   0.42738   0.07834   0.00000  Uiso   1.00
C298   C     0.29683   0.40797   0.03668   0.00000  Uiso   1.00
C299   C     0.01072   0.42345   0.03466   0.00000  Uiso   1.00
C300   C     0.20207   0.65936   0.15778   0.00000  Uiso   1.00
C301   C     0.24425   0.64908   0.12501   0.00000  Uiso   1.00
C302   C     0.16438   0.56031   0.49968   0.00000  Uiso   1.00
C303   C     0.23727   0.63138   0.07951   0.00000  Uiso   1.00
C304   C     0.10809   0.51807   0.10544   0.00000  Uiso   1.00
C305   C     0.07799   0.53010   0.07975   0.00000  Uiso   1.00
C306   C     0.03087   0.52322   0.10594   0.00000  Uiso   1.00
C307   C     0.08808   0.61128   0.43148   0.00000  Uiso   1.00
C308   C     0.05234   0.58047   0.41765   0.00000  Uiso   1.00
C309   C     0.00799   0.59417   0.43935   0.00000  Uiso   1.00
C310   C     0.16214   0.51705   0.48793   0.00000  Uiso   1.00
C311   C     0.15211   0.50125   0.44685   0.00000  Uiso   1.00
C312   C     0.17224   0.48938   0.01460   0.00000  Uiso   1.00
C313   C     0.18018   0.44861   0.49589   0.00000  Uiso   1.00
C314   C     0.16826   0.43289   0.45676   0.00000  Uiso   1.00
C315   C     0.15128   0.45793   0.43437   0.00000  Uiso   1.00
F316   F     0.12207   0.66325   0.30006   0.00000  Uiso   1.00
F317   F     0.15372   0.62800   0.48805   0.00000  Uiso   1.00
F318   F     0.13281   0.43903   0.40161   0.00000  Uiso   1.00
H319   H     0.31892   0.47160   0.28898   0.00000  Uiso   1.00
H320   H     0.01699   0.45762   0.03195   0.00000  Uiso   1.00
H321   H     0.03160   0.40797   0.00480   0.00000  Uiso   1.00
H322   H     0.01913   0.41609   0.06502   0.00000  Uiso   1.00
H323   H     0.19012   0.35144   0.14537   0.00000  Uiso   1.00
H324   H     0.17734   0.63144   0.15832   0.00000  Uiso   1.00
H325   H     0.26783   0.34436   0.12080   0.00000  Uiso   1.00
H326   H     0.25802   0.62580   0.13872   0.00000  Uiso   1.00
H327   H     0.21607   0.60125   0.08291   0.00000  Uiso   1.00
H328   H     0.26869   0.62587   0.05604   0.00000  Uiso   1.00
H329   H     0.22236   0.65347   0.06544   0.00000  Uiso   1.00
H330   H     0.17021   0.40048   0.44454   0.00000  Uiso   1.00
H331   H     0.10029   0.53363   0.13987   0.00000  Uiso   1.00
H332   H     0.10161   0.48383   0.10908   0.00000  Uiso   1.00
H333   H     0.08652   0.56346   0.07297   0.00000  Uiso   1.00
H334   H     0.08178   0.51089   0.04733   0.00000  Uiso   1.00
H335   H     0.02524   0.54512   0.13645   0.00000  Uiso   1.00
H336   H     0.02196   0.49068   0.11556   0.00000  Uiso   1.00
H337   H     0.00988   0.52914   0.08493   0.00000  Uiso   1.00
H338   H     0.08740   0.64215   0.42003   0.00000  Uiso   1.00
H339   H     0.08139   0.61574   0.46867   0.00000  Uiso   1.00
H340   H     0.05783   0.57832   0.38069   0.00000  Uiso   1.00
H341   H     0.20546   0.39260   0.00274   0.00000  Uiso   1.00
H342   H     0.05302   0.54909   0.42791   0.00000  Uiso   1.00
H343   H     0.00138   0.59567   0.47638   0.00000  Uiso   1.00
H344   H     0.31621   0.57138   0.42855   0.00000  Uiso   1.00
H345   H     0.00619   0.62527   0.42913   0.00000  Uiso   1.00
H346   H     0.17714   0.57478   0.02717   0.00000  Uiso   1.00
H347   H     0.01595   0.52906   0.21158   0.00000  Uiso   1.00
H348   H     0.27449   0.41872   0.10853   0.00000  Uiso   1.00
H349   H     0.27304   0.46211   0.07944   0.00000  Uiso   1.00
H350   H     0.29169   0.37352   0.03711   0.00000  Uiso   1.00
H351   H     0.28934   0.41609   0.00613   0.00000  Uiso   1.00
O352   O     0.16667   0.50000   0.25000   0.00000  Uiso   1.00
O353   O     0.15451   0.45970   0.15458   0.00000  Uiso   1.00
O354   O     0.12940   0.53724   0.34968   0.00000  Uiso   1.00
O355   O     0.20824   0.51092   0.14606   0.00000  Uiso   1.00
O356   O     0.17451   0.49213   0.34968   0.00000  Uiso   1.00
O357   O     0.22327   0.41141   0.08025   0.00000  Uiso   1.00
O358   O     0.21008   0.34038   0.19996   0.00000  Uiso   1.00
O359   O     0.15169   0.53229   0.08496   0.00000  Uiso   1.00
O360   O     0.12918   0.59862   0.41058   0.00000  Uiso   1.00
O361   O     0.17930   0.41352   0.28213   0.00000  Uiso   1.00
O362   O     0.14632   0.59418   0.27013   0.00000  Uiso   1.00
O363   O     0.07412   0.46625   0.23413   0.00000  Uiso   1.00
O364   O     0.26693   0.52605   0.21360   0.00000  Uiso   1.00
O365   O     0.07071   0.52211   0.28213   0.00000  Uiso   1.00
O366   O     0.25491   0.48559   0.27013   0.00000  Uiso   1.00
O367   O     0.13760   0.40277   0.23413   0.00000  Uiso   1.00
O368   O     0.20345   0.58953   0.21360   0.00000  Uiso   1.00
Zn369  Zn    0.19338   0.47327   0.28734   0.00000  Uiso   1.00
Zn370  Zn    0.13379   0.45791   0.21875   0.00000  Uiso   1.00
Zn371  Zn    0.21056   0.53109   0.20657   0.00000  Uiso   1.00
Zn372  Zn    0.12893   0.53773   0.28733   0.00000  Uiso   1.00
C373   C     0.38603   0.49296   0.26003   0.00000  Uiso   1.00
C374   C     0.50579   0.49966   0.06004   0.00000  Uiso   1.00
C375   C     0.53903   0.43698   0.05925   0.00000  Uiso   1.00
C376   C     0.61411   0.50725   0.24005   0.00000  Uiso   1.00
C377   C     0.47727   0.52930   0.41928   0.00000  Uiso   1.00
C378   C     0.66005   0.51043   0.23644   0.00000  Uiso   1.00
C379   C     0.34070   0.49048   0.26383   0.00000  Uiso   1.00
C380   C     0.51164   0.65536   0.23412   0.00000  Uiso   1.00
C381   C     0.48522   0.34551   0.26418   0.00000  Uiso   1.00
C382   C     0.48935   0.38936   0.26030   0.00000  Uiso   1.00
C383   C     0.50951   0.61116   0.23981   0.00000  Uiso   1.00
C384   C     0.48488   0.58660   0.47516   0.00000  Uiso   1.00
C385   C     0.51851   0.48138   0.12944   0.00000  Uiso   1.00
C386   C     0.48144   0.51785   0.37104   0.00000  Uiso   1.00
C387   C     0.53116   0.42320   0.01776   0.00000  Uiso   1.00
C388   C     0.52381   0.47400   0.08148   0.00000  Uiso   1.00
C389   C     0.47244   0.57115   0.43606   0.00000  Uiso   1.00
C390   C     0.60010   0.42738   0.07834   0.00000  Uiso   1.00
C391   C     0.63017   0.40797   0.03668   0.00000  Uiso   1.00
C392   C     0.34405   0.42345   0.03466   0.00000  Uiso   1.00
C393   C     0.53540   0.65936   0.15778   0.00000  Uiso   1.00
C394   C     0.57759   0.64908   0.12501   0.00000  Uiso   1.00
C395   C     0.49772   0.56031   0.49968   0.00000  Uiso   1.00
C396   C     0.57060   0.63138   0.07951   0.00000  Uiso   1.00
C397   C     0.44142   0.51807   0.10544   0.00000  Uiso   1.00
C398   C     0.41132   0.53010   0.07975   0.00000  Uiso   1.00
C399   C     0.36421   0.52322   0.10594   0.00000  Uiso   1.00
C400   C     0.42141   0.61128   0.43148   0.00000  Uiso   1.00
C401   C     0.38568   0.58047   0.41765   0.00000  Uiso   1.00
C402   C     0.34132   0.59417   0.43935   0.00000  Uiso   1.00
C403   C     0.49547   0.51705   0.48793   0.00000  Uiso   1.00
C404   C     0.48544   0.50125   0.44685   0.00000  Uiso   1.00
C405   C     0.50557   0.48938   0.01460   0.00000  Uiso   1.00
C406   C     0.51351   0.44861   0.49589   0.00000  Uiso   1.00
C407   C     0.50159   0.43289   0.45676   0.00000  Uiso   1.00
C408   C     0.48461   0.45793   0.43437   0.00000  Uiso   1.00
F409   F     0.45540   0.66325   0.30006   0.00000  Uiso   1.00
F410   F     0.48705   0.62800   0.48805   0.00000  Uiso   1.00
F411   F     0.46614   0.43903   0.40161   0.00000  Uiso   1.00
H412   H     0.65226   0.47160   0.28898   0.00000  Uiso   1.00
H413   H     0.35033   0.45762   0.03195   0.00000  Uiso   1.00
H414   H     0.36493   0.40797   0.00480   0.00000  Uiso   1.00
H415   H     0.35246   0.41609   0.06502   0.00000  Uiso   1.00
H416   H     0.52346   0.35144   0.14537   0.00000  Uiso   1.00
H417   H     0.51067   0.63144   0.15832   0.00000  Uiso   1.00
H418   H     0.60116   0.34436   0.12080   0.00000  Uiso   1.00
H419   H     0.59135   0.62580   0.13872   0.00000  Uiso   1.00
H420   H     0.54940   0.60125   0.08291   0.00000  Uiso   1.00
H421   H     0.60203   0.62587   0.05604   0.00000  Uiso   1.00
H422   H     0.55569   0.65347   0.06544   0.00000  Uiso   1.00
H423   H     0.50354   0.40048   0.44454   0.00000  Uiso   1.00
H424   H     0.43362   0.53363   0.13987   0.00000  Uiso   1.00
H425   H     0.43495   0.48383   0.10908   0.00000  Uiso   1.00
H426   H     0.41986   0.56346   0.07297   0.00000  Uiso   1.00
H427   H     0.41512   0.51089   0.04733   0.00000  Uiso   1.00
H428   H     0.35858   0.54512   0.13645   0.00000  Uiso   1.00
H429   H     0.35529   0.49068   0.11556   0.00000  Uiso   1.00
H430   H     0.34322   0.52914   0.08493   0.00000  Uiso   1.00
H431   H     0.42074   0.64215   0.42003   0.00000  Uiso   1.00
H432   H     0.41472   0.61574   0.46867   0.00000  Uiso   1.00
H433   H     0.39116   0.57832   0.38069   0.00000  Uiso   1.00
H434   H     0.53879   0.39260   0.00274   0.00000  Uiso   1.00
H435   H     0.38635   0.54909   0.42791   0.00000  Uiso   1.00
H436   H     0.33471   0.59567   0.47638   0.00000  Uiso   1.00
H437   H     0.64954   0.57138   0.42855   0.00000  Uiso   1.00
H438   H     0.33953   0.62527   0.42913   0.00000  Uiso   1.00
H439   H     0.51048   0.57478   0.02717   0.00000  Uiso   1.00
H440   H     0.34928   0.52906   0.21158   0.00000  Uiso   1.00
H441   H     0.60782   0.41872   0.10853   0.00000  Uiso   1.00
H442   H     0.60637   0.46211   0.07944   0.00000  Uiso   1.00
H443   H     0.62502   0.37352   0.03711   0.00000  Uiso   1.00
H444   H     0.62268   0.41609   0.00613   0.00000  Uiso   1.00
O445   O     0.50000   0.50000   0.25000   0.00000  Uiso   1.00
O446   O     0.48784   0.45970   0.15458   0.00000  Uiso   1.00
O447   O     0.46274   0.53724   0.34968   0.00000  Uiso   1.00
O448   O     0.54157   0.51092   0.14606   0.00000  Uiso   1.00
O449   O     0.50785   0.49213   0.34968   0.00000  Uiso   1.00
O450   O     0.55661   0.41141   0.08025   0.00000  Uiso   1.00
O451   O     0.54341   0.34038   0.19996   0.00000  Uiso   1.00
O452   O     0.48503   0.53229   0.08496   0.00000  Uiso   1.00
O453   O     0.46251   0.59862   0.41058   0.00000  Uiso   1.00
O454   O     0.51264   0.41352   0.28213   0.00000  Uiso   1.00
O455   O     0.47965   0.59418   0.27013   0.00000  Uiso   1.00
O456   O     0.40745   0.46625   0.23413   0.00000  Uiso   1.00
O457   O     0.60026   0.52605   0.21360   0.00000  Uiso   1.00
O458   O     0.40405   0.52211   0.28213   0.00000  Uiso   1.00
O459   O     0.58824   0.48559   0.27013   0.00000  Uiso   1.00
O460   O     0.47093   0.40277   0.23413   0.00000  Uiso   1.00
O461   O     0.53678   0.58953   0.21360   0.00000  Uiso   1.00
Zn462  Zn    0.52672   0.47327   0.28734   0.00000  Uiso   1.00
Zn463  Zn    0.46713   0.45791   0.21875   0.00000  Uiso   1.00
Zn464  Zn    0.54389   0.53109   0.20657   0.00000  Uiso   1.00
Zn465  Zn    0.46226   0.53773   0.28733   0.00000  Uiso   1.00
C466   C     0.71937   0.49296   0.26003   0.00000  Uiso   1.00
C467   C     0.83912   0.49966   0.06004   0.00000  Uiso   1.00
C468   C     0.87236   0.43698   0.05925   0.00000  Uiso   1.00
C469   C     0.94745   0.50725   0.24005   0.00000  Uiso   1.00
C470   C     0.81061   0.52930   0.41928   0.00000  Uiso   1.00
C471   C     0.99338   0.51043   0.23644   0.00000  Uiso   1.00
C472   C     0.67404   0.49048   0.26383   0.00000  Uiso   1.00
C473   C     0.84498   0.65536   0.23412   0.00000  Uiso   1.00
C474   C     0.81856   0.34551   0.26418   0.00000  Uiso   1.00
C475   C     0.82268   0.38936   0.26030   0.00000  Uiso   1.00
C476   C     0.84284   0.61116   0.23981   0.00000  Uiso   1.00
C477   C     0.81821   0.58660   0.47516   0.00000  Uiso   1.00
C478   C     0.85185   0.48138   0.12944   0.00000  Uiso   1.00
C479   C     0.81477   0.51785   0.37104   0.00000  Uiso   1.00
C480   C     0.86450   0.42320   0.01776   0.00000  Uiso   1.00
C481   C     0.85714   0.47400   0.08148   0.00000  Uiso   1.00
C482   C     0.80577   0.57115   0.43606   0.00000  Uiso   1.00
C483   C     0.93343   0.42738   0.07834   0.00000  Uiso   1.00
C484   C     0.96350   0.40797   0.03668   0.00000  Uiso   1.00
C485   C     0.67738   0.42345   0.03466   0.00000  Uiso   1.00
C486   C     0.86873   0.65936   0.15778   0.00000  Uiso   1.00
C487   C     0.91092   0.64908   0.12501   0.00000  Uiso   1.00
C488   C     0.83105   0.56031   0.49968   0.00000  Uiso   1.00
C489   C     0.90393   0.63138   0.07951   0.00000  Uiso   1.00
C490   C     0.77476   0.51807   0.10544   0.00000  Uiso   1.00
C491   C     0.74465   0.53010   0.07975   0.00000  Uiso   1.00
C492   C     0.69754   0.52322   0.10594   0.00000  Uiso   1.00
C493   C     0.75474   0.61128   0.43148   0.00000  Uiso   1.00
C494   C     0.71901   0.58047   0.41765   0.00000  Uiso   1.00
C495   C     0.67465   0.59417   0.43935   0.00000  Uiso   1.00
C496   C     0.82880   0.51705   0.48793   0.00000  Uiso   1.00
C497   C     0.81878   0.50125   0.44685   0.00000  Uiso   1.00
C498   C     0.83890   0.48938   0.01460   0.00000  Uiso   1.00
C499   C     0.84685   0.44861   0.49589   0.00000  Uiso   1.00
C500   C     0.83492   0.43289   0.45676   0.00000  Uiso   1.00
C501   C     0.81795   0.45793   0.43437   0.00000  Uiso   1.00
F502   F     0.78874   0.66325   0.30006   0.00000  Uiso   1.00
F503   F     0.82039   0.62800   0.48805   0.00000  Uiso   1.00
F504   F     0.79948   0.43903   0.40161   0.00000  Uiso   1.00
H505   H     0.98559   0.47160   0.28898   0.00000  Uiso   1.00
H506   H     0.68366   0.45762   0.03195   0.00000  Uiso   1.00
H507   H     0.69826   0.40797   0.00480   0.00000  Uiso   1.00
H508   H     0.68579   0.41609   0.06502   0.00000  Uiso   1.00
H509   H     0.85679   0.35144   0.14537   0.00000  Uiso   1.00
H510   H     0.84401   0.63144   0.15832   0.00000  Uiso   1.00
H511   H     0.93450   0.34436   0.12080   0.00000  Uiso   1.00
H512   H     0.92469   0.62580   0.13872   0.00000  Uiso   1.00
H513   H     0.88273   0.60125   0.08291   0.00000  Uiso   1.00
H514   H     0.93536   0.62587   0.05604   0.00000  Uiso   1.00
H515   H     0.88902   0.65347   0.06544   0.00000  Uiso   1.00
H516   H     0.83688   0.40048   0.44454   0.00000  Uiso   1.00
H517   H     0.76696   0.53363   0.13987   0.00000  Uiso   1.00
H518   H     0.76828   0.48383   0.10908   0.00000  Uiso   1.00
H519   H     0.75319   0.56346   0.07297   0.00000  Uiso   1.00
H520   H     0.74845   0.51089   0.04733   0.00000  Uiso   1.00
H521   H     0.69191   0.54512   0.13645   0.00000  Uiso   1.00
H522   H     0.68863   0.49068   0.11556   0.00000  Uiso   1.00
H523   H     0.67655   0.52914   0.08493   0.00000  Uiso   1.00
H524   H     0.75407   0.64215   0.42003   0.00000  Uiso   1.00
H525   H     0.74805   0.61574   0.46867   0.00000  Uiso   1.00
H526   H     0.72449   0.57832   0.38069   0.00000  Uiso   1.00
H527   H     0.87213   0.39260   0.00274   0.00000  Uiso   1.00
H528   H     0.71968   0.54909   0.42791   0.00000  Uiso   1.00
H529   H     0.66805   0.59567   0.47638   0.00000  Uiso   1.00
H530   H     0.98288   0.57138   0.42855   0.00000  Uiso   1.00
H531   H     0.67286   0.62527   0.42913   0.00000  Uiso   1.00
H532   H     0.84381   0.57478   0.02717   0.00000  Uiso   1.00
H533   H     0.68261   0.52906   0.21158   0.00000  Uiso   1.00
H534   H     0.94115   0.41872   0.10853   0.00000  Uiso   1.00
H535   H     0.93970   0.46211   0.07944   0.00000  Uiso   1.00
H536   H     0.95836   0.37352   0.03711   0.00000  Uiso   1.00
H537   H     0.95601   0.41609   0.00613   0.00000  Uiso   1.00
O538   O     0.83333   0.50000   0.25000   0.00000  Uiso   1.00
O539   O     0.82118   0.45970   0.15458   0.00000  Uiso   1.00
O540   O     0.79607   0.53724   0.34968   0.00000  Uiso   1.00
O541   O     0.87491   0.51092   0.14606   0.00000  Uiso   1.00
O542   O     0.84118   0.49213   0.34968   0.00000  Uiso   1.00
O543   O     0.88994   0.41141   0.08025   0.00000  Uiso   1.00
O544   O     0.87674   0.34038   0.19996   0.00000  Uiso   1.00
O545   O     0.81836   0.53229   0.08496   0.00000  Uiso   1.00
O546   O     0.79585   0.59862   0.41058   0.00000  Uiso   1.00
O547   O     0.84597   0.41352   0.28213   0.00000  Uiso   1.00
O548   O     0.81298   0.59418   0.27013   0.00000  Uiso   1.00
O549   O     0.74078   0.46625   0.23413   0.00000  Uiso   1.00
O550   O     0.93360   0.52605   0.21360   0.00000  Uiso   1.00
O551   O     0.73738   0.52211   0.28213   0.00000  Uiso   1.00
O552   O     0.92158   0.48559   0.27013   0.00000  Uiso   1.00
O553   O     0.80426   0.40277   0.23413   0.00000  Uiso   1.00
O554   O     0.87012   0.58953   0.21360   0.00000  Uiso   1.00
Zn555  Zn    0.86005   0.47327   0.28734   0.00000  Uiso   1.00
Zn556  Zn    0.80046   0.45791   0.21875   0.00000  Uiso   1.00
Zn557  Zn    0.87723   0.53109   0.20657   0.00000  Uiso   1.00
Zn558  Zn    0.79560   0.53773   0.28733   0.00000  Uiso   1.00
C559   C     0.05270   0.82630   0.26003   0.00000  Uiso   1.00
C560   C     0.17246   0.83299   0.06004   0.00000  Uiso   1.00
C561   C     0.20570   0.77031   0.05925   0.00000  Uiso   1.00
C562   C     0.28078   0.84058   0.24005   0.00000  Uiso   1.00
C563   C     0.14394   0.86263   0.41928   0.00000  Uiso   1.00
C564   C     0.32672   0.84376   0.23644   0.00000  Uiso   1.00
C565   C     0.00737   0.82381   0.26383   0.00000  Uiso   1.00
C566   C     0.17831   0.98869   0.23412   0.00000  Uiso   1.00
C567   C     0.15189   0.67885   0.26418   0.00000  Uiso   1.00
C568   C     0.15601   0.72269   0.26030   0.00000  Uiso   1.00
C569   C     0.17618   0.94450   0.23981   0.00000  Uiso   1.00
C570   C     0.15155   0.91993   0.47516   0.00000  Uiso   1.00
C571   C     0.18518   0.81471   0.12944   0.00000  Uiso   1.00
C572   C     0.14811   0.85118   0.37104   0.00000  Uiso   1.00
C573   C     0.19783   0.75653   0.01776   0.00000  Uiso   1.00
C574   C     0.19047   0.80734   0.08148   0.00000  Uiso   1.00
C575   C     0.13911   0.90449   0.43606   0.00000  Uiso   1.00
C576   C     0.26677   0.76072   0.07834   0.00000  Uiso   1.00
C577   C     0.29683   0.74131   0.03668   0.00000  Uiso   1.00
C578   C     0.01072   0.75679   0.03466   0.00000  Uiso   1.00
C579   C     0.20207   0.99269   0.15778   0.00000  Uiso   1.00
C580   C     0.24425   0.98241   0.12501   0.00000  Uiso   1.00
C581   C     0.16438   0.89365   0.49968   0.00000  Uiso   1.00
C582   C     0.23727   0.96471   0.07951   0.00000  Uiso   1.00
C583   C     0.10809   0.85140   0.10544   0.00000  Uiso   1.00
C584   C     0.07799   0.86343   0.07975   0.00000  Uiso   1.00
C585   C     0.03087   0.85655   0.10594   0.00000  Uiso   1.00
C586   C     0.08808   0.94461   0.43148   0.00000  Uiso   1.00
C587   C     0.05234   0.91380   0.41765   0.00000  Uiso   1.00
C588   C     0.00799   0.92751   0.43935   0.00000  Uiso   1.00
C589   C     0.16214   0.85038   0.48793   0.00000  Uiso   1.00
C590   C     0.15211   0.83458   0.44685   0.00000  Uiso   1.00
C591   C     0.17224   0.82271   0.01460   0.00000  Uiso   1.00
C592   C     0.18018   0.78194   0.49589   0.00000  Uiso   1.00
C593   C     0.16826   0.76623   0.45676   0.00000  Uiso   1.00
C594   C     0.15128   0.79127   0.43437   0.00000  Uiso   1.00
F595   F     0.12207   0.99659   0.30006   0.00000  Uiso   1.00
F596   F     0.15372   0.96133   0.48805   0.00000  Uiso   1.00
F597   F     0.13281   0.77236   0.40161   0.00000  Uiso   1.00
H598   H     0.31892   0.80493   0.28898   0.00000  Uiso   1.00
H599   H     0.01699   0.79096   0.03195   0.00000  Uiso   1.00
H600   H     0.03160   0.74131   0.00480   0.00000  Uiso   1.00
H601   H     0.01913   0.74942   0.06502   0.00000  Uiso   1.00
H602   H     0.19012   0.68478   0.14537   0.00000  Uiso   1.00
H603   H     0.17734   0.96477   0.15832   0.00000  Uiso   1.00
H604   H     0.26783   0.67769   0.12080   0.00000  Uiso   1.00
H605   H     0.25802   0.95914   0.13872   0.00000  Uiso   1.00
H606   H     0.21607   0.93458   0.08291   0.00000  Uiso   1.00
H607   H     0.26869   0.95920   0.05604   0.00000  Uiso   1.00
H608   H     0.22236   0.98680   0.06544   0.00000  Uiso   1.00
H609   H     0.17021   0.73381   0.44454   0.00000  Uiso   1.00
H610   H     0.10029   0.86697   0.13987   0.00000  Uiso   1.00
H611   H     0.10161   0.81716   0.10908   0.00000  Uiso   1.00
H612   H     0.08652   0.89680   0.07297   0.00000  Uiso   1.00
H613   H     0.08178   0.84423   0.04733   0.00000  Uiso   1.00
H614   H     0.02524   0.87846   0.13645   0.00000  Uiso   1.00
H615   H     0.02196   0.82401   0.11556   0.00000  Uiso   1.00
H616   H     0.00988   0.86247   0.08493   0.00000  Uiso   1.00
H617   H     0.08740   0.97549   0.42003   0.00000  Uiso   1.00
H618   H     0.08139   0.94908   0.46867   0.00000  Uiso   1.00
H619   H     0.05783   0.91166   0.38069   0.00000  Uiso   1.00
H620   H     0.20546   0.72593   0.00274   0.00000  Uiso   1.00
H621   H     0.05302   0.88242   0.42791   0.00000  Uiso   1.00
H622   H     0.00138   0.92900   0.47638   0.00000  Uiso   1.00
H623   H     0.31621   0.90472   0.42855   0.00000  Uiso   1.00
H624   H     0.00619   0.95860   0.42913   0.00000  Uiso   1.00
H625   H     0.17714   0.90812   0.02717   0.00000  Uiso   1.00
H626   H     0.01595   0.86239   0.21158   0.00000  Uiso   1.00
H627   H     0.27449   0.75205   0.10853   0.00000  Uiso   1.00
H628   H     0.27304   0.79545   0.07944   0.00000  Uiso   1.00
H629   H     0.29169   0.70686   0.03711   0.00000  Uiso   1.00
H630   H     0.28934   0.74943   0.00613   0.00000  Uiso   1.00
O631   O     0.16667   0.83333   0.25000   0.00000  Uiso   1.00
O632   O     0.15451   0.79304   0.15458   0.00000  Uiso   1.00
O633   O     0.12940   0.87058   0.34968   0.00000  Uiso   1.00
O634   O     0.20824   0.84425   0.14606   0.00000  Uiso   1.00
O635   O     0.17451   0.82546   0.34968   0.00000  Uiso   1.00
O636   O     0.22327   0.74474   0.08025   0.00000  Uiso   1.00
O637   O     0.21008   0.67371   0.19996   0.00000  Uiso   1.00
O638   O     0.15169   0.86563   0.08496   0.00000  Uiso   1.00
O639   O     0.12918   0.93196   0.41058   0.00000  Uiso   1.00
O640   O     0.17930   0.74686   0.28213   0.00000  Uiso   1.00
O641   O     0.14632   0.92751   0.27013   0.00000  Uiso   1.00
O642   O     0.07412   0.79958   0.23413   0.00000  Uiso   1.00
O643   O     0.26693   0.85939   0.21360   0.00000  Uiso   1.00
O644   O     0.07071   0.85544   0.28213   0.00000  Uiso   1.00
O645   O     0.25491   0.81892   0.27013   0.00000  Uiso   1.00
O646   O     0.13760   0.73610   0.23413   0.00000  Uiso   1.00
O647   O     0.20345   0.92286   0.21360   0.00000  Uiso   1.00
Zn648  Zn    0.19338   0.80661   0.28734   0.00000  Uiso   1.00
Zn649  Zn    0.13379   0.79124   0.21875   0.00000  Uiso   1.00
Zn650  Zn    0.21056   0.86442   0.20657   0.00000  Uiso   1.00
Zn651  Zn    0.12893   0.87106   0.28733   0.00000  Uiso   1.00
C652   C     0.38603   0.82630   0.26003   0.00000  Uiso   1.00
C653   C     0.50579   0.83299   0.06004   0.00000  Uiso   1.00
C654   C     0.53903   0.77031   0.05925   0.00000  Uiso   1.00
C655   C     0.61411   0.84058   0.24005   0.00000  Uiso   1.00
C656   C     0.47727   0.86263   0.41928   0.00000  Uiso   1.00
C657   C     0.66005   0.84376   0.23644   0.00000  Uiso   1.00
C658   C     0.34070   0.82381   0.26383   0.00000  Uiso   1.00
C659   C     0.51164   0.98869   0.23412   0.00000  Uiso   1.00
C660   C     0.48522   0.67885   0.26418   0.00000  Uiso   1.00
C661   C     0.48935   0.72269   0.26030   0.00000  Uiso   1.00
C662   C     0.50951   0.94450   0.23981   0.00000  Uiso   1.00
C663   C     0.48488   0.91993   0.47516   0.00000  Uiso   1.00
C664   C     0.51851   0.81471   0.12944   0.00000  Uiso   1.00
C665   C     0.48144   0.85118   0.37104   0.00000  Uiso   1.00
C666   C     0.53116   0.75653   0.01776   0.00000  Uiso   1.00
C667   C     0.52381   0.80734   0.08148   0.00000  Uiso   1.00
C668   C     0.47244   0.90449   0.43606   0.00000  Uiso   1.00
C669   C     0.60010   0.76072   0.07834   0.00000  Uiso   1.00
C670   C     0.63017   0.74131   0.03668   0.00000  Uiso   1.00
C671   C     0.34405   0.75679   0.03466   0.00000  Uiso   1.00
C672   C     0.53540   0.99269   0.15778   0.00000  Uiso   1.00
C673   C     0.57759   0.98241   0.12501   0.00000  Uiso   1.00
C674   C     0.49772   0.89365   0.49968   0.00000  Uiso   1.00
C675   C     0.57060   0.96471   0.07951   0.00000  Uiso   1.00
C676   C     0.44142   0.85140   0.10544   0.00000  Uiso   1.00
C677   C     0.41132   0.86343   0.07975   0.00000  Uiso   1.00
C678   C     0.36421   0.85655   0.10594   0.00000  Uiso   1.00
C679   C     0.42141   0.94461   0.43148   0.00000  Uiso   1.00
C680   C     0.38568   0.91380   0.41765   0.00000  Uiso   1.00
C681   C     0.34132   0.92751   0.43935   0.00000  Uiso   1.00
C682   C     0.49547   0.85038   0.48793   0.00000  Uiso   1.00
C683   C     0.48544   0.83458   0.44685   0.00000  Uiso   1.00
C684   C     0.50557   0.82271   0.01460   0.00000  Uiso   1.00
C685   C     0.51351   0.78194   0.49589   0.00000  Uiso   1.00
C686   C     0.50159   0.76623   0.45676   0.00000  Uiso   1.00
C687   C     0.48461   0.79127   0.43437   0.00000  Uiso   1.00
F688   F     0.45540   0.99659   0.30006   0.00000  Uiso   1.00
F689   F     0.48705   0.96133   0.48805   0.00000  Uiso   1.00
F690   F     0.46614   0.77236   0.40161   0.00000  Uiso   1.00
H691   H     0.65226   0.80493   0.28898   0.00000  Uiso   1.00
H692   H     0.35033   0.79096   0.03195   0.00000  Uiso   1.00
H693   H     0.36493   0.74131   0.00480   0.00000  Uiso   1.00
H694   H     0.35246   0.74942   0.06502   0.00000  Uiso   1.00
H695   H     0.52346   0.68478   0.14537   0.00000  Uiso   1.00
H696   H     0.51067   0.96477   0.15832   0.00000  Uiso   1.00
H697   H     0.60116   0.67769   0.12080   0.00000  Uiso   1.00
H698   H     0.59135   0.95914   0.13872   0.00000  Uiso   1.00
H699   H     0.54940   0.93458   0.08291   0.00000  Uiso   1.00
H700   H     0.60203   0.95920   0.05604   0.00000  Uiso   1.00
H701   H     0.55569   0.98680   0.06544   0.00000  Uiso   1.00
H702   H     0.50354   0.73381   0.44454   0.00000  Uiso   1.00
H703   H     0.43362   0.86697   0.13987   0.00000  Uiso   1.00
H704   H     0.43495   0.81716   0.10908   0.00000  Uiso   1.00
H705   H     0.41986   0.89680   0.07297   0.00000  Uiso   1.00
H706   H     0.41512   0.84423   0.04733   0.00000  Uiso   1.00
H707   H     0.35858   0.87846   0.13645   0.00000  Uiso   1.00
H708   H     0.35529   0.82401   0.11556   0.00000  Uiso   1.00
H709   H     0.34322   0.86247   0.08493   0.00000  Uiso   1.00
H710   H     0.42074   0.97549   0.42003   0.00000  Uiso   1.00
H711   H     0.41472   0.94908   0.46867   0.00000  Uiso   1.00
H712   H     0.39116   0.91166   0.38069   0.00000  Uiso   1.00
H713   H     0.53879   0.72593   0.00274   0.00000  Uiso   1.00
H714   H     0.38635   0.88242   0.42791   0.00000  Uiso   1.00
H715   H     0.33471   0.92900   0.47638   0.00000  Uiso   1.00
H716   H     0.64954   0.90472   0.42855   0.00000  Uiso   1.00
H717   H     0.33953   0.95860   0.42913   0.00000  Uiso   1.00
H718   H     0.51048   0.90812   0.02717   0.00000  Uiso   1.00
H719   H     0.34928   0.86239   0.21158   0.00000  Uiso   1.00
H720   H     0.60782   0.75205   0.10853   0.00000  Uiso   1.00
H721   H     0.60637   0.79545   0.07944   0.00000  Uiso   1.00
H722   H     0.62502   0.70686   0.03711   0.00000  Uiso   1.00
H723   H     0.62268   0.74943   0.00613   0.00000  Uiso   1.00
O724   O     0.50000   0.83333   0.25000   0.00000  Uiso   1.00
O725   O     0.48784   0.79304   0.15458   0.00000  Uiso   1.00
O726   O     0.46274   0.87058   0.34968   0.00000  Uiso   1.00
O727   O     0.54157   0.84425   0.14606   0.00000  Uiso   1.00
O728   O     0.50785   0.82546   0.34968   0.00000  Uiso   1.00
O729   O     0.55661   0.74474   0.08025   0.00000  Uiso   1.00
O730   O     0.54341   0.67371   0.19996   0.00000  Uiso   1.00
O731   O     0.48503   0.86563   0.08496   0.00000  Uiso   1.00
O732   O     0.46251   0.93196   0.41058   0.00000  Uiso   1.00
O733   O     0.51264   0.74686   0.28213   0.00000  Uiso   1.00
O734   O     0.47965   0.92751   0.27013   0.00000  Uiso   1.00
O735   O     0.40745   0.79958   0.23413   0.00000  Uiso   1.00
O736   O     0.60026   0.85939   0.21360   0.00000  Uiso   1.00
O737   O     0.40405   0.85544   0.28213   0.00000  Uiso   1.00
O738   O     0.58824   0.81892   0.27013   0.00000  Uiso   1.00
O739   O     0.47093   0.73610   0.23413   0.00000  Uiso   1.00
O740   O     0.53678   0.92286   0.21360   0.00000  Uiso   1.00
Zn741  Zn    0.52672   0.80661   0.28734   0.00000  Uiso   1.00
Zn742  Zn    0.46713   0.79124   0.21875   0.00000  Uiso   1.00
Zn743  Zn    0.54389   0.86442   0.20657   0.00000  Uiso   1.00
Zn744  Zn    0.46226   0.87106   0.28733   0.00000  Uiso   1.00
C745   C     0.71937   0.82630   0.26003   0.00000  Uiso   1.00
C746   C     0.83912   0.83299   0.06004   0.00000  Uiso   1.00
C747   C     0.87236   0.77031   0.05925   0.00000  Uiso   1.00
C748   C     0.94745   0.84058   0.24005   0.00000  Uiso   1.00
C749   C     0.81061   0.86263   0.41928   0.00000  Uiso   1.00
C750   C     0.99338   0.84376   0.23644   0.00000  Uiso   1.00
C751   C     0.67404   0.82381   0.26383   0.00000  Uiso   1.00
C752   C     0.84498   0.98869   0.23412   0.00000  Uiso   1.00
C753   C     0.81856   0.67885   0.26418   0.00000  Uiso   1.00
C754   C     0.82268   0.72269   0.26030   0.00000  Uiso   1.00
C755   C     0.84284   0.94450   0.23981   0.00000  Uiso   1.00
C756   C     0.81821   0.91993   0.47516   0.00000  Uiso   1.00
C757   C     0.85185   0.81471   0.12944   0.00000  Uiso   1.00
C758   C     0.81477   0.85118   0.37104   0.00000  Uiso   1.00
C759   C     0.86450   0.75653   0.01776   0.00000  Uiso   1.00
C760   C     0.85714   0.80734   0.08148   0.00000  Uiso   1.00
C761   C     0.80577   0.90449   0.43606   0.00000  Uiso   1.00
C762   C     0.93343   0.76072   0.07834   0.00000  Uiso   1.00
C763   C     0.96350   0.74131   0.03668   0.00000  Uiso   1.00
C764   C     0.67738   0.75679   0.03466   0.00000  Uiso   1.00
C765   C     0.86873   0.99269   0.15778   0.00000  Uiso   1.00
C766   C     0.91092   0.98241   0.12501   0.00000  Uiso   1.00
C767   C     0.83105   0.89365   0.49968   0.00000  Uiso   1.00
C768   C     0.90393   0.96471   0.07951   0.00000  Uiso   1.00
C769   C     0.77476   0.85140   0.10544   0.00000  Uiso   1.00
C770   C     0.74465   0.86343   0.07975   0.00000  Uiso   1.00
C771   C     0.69754   0.85655   0.10594   0.00000  Uiso   1.00
C772   C     0.75474   0.94461   0.43148   0.00000  Uiso   1.00
C773   C     0.71901   0.91380   0.41765   0.00000  Uiso   1.00
C774   C     0.67465   0.92751   0.43935   0.00000  Uiso   1.00
C775   C     0.82880   0.85038   0.48793   0.00000  Uiso   1.00
C776   C     0.81878   0.83458   0.44685   0.00000  Uiso   1.00
C777   C     0.83890   0.82271   0.01460   0.00000  Uiso   1.00
C778   C     0.84685   0.78194   0.49589   0.00000  Uiso   1.00
C779   C     0.83492   0.76623   0.45676   0.00000  Uiso   1.00
C780   C     0.81795   0.79127   0.43437   0.00000  Uiso   1.00
F781   F     0.78874   0.99659   0.30006   0.00000  Uiso   1.00
F782   F     0.82039   0.96133   0.48805   0.00000  Uiso   1.00
F783   F     0.79948   0.77236   0.40161   0.00000  Uiso   1.00
H784   H     0.98559   0.80493   0.28898   0.00000  Uiso   1.00
H785   H     0.68366   0.79096   0.03195   0.00000  Uiso   1.00
H786   H     0.69826   0.74131   0.00480   0.00000  Uiso   1.00
H787   H     0.68579   0.74942   0.06502   0.00000  Uiso   1.00
H788   H     0.85679   0.68478   0.14537   0.00000  Uiso   1.00
H789   H     0.84401   0.96477   0.15832   0.00000  Uiso   1.00
H790   H     0.93450   0.67769   0.12080   0.00000  Uiso   1.00
H791   H     0.92469   0.95914   0.13872   0.00000  Uiso   1.00
H792   H     0.88273   0.93458   0.08291   0.00000  Uiso   1.00
H793   H     0.93536   0.95920   0.05604   0.00000  Uiso   1.00
H794   H     0.88902   0.98680   0.06544   0.00000  Uiso   1.00
H795   H     0.83688   0.73381   0.44454   0.00000  Uiso   1.00
H796   H     0.76696   0.86697   0.13987   0.00000  Uiso   1.00
H797   H     0.76828   0.81716   0.10908   0.00000  Uiso   1.00
H798   H     0.75319   0.89680   0.07297   0.00000  Uiso   1.00
H799   H     0.74845   0.84423   0.04733   0.00000  Uiso   1.00
H800   H     0.69191   0.87846   0.13645   0.00000  Uiso   1.00
H801   H     0.68863   0.82401   0.11556   0.00000  Uiso   1.00
H802   H     0.67655   0.86247   0.08493   0.00000  Uiso   1.00
H803   H     0.75407   0.97549   0.42003   0.00000  Uiso   1.00
H804   H     0.74805   0.94908   0.46867   0.00000  Uiso   1.00
H805   H     0.72449   0.91166   0.38069   0.00000  Uiso   1.00
H806   H     0.87213   0.72593   0.00274   0.00000  Uiso   1.00
H807   H     0.71968   0.88242   0.42791   0.00000  Uiso   1.00
H808   H     0.66805   0.92900   0.47638   0.00000  Uiso   1.00
H809   H     0.98288   0.90472   0.42855   0.00000  Uiso   1.00
H810   H     0.67286   0.95860   0.42913   0.00000  Uiso   1.00
H811   H     0.84381   0.90812   0.02717   0.00000  Uiso   1.00
H812   H     0.68261   0.86239   0.21158   0.00000  Uiso   1.00
H813   H     0.94115   0.75205   0.10853   0.00000  Uiso   1.00
H814   H     0.93970   0.79545   0.07944   0.00000  Uiso   1.00
H815   H     0.95836   0.70686   0.03711   0.00000  Uiso   1.00
H816   H     0.95601   0.74943   0.00613   0.00000  Uiso   1.00
O817   O     0.83333   0.83333   0.25000   0.00000  Uiso   1.00
O818   O     0.82118   0.79304   0.15458   0.00000  Uiso   1.00
O819   O     0.79607   0.87058   0.34968   0.00000  Uiso   1.00
O820   O     0.87491   0.84425   0.14606   0.00000  Uiso   1.00
O821   O     0.84118   0.82546   0.34968   0.00000  Uiso   1.00
O822   O     0.88994   0.74474   0.08025   0.00000  Uiso   1.00
O823   O     0.87674   0.67371   0.19996   0.00000  Uiso   1.00
O824   O     0.81836   0.86563   0.08496   0.00000  Uiso   1.00
O825   O     0.79585   0.93196   0.41058   0.00000  Uiso   1.00
O826   O     0.84597   0.74686   0.28213   0.00000  Uiso   1.00
O827   O     0.81298   0.92751   0.27013   0.00000  Uiso   1.00
O828   O     0.74078   0.79958   0.23413   0.00000  Uiso   1.00
O829   O     0.93360   0.85939   0.21360   0.00000  Uiso   1.00
O830   O     0.73738   0.85544   0.28213   0.00000  Uiso   1.00
O831   O     0.92158   0.81892   0.27013   0.00000  Uiso   1.00
O832   O     0.80426   0.73610   0.23413   0.00000  Uiso   1.00
O833   O     0.87012   0.92286   0.21360   0.00000  Uiso   1.00
Zn834  Zn    0.86005   0.80661   0.28734   0.00000  Uiso   1.00
Zn835  Zn    0.80046   0.79124   0.21875   0.00000  Uiso   1.00
Zn836  Zn    0.87723   0.86442   0.20657   0.00000  Uiso   1.00
Zn837  Zn    0.79560   0.87106   0.28733   0.00000  Uiso   1.00
C838   C     0.05270   0.15963   0.76003   0.00000  Uiso   1.00
C839   C     0.17246   0.16632   0.56004   0.00000  Uiso   1.00
C840   C     0.20570   0.10365   0.55925   0.00000  Uiso   1.00
C841   C     0.28078   0.17392   0.74005   0.00000  Uiso   1.00
C842   C     0.14394   0.19596   0.91928   0.00000  Uiso   1.00
C843   C     0.32672   0.17710   0.73644   0.00000  Uiso   1.00
C844   C     0.00737   0.15714   0.76383   0.00000  Uiso   1.00
C845   C     0.17831   0.32203   0.73412   0.00000  Uiso   1.00
C846   C     0.15189   0.01218   0.76418   0.00000  Uiso   1.00
C847   C     0.15601   0.05603   0.76030   0.00000  Uiso   1.00
C848   C     0.17618   0.27783   0.73981   0.00000  Uiso   1.00
C849   C     0.15155   0.25327   0.97516   0.00000  Uiso   1.00
C850   C     0.18518   0.14804   0.62944   0.00000  Uiso   1.00
C851   C     0.14811   0.18451   0.87104   0.00000  Uiso   1.00
C852   C     0.19783   0.08986   0.51776   0.00000  Uiso   1.00
C853   C     0.19047   0.14067   0.58148   0.00000  Uiso   1.00
C854   C     0.13911   0.23782   0.93606   0.00000  Uiso   1.00
C855   C     0.26677   0.09405   0.57834   0.00000  Uiso   1.00
C856   C     0.29683   0.07464   0.53668   0.00000  Uiso   1.00
C857   C     0.01072   0.09012   0.53466   0.00000  Uiso   1.00
C858   C     0.20207   0.32603   0.65778   0.00000  Uiso   1.00
C859   C     0.24425   0.31575   0.62501   0.00000  Uiso   1.00
C860   C     0.16438   0.22698   0.99968   0.00000  Uiso   1.00
C861   C     0.23727   0.29804   0.57951   0.00000  Uiso   1.00
C862   C     0.10809   0.18473   0.60544   0.00000  Uiso   1.00
C863   C     0.07799   0.19677   0.57975   0.00000  Uiso   1.00
C864   C     0.03087   0.18988   0.60594   0.00000  Uiso   1.00
C865   C     0.08808   0.27794   0.93148   0.00000  Uiso   1.00
C866   C     0.05234   0.24714   0.91765   0.00000  Uiso   1.00
C867   C     0.00799   0.26084   0.93935   0.00000  Uiso   1.00
C868   C     0.16214   0.18372   0.98793   0.00000  Uiso   1.00
C869   C     0.15211   0.16791   0.94685   0.00000  Uiso   1.00
C870   C     0.17224   0.15604   0.51460   0.00000  Uiso   1.00
C871   C     0.18018   0.11527   0.99589   0.00000  Uiso   1.00
C872   C     0.16826   0.09956   0.95676   0.00000  Uiso   1.00
C873   C     0.15128   0.12460   0.93437   0.00000  Uiso   1.00
F874   F     0.12207   0.32992   0.80006   0.00000  Uiso   1.00
F875   F     0.15372   0.29467   0.98805   0.00000  Uiso   1.00
F876   F     0.13281   0.10570   0.90161   0.00000  Uiso   1.00
H877   H     0.31892   0.13826   0.78898   0.00000  Uiso   1.00
H878   H     0.01699   0.12429   0.53195   0.00000  Uiso   1.00
H879   H     0.03160   0.07464   0.50480   0.00000  Uiso   1.00
H880   H     0.01913   0.08275   0.56502   0.00000  Uiso   1.00
H881   H     0.19012   0.01811   0.64537   0.00000  Uiso   1.00
H882   H     0.17734   0.29811   0.65832   0.00000  Uiso   1.00
H883   H     0.26783   0.01103   0.62080   0.00000  Uiso   1.00
H884   H     0.25802   0.29247   0.63872   0.00000  Uiso   1.00
H885   H     0.21607   0.26792   0.58291   0.00000  Uiso   1.00
H886   H     0.26869   0.29253   0.55604   0.00000  Uiso   1.00
H887   H     0.22236   0.32014   0.56544   0.00000  Uiso   1.00
H888   H     0.17021   0.06715   0.94454   0.00000  Uiso   1.00
H889   H     0.10029   0.20030   0.63987   0.00000  Uiso   1.00
H890   H     0.10161   0.15050   0.60908   0.00000  Uiso   1.00
H891   H     0.08652   0.23013   0.57297   0.00000  Uiso   1.00
H892   H     0.08178   0.17756   0.54733   0.00000  Uiso   1.00
H893   H     0.02524   0.21179   0.63645   0.00000  Uiso   1.00
H894   H     0.02196   0.15734   0.61556   0.00000  Uiso   1.00
H895   H     0.00988   0.19580   0.58493   0.00000  Uiso   1.00
H896   H     0.08740   0.30882   0.92003   0.00000  Uiso   1.00
H897   H     0.08139   0.28241   0.96867   0.00000  Uiso   1.00
H898   H     0.05783   0.24499   0.88069   0.00000  Uiso   1.00
H899   H     0.20546   0.05926   0.50274   0.00000  Uiso   1.00
H900   H     0.05302   0.21575   0.92791   0.00000  Uiso   1.00
H901   H     0.00138   0.26233   0.97638   0.00000  Uiso   1.00
H902   H     0.31621   0.23805   0.92855   0.00000  Uiso   1.00
H903   H     0.00619   0.29193   0.92913   0.00000  Uiso   1.00
H904   H     0.17714   0.24145   0.52717   0.00000  Uiso   1.00
H905   H     0.01595   0.19573   0.71158   0.00000  Uiso   1.00
H906   H     0.27449   0.08538   0.60853   0.00000  Uiso   1.00
H907   H     0.27304   0.12878   0.57944   0.00000  Uiso   1.00
H908   H     0.29169   0.04019   0.53711   0.00000  Uiso   1.00
H909   H     0.28934   0.08276   0.50613   0.00000  Uiso   1.00
O910   O     0.16667   0.16667   0.75000   0.00000  Uiso   1.00
O911   O     0.15451   0.12637   0.65458   0.00000  Uiso   1.00
O912   O     0.12940   0.20391   0.84968   0.00000  Uiso   1.00
O913   O     0.20824   0.17759   0.64606   0.00000  Uiso   1.00
O914   O     0.17451   0.15880   0.84968   0.00000  Uiso   1.00
O915   O     0.22327   0.07807   0.58025   0.00000  Uiso   1.00
O916   O     0.21008   0.00704   0.69996   0.00000  Uiso   1.00
O917   O     0.15169   0.19896   0.58496   0.00000  Uiso   1.00
O918   O     0.12918   0.26529   0.91058   0.00000  Uiso   1.00
O919   O     0.17930   0.08019   0.78213   0.00000  Uiso   1.00
O920   O     0.14632   0.26085   0.77013   0.00000  Uiso   1.00
O921   O     0.07412   0.13291   0.73413   0.00000  Uiso   1.00
O922   O     0.26693   0.19272   0.71360   0.00000  Uiso   1.00
O923   O     0.07071   0.18878   0.78213   0.00000  Uiso   1.00
O924   O     0.25491   0.15226   0.77013   0.00000  Uiso   1.00
O925   O     0.13760   0.06944   0.73413   0.00000  Uiso   1.00
O926   O     0.20345   0.25620   0.71360   0.00000  Uiso   1.00
Zn927  Zn    0.19338   0.13994   0.78734   0.00000  Uiso   1.00
Zn928  Zn    0.13379   0.12458   0.71875   0.00000  Uiso   1.00
Zn929  Zn    0.21056   0.19775   0.70657   0.00000  Uiso   1.00
Zn930  Zn    0.12893   0.20439   0.78733   0.00000  Uiso   1.00
C931   C     0.38603   0.15963   0.76003   0.00000  Uiso   1.00
C932   C     0.50579   0.16632   0.56004   0.00000  Uiso   1.00
C933   C     0.53903   0.10365   0.55925   0.00000  Uiso   1.00
C934   C     0.61411   0.17392   0.74005   0.00000  Uiso   1.00
C935   C     0.47727   0.19596   0.91928   0.00000  Uiso   1.00
C936   C     0.66005   0.17710   0.73644   0.00000  Uiso   1.00
C937   C     0.34070   0.15714   0.76383   0.00000  Uiso   1.00
C938   C     0.51164   0.32203   0.73412   0.00000  Uiso   1.00
C939   C     0.48522   0.01218   0.76418   0.00000  Uiso   1.00
C940   C     0.48935   0.05603   0.76030   0.00000  Uiso   1.00
C941   C     0.50951   0.27783   0.73981   0.00000  Uiso   1.00
C942   C     0.48488   0.25327   0.97516   0.00000  Uiso   1.00
C943   C     0.51851   0.14804   0.62944   0.00000  Uiso   1.00
C944   C     0.48144   0.18451   0.87104   0.00000  Uiso   1.00
C945   C     0.53116   0.08986   0.51776   0.00000  Uiso   1.00
C946   C     0.52381   0.14067   0.58148   0.00000  Uiso   1.00
C947   C     0.47244   0.23782   0.93606   0.00000  Uiso   1.00
C948   C     0.60010   0.09405   0.57834   0.00000  Uiso   1.00
C949   C     0.63017   0.07464   0.53668   0.00000  Uiso   1.00
C950   C     0.34405   0.09012   0.53466   0.00000  Uiso   1.00
C951   C     0.53540   0.32603   0.65778   0.00000  Uiso   1.00
C952   C     0.57759   0.31575   0.62501   0.00000  Uiso   1.00
C953   C     0.49772   0.22698   0.99968   0.00000  Uiso   1.00
C954   C     0.57060   0.29804   0.57951   0.00000  Uiso   1.00
C955   C     0.44142   0.18473   0.60544   0.00000  Uiso   1.00
C956   C     0.41132   0.19677   0.57975   0.00000  Uiso   1.00
C957   C     0.36421   0.18988   0.60594   0.00000  Uiso   1.00
C958   C     0.42141   0.27794   0.93148   0.00000  Uiso   1.00
C959   C     0.38568   0.24714   0.91765   0.00000  Uiso   1.00
C960   C     0.34132   0.26084   0.93935   0.00000  Uiso   1.00
C961   C     0.49547   0.18372   0.98793   0.00000  Uiso   1.00
C962   C     0.48544   0.16791   0.94685   0.00000  Uiso   1.00
C963   C     0.50557   0.15604   0.51460   0.00000  Uiso   1.00
C964   C     0.51351   0.11527   0.99589   0.00000  Uiso   1.00
C965   C     0.50159   0.09956   0.95676   0.00000  Uiso   1.00
C966   C     0.48461   0.12460   0.93437   0.00000  Uiso   1.00
F967   F     0.45540   0.32992   0.80006   0.00000  Uiso   1.00
F968   F     0.48705   0.29467   0.98805   0.00000  Uiso   1.00
F969   F     0.46614   0.10570   0.90161   0.00000  Uiso   1.00
H970   H     0.65226   0.13826   0.78898   0.00000  Uiso   1.00
H971   H     0.35033   0.12429   0.53195   0.00000  Uiso   1.00
H972   H     0.36493   0.07464   0.50480   0.00000  Uiso   1.00
H973   H     0.35246   0.08275   0.56502   0.00000  Uiso   1.00
H974   H     0.52346   0.01811   0.64537   0.00000  Uiso   1.00
H975   H     0.51067   0.29811   0.65832   0.00000  Uiso   1.00
H976   H     0.60116   0.01103   0.62080   0.00000  Uiso   1.00
H977   H     0.59135   0.29247   0.63872   0.00000  Uiso   1.00
H978   H     0.54940   0.26792   0.58291   0.00000  Uiso   1.00
H979   H     0.60203   0.29253   0.55604   0.00000  Uiso   1.00
H980   H     0.55569   0.32014   0.56544   0.00000  Uiso   1.00
H981   H     0.50354   0.06715   0.94454   0.00000  Uiso   1.00
H982   H     0.43362   0.20030   0.63987   0.00000  Uiso   1.00
H983   H     0.43495   0.15050   0.60908   0.00000  Uiso   1.00
H984   H     0.41986   0.23013   0.57297   0.00000  Uiso   1.00
H985   H     0.41512   0.17756   0.54733   0.00000  Uiso   1.00
H986   H     0.35858   0.21179   0.63645   0.00000  Uiso   1.00
H987   H     0.35529   0.15734   0.61556   0.00000  Uiso   1.00
H988   H     0.34322   0.19580   0.58493   0.00000  Uiso   1.00
H989   H     0.42074   0.30882   0.92003   0.00000  Uiso   1.00
H990   H     0.41472   0.28241   0.96867   0.00000  Uiso   1.00
H991   H     0.39116   0.24499   0.88069   0.00000  Uiso   1.00
H992   H     0.53879   0.05926   0.50274   0.00000  Uiso   1.00
H993   H     0.38635   0.21575   0.92791   0.00000  Uiso   1.00
H994   H     0.33471   0.26233   0.97638   0.00000  Uiso   1.00
H995   H     0.64954   0.23805   0.92855   0.00000  Uiso   1.00
H996   H     0.33953   0.29193   0.92913   0.00000  Uiso   1.00
H997   H     0.51048   0.24145   0.52717   0.00000  Uiso   1.00
H998   H     0.34928   0.19573   0.71158   0.00000  Uiso   1.00
H999   H     0.60782   0.08538   0.60853   0.00000  Uiso   1.00
H1000  H     0.60637   0.12878   0.57944   0.00000  Uiso   1.00
H1001  H     0.62502   0.04019   0.53711   0.00000  Uiso   1.00
H1002  H     0.62268   0.08276   0.50613   0.00000  Uiso   1.00
O1003  O     0.50000   0.16667   0.75000   0.00000  Uiso   1.00
O1004  O     0.48784   0.12637   0.65458   0.00000  Uiso   1.00
O1005  O     0.46274   0.20391   0.84968   0.00000  Uiso   1.00
O1006  O     0.54157   0.17759   0.64606   0.00000  Uiso   1.00
O1007  O     0.50785   0.15880   0.84968   0.00000  Uiso   1.00
O1008  O     0.55661   0.07807   0.58025   0.00000  Uiso   1.00
O1009  O     0.54341   0.00704   0.69996   0.00000  Uiso   1.00
O1010  O     0.48503   0.19896   0.58496   0.00000  Uiso   1.00
O1011  O     0.46251   0.26529   0.91058   0.00000  Uiso   1.00
O1012  O     0.51264   0.08019   0.78213   0.00000  Uiso   1.00
O1013  O     0.47965   0.26085   0.77013   0.00000  Uiso   1.00
O1014  O     0.40745   0.13291   0.73413   0.00000  Uiso   1.00
O1015  O     0.60026   0.19272   0.71360   0.00000  Uiso   1.00
O1016  O     0.40405   0.18878   0.78213   0.00000  Uiso   1.00
O1017  O     0.58824   0.15226   0.77013   0.00000  Uiso   1.00
O1018  O     0.47093   0.06944   0.73413   0.00000  Uiso   1.00
O1019  O     0.53678   0.25620   0.71360   0.00000  Uiso   1.00
Zn1020 Zn    0.52672   0.13994   0.78734   0.00000  Uiso   1.00
Zn1021 Zn    0.46713   0.12458   0.71875   0.00000  Uiso   1.00
Zn1022 Zn    0.54389   0.19775   0.70657   0.00000  Uiso   1.00
Zn1023 Zn    0.46226   0.20439   0.78733   0.00000  Uiso   1.00
C1024  C     0.71937   0.15963   0.76003   0.00000  Uiso   1.00
C1025  C     0.83912   0.16632   0.56004   0.00000  Uiso   1.00
C1026  C     0.87236   0.10365   0.55925   0.00000  Uiso   1.00
C1027  C     0.94745   0.17392   0.74005   0.00000  Uiso   1.00
C1028  C     0.81061   0.19596   0.91928   0.00000  Uiso   1.00
C1029  C     0.99338   0.17710   0.73644   0.00000  Uiso   1.00
C1030  C     0.67404   0.15714   0.76383   0.00000  Uiso   1.00
C1031  C     0.84498   0.32203   0.73412   0.00000  Uiso   1.00
C1032  C     0.81856   0.01218   0.76418   0.00000  Uiso   1.00
C1033  C     0.82268   0.05603   0.76030   0.00000  Uiso   1.00
C1034  C     0.84284   0.27783   0.73981   0.00000  Uiso   1.00
C1035  C     0.81821   0.25327   0.97516   0.00000  Uiso   1.00
C1036  C     0.85185   0.14804   0.62944   0.00000  Uiso   1.00
C1037  C     0.81477   0.18451   0.87104   0.00000  Uiso   1.00
C1038  C     0.86450   0.08986   0.51776   0.00000  Uiso   1.00
C1039  C     0.85714   0.14067   0.58148   0.00000  Uiso   1.00
C1040  C     0.80577   0.23782   0.93606   0.00000  Uiso   1.00
C1041  C     0.93343   0.09405   0.57834   0.00000  Uiso   1.00
C1042  C     0.96350   0.07464   0.53668   0.00000  Uiso   1.00
C1043  C     0.67738   0.09012   0.53466   0.00000  Uiso   1.00
C1044  C     0.86873   0.32603   0.65778   0.00000  Uiso   1.00
C1045  C     0.91092   0.31575   0.62501   0.00000  Uiso   1.00
C1046  C     0.83105   0.22698   0.99968   0.00000  Uiso   1.00
C1047  C     0.90393   0.29804   0.57951   0.00000  Uiso   1.00
C1048  C     0.77476   0.18473   0.60544   0.00000  Uiso   1.00
C1049  C     0.74465   0.19677   0.57975   0.00000  Uiso   1.00
C1050  C     0.69754   0.18988   0.60594   0.00000  Uiso   1.00
C1051  C     0.75474   0.27794   0.93148   0.00000  Uiso   1.00
C1052  C     0.71901   0.24714   0.91765   0.00000  Uiso   1.00
C1053  C     0.67465   0.26084   0.93935   0.00000  Uiso   1.00
C1054  C     0.82880   0.18372   0.98793   0.00000  Uiso   1.00
C1055  C     0.81878   0.16791   0.94685   0.00000  Uiso   1.00
C1056  C     0.83890   0.15604   0.51460   0.00000  Uiso   1.00
C1057  C     0.84685   0.11527   0.99589   0.00000  Uiso   1.00
C1058  C     0.83492   0.09956   0.95676   0.00000  Uiso   1.00
C1059  C     0.81795   0.12460   0.93437   0.00000  Uiso   1.00
F1060  F     0.78874   0.32992   0.80006   0.00000  Uiso   1.00
F1061  F     0.82039   0.29467   0.98805   0.00000  Uiso   1.00
F1062  F     0.79948   0.10570   0.90161   0.00000  Uiso   1.00
H1063  H     0.98559   0.13826   0.78898   0.00000  Uiso   1.00
H1064  H     0.68366   0.12429   0.53195   0.00000  Uiso   1.00
H1065  H     0.69826   0.07464   0.50480   0.00000  Uiso   1.00
H1066  H     0.68579   0.08275   0.56502   0.00000  Uiso   1.00
H1067  H     0.85679   0.01811   0.64537   0.00000  Uiso   1.00
H1068  H     0.84401   0.29811   0.65832   0.00000  Uiso   1.00
H1069  H     0.93450   0.01103   0.62080   0.00000  Uiso   1.00
H1070  H     0.92469   0.29247   0.63872   0.00000  Uiso   1.00
H1071  H     0.88273   0.26792   0.58291   0.00000  Uiso   1.00
H1072  H     0.93536   0.29253   0.55604   0.00000  Uiso   1.00
H1073  H     0.88902   0.32014   0.56544   0.00000  Uiso   1.00
H1074  H     0.83688   0.06715   0.94454   0.00000  Uiso   1.00
H1075  H     0.76696   0.20030   0.63987   0.00000  Uiso   1.00
H1076  H     0.76828   0.15050   0.60908   0.00000  Uiso   1.00
H1077  H     0.75319   0.23013   0.57297   0.00000  Uiso   1.00
H1078  H     0.74845   0.17756   0.54733   0.00000  Uiso   1.00
H1079  H     0.69191   0.21179   0.63645   0.00000  Uiso   1.00
H1080  H     0.68863   0.15734   0.61556   0.00000  Uiso   1.00
H1081  H     0.67655   0.19580   0.58493   0.00000  Uiso   1.00
H1082  H     0.75407   0.30882   0.92003   0.00000  Uiso   1.00
H1083  H     0.74805   0.28241   0.96867   0.00000  Uiso   1.00
H1084  H     0.72449   0.24499   0.88069   0.00000  Uiso   1.00
H1085  H     0.87213   0.05926   0.50274   0.00000  Uiso   1.00
H1086  H     0.71968   0.21575   0.92791   0.00000  Uiso   1.00
H1087  H     0.66805   0.26233   0.97638   0.00000  Uiso   1.00
H1088  H     0.98288   0.23805   0.92855   0.00000  Uiso   1.00
H1089  H     0.67286   0.29193   0.92913   0.00000  Uiso   1.00
H1090  H     0.84381   0.24145   0.52717   0.00000  Uiso   1.00
H1091  H     0.68261   0.19573   0.71158   0.00000  Uiso   1.00
H1092  H     0.94115   0.08538   0.60853   0.00000  Uiso   1.00
H1093  H     0.93970   0.12878   0.57944   0.00000  Uiso   1.00
H1094  H     0.95836   0.04019   0.53711   0.00000  Uiso   1.00
H1095  H     0.95601   0.08276   0.50613   0.00000  Uiso   1.00
O1096  O     0.83333   0.16667   0.75000   0.00000  Uiso   1.00
O1097  O     0.82118   0.12637   0.65458   0.00000  Uiso   1.00
O1098  O     0.79607   0.20391   0.84968   0.00000  Uiso   1.00
O1099  O     0.87491   0.17759   0.64606   0.00000  Uiso   1.00
O1100  O     0.84118   0.15880   0.84968   0.00000  Uiso   1.00
O1101  O     0.88994   0.07807   0.58025   0.00000  Uiso   1.00
O1102  O     0.87674   0.00704   0.69996   0.00000  Uiso   1.00
O1103  O     0.81836   0.19896   0.58496   0.00000  Uiso   1.00
O1104  O     0.79585   0.26529   0.91058   0.00000  Uiso   1.00
O1105  O     0.84597   0.08019   0.78213   0.00000  Uiso   1.00
O1106  O     0.81298   0.26085   0.77013   0.00000  Uiso   1.00
O1107  O     0.74078   0.13291   0.73413   0.00000  Uiso   1.00
O1108  O     0.93360   0.19272   0.71360   0.00000  Uiso   1.00
O1109  O     0.73738   0.18878   0.78213   0.00000  Uiso   1.00
O1110  O     0.92158   0.15226   0.77013   0.00000  Uiso   1.00
O1111  O     0.80426   0.06944   0.73413   0.00000  Uiso   1.00
O1112  O     0.87012   0.25620   0.71360   0.00000  Uiso   1.00
Zn1113 Zn    0.86005   0.13994   0.78734   0.00000  Uiso   1.00
Zn1114 Zn    0.80046   0.12458   0.71875   0.00000  Uiso   1.00
Zn1115 Zn    0.87723   0.19775   0.70657   0.00000  Uiso   1.00
Zn1116 Zn    0.79560   0.20439   0.78733   0.00000  Uiso   1.00
C1117  C     0.05270   0.49296   0.76003   0.00000  Uiso   1.00
C1118  C     0.17246   0.49966   0.56004   0.00000  Uiso   1.00
C1119  C     0.20570   0.43698   0.55925   0.00000  Uiso   1.00
C1120  C     0.28078   0.50725   0.74005   0.00000  Uiso   1.00
C1121  C     0.14394   0.52930   0.91928   0.00000  Uiso   1.00
C1122  C     0.32672   0.51043   0.73644   0.00000  Uiso   1.00
C1123  C     0.00737   0.49048   0.76383   0.00000  Uiso   1.00
C1124  C     0.17831   0.65536   0.73412   0.00000  Uiso   1.00
C1125  C     0.15189   0.34551   0.76418   0.00000  Uiso   1.00
C1126  C     0.15601   0.38936   0.76030   0.00000  Uiso   1.00
C1127  C     0.17618   0.61116   0.73981   0.00000  Uiso   1.00
C1128  C     0.15155   0.58660   0.97516   0.00000  Uiso   1.00
C1129  C     0.18518   0.48138   0.62944   0.00000  Uiso   1.00
C1130  C     0.14811   0.51785   0.87104   0.00000  Uiso   1.00
C1131  C     0.19783   0.42320   0.51776   0.00000  Uiso   1.00
C1132  C     0.19047   0.47400   0.58148   0.00000  Uiso   1.00
C1133  C     0.13911   0.57115   0.93606   0.00000  Uiso   1.00
C1134  C     0.26677   0.42738   0.57834   0.00000  Uiso   1.00
C1135  C     0.29683   0.40797   0.53668   0.00000  Uiso   1.00
C1136  C     0.01072   0.42345   0.53466   0.00000  Uiso   1.00
C1137  C     0.20207   0.65936   0.65778   0.00000  Uiso   1.00
C1138  C     0.24425   0.64908   0.62501   0.00000  Uiso   1.00
C1139  C     0.16438   0.56031   0.99968   0.00000  Uiso   1.00
C1140  C     0.23727   0.63138   0.57951   0.00000  Uiso   1.00
C1141  C     0.10809   0.51807   0.60544   0.00000  Uiso   1.00
C1142  C     0.07799   0.53010   0.57975   0.00000  Uiso   1.00
C1143  C     0.03087   0.52322   0.60594   0.00000  Uiso   1.00
C1144  C     0.08808   0.61128   0.93148   0.00000  Uiso   1.00
C1145  C     0.05234   0.58047   0.91765   0.00000  Uiso   1.00
C1146  C     0.00799   0.59417   0.93935   0.00000  Uiso   1.00
C1147  C     0.16214   0.51705   0.98793   0.00000  Uiso   1.00
C1148  C     0.15211   0.50125   0.94685   0.00000  Uiso   1.00
C1149  C     0.17224   0.48938   0.51460   0.00000  Uiso   1.00
C1150  C     0.18018   0.44861   0.99589   0.00000  Uiso   1.00
C1151  C     0.16826   0.43289   0.95676   0.00000  Uiso   1.00
C1152  C     0.15128   0.45793   0.93437   0.00000  Uiso   1.00
F1153  F     0.12207   0.66325   0.80006   0.00000  Uiso   1.00
F1154  F     0.15372   0.62800   0.98805   0.00000  Uiso   1.00
F1155  F     0.13281   0.43903   0.90161   0.00000  Uiso   1.00
H1156  H     0.31892   0.47160   0.78898   0.00000  Uiso   1.00
H1157  H     0.01699   0.45762   0.53195   0.00000  Uiso   1.00
H1158  H     0.03160   0.40797   0.50480   0.00000  Uiso   1.00
H1159  H     0.01913   0.41609   0.56502   0.00000  Uiso   1.00
H1160  H     0.19012   0.35144   0.64537   0.00000  Uiso   1.00
H1161  H     0.17734   0.63144   0.65832   0.00000  Uiso   1.00
H1162  H     0.26783   0.34436   0.62080   0.00000  Uiso   1.00
H1163  H     0.25802   0.62580   0.63872   0.00000  Uiso   1.00
H1164  H     0.21607   0.60125   0.58291   0.00000  Uiso   1.00
H1165  H     0.26869   0.62587   0.55604   0.00000  Uiso   1.00
H1166  H     0.22236   0.65347   0.56544   0.00000  Uiso   1.00
H1167  H     0.17021   0.40048   0.94454   0.00000  Uiso   1.00
H1168  H     0.10029   0.53363   0.63987   0.00000  Uiso   1.00
H1169  H     0.10161   0.48383   0.60908   0.00000  Uiso   1.00
H1170  H     0.08652   0.56346   0.57297   0.00000  Uiso   1.00
H1171  H     0.08178   0.51089   0.54733   0.00000  Uiso   1.00
H1172  H     0.02524   0.54512   0.63645   0.00000  Uiso   1.00
H1173  H     0.02196   0.49068   0.61556   0.00000  Uiso   1.00
H1174  H     0.00988   0.52914   0.58493   0.00000  Uiso   1.00
H1175  H     0.08740   0.64215   0.92003   0.00000  Uiso   1.00
H1176  H     0.08139   0.61574   0.96867   0.00000  Uiso   1.00
H1177  H     0.05783   0.57832   0.88069   0.00000  Uiso   1.00
H1178  H     0.20546   0.39260   0.50274   0.00000  Uiso   1.00
H1179  H     0.05302   0.54909   0.92791   0.00000  Uiso   1.00
H1180  H     0.00138   0.59567   0.97638   0.00000  Uiso   1.00
H1181  H     0.31621   0.57138   0.92855   0.00000  Uiso   1.00
H1182  H     0.00619   0.62527   0.92913   0.00000  Uiso   1.00
H1183  H     0.17714   0.57478   0.52717   0.00000  Uiso   1.00
H1184  H     0.01595   0.52906   0.71158   0.00000  Uiso   1.00
H1185  H     0.27449   0.41872   0.60853   0.00000  Uiso   1.00
H1186  H     0.27304   0.46211   0.57944   0.00000  Uiso   1.00
H1187  H     0.29169   0.37352   0.53711   0.00000  Uiso   1.00
H1188  H     0.28934   0.41609   0.50613   0.00000  Uiso   1.00
O1189  O     0.16667   0.50000   0.75000   0.00000  Uiso   1.00
O1190  O     0.15451   0.45970   0.65458   0.00000  Uiso   1.00
O1191  O     0.12940   0.53724   0.84968   0.00000  Uiso   1.00
O1192  O     0.20824   0.51092   0.64606   0.00000  Uiso   1.00
O1193  O     0.17451   0.49213   0.84968   0.00000  Uiso   1.00
O1194  O     0.22327   0.41141   0.58025   0.00000  Uiso   1.00
O1195  O     0.21008   0.34038   0.69996   0.00000  Uiso   1.00
O1196  O     0.15169   0.53229   0.58496   0.00000  Uiso   1.00
O1197  O     0.12918   0.59862   0.91058   0.00000  Uiso   1.00
O1198  O     0.17930   0.41352   0.78213   0.00000  Uiso   1.00
O1199  O     0.14632   0.59418   0.77013   0.00000  Uiso   1.00
O1200  O     0.07412   0.46625   0.73413   0.00000  Uiso   1.00
O1201  O     0.26693   0.52605   0.71360   0.00000  Uiso   1.00
O1202  O     0.07071   0.52211   0.78213   0.00000  Uiso   1.00
O1203  O     0.25491   0.48559   0.77013   0.00000  Uiso   1.00
O1204  O     0.13760   0.40277   0.73413   0.00000  Uiso   1.00
O1205  O     0.20345   0.58953   0.71360   0.00000  Uiso   1.00
Zn1206 Zn    0.19338   0.47327   0.78734   0.00000  Uiso   1.00
Zn1207 Zn    0.13379   0.45791   0.71875   0.00000  Uiso   1.00
Zn1208 Zn    0.21056   0.53109   0.70657   0.00000  Uiso   1.00
Zn1209 Zn    0.12893   0.53773   0.78733   0.00000  Uiso   1.00
C1210  C     0.38603   0.49296   0.76003   0.00000  Uiso   1.00
C1211  C     0.50579   0.49966   0.56004   0.00000  Uiso   1.00
C1212  C     0.53903   0.43698   0.55925   0.00000  Uiso   1.00
C1213  C     0.61411   0.50725   0.74005   0.00000  Uiso   1.00
C1214  C     0.47727   0.52930   0.91928   0.00000  Uiso   1.00
C1215  C     0.66005   0.51043   0.73644   0.00000  Uiso   1.00
C1216  C     0.34070   0.49048   0.76383   0.00000  Uiso   1.00
C1217  C     0.51164   0.65536   0.73412   0.00000  Uiso   1.00
C1218  C     0.48522   0.34551   0.76418   0.00000  Uiso   1.00
C1219  C     0.48935   0.38936   0.76030   0.00000  Uiso   1.00
C1220  C     0.50951   0.61116   0.73981   0.00000  Uiso   1.00
C1221  C     0.48488   0.58660   0.97516   0.00000  Uiso   1.00
C1222  C     0.51851   0.48138   0.62944   0.00000  Uiso   1.00
C1223  C     0.48144   0.51785   0.87104   0.00000  Uiso   1.00
C1224  C     0.53116   0.42320   0.51776   0.00000  Uiso   1.00
C1225  C     0.52381   0.47400   0.58148   0.00000  Uiso   1.00
C1226  C     0.47244   0.57115   0.93606   0.00000  Uiso   1.00
C1227  C     0.60010   0.42738   0.57834   0.00000  Uiso   1.00
C1228  C     0.63017   0.40797   0.53668   0.00000  Uiso   1.00
C1229  C     0.34405   0.42345   0.53466   0.00000  Uiso   1.00
C1230  C     0.53540   0.65936   0.65778   0.00000  Uiso   1.00
C1231  C     0.57759   0.64908   0.62501   0.00000  Uiso   1.00
C1232  C     0.49772   0.56031   0.99968   0.00000  Uiso   1.00
C1233  C     0.57060   0.63138   0.57951   0.00000  Uiso   1.00
C1234  C     0.44142   0.51807   0.60544   0.00000  Uiso   1.00
C1235  C     0.41132   0.53010   0.57975   0.00000  Uiso   1.00
C1236  C     0.36421   0.52322   0.60594   0.00000  Uiso   1.00
C1237  C     0.42141   0.61128   0.93148   0.00000  Uiso   1.00
C1238  C     0.38568   0.58047   0.91765   0.00000  Uiso   1.00
C1239  C     0.34132   0.59417   0.93935   0.00000  Uiso   1.00
C1240  C     0.49547   0.51705   0.98793   0.00000  Uiso   1.00
C1241  C     0.48544   0.50125   0.94685   0.00000  Uiso   1.00
C1242  C     0.50557   0.48938   0.51460   0.00000  Uiso   1.00
C1243  C     0.51351   0.44861   0.99589   0.00000  Uiso   1.00
C1244  C     0.50159   0.43289   0.95676   0.00000  Uiso   1.00
C1245  C     0.48461   0.45793   0.93437   0.00000  Uiso   1.00
F1246  F     0.45540   0.66325   0.80006   0.00000  Uiso   1.00
F1247  F     0.48705   0.62800   0.98805   0.00000  Uiso   1.00
F1248  F     0.46614   0.43903   0.90161   0.00000  Uiso   1.00
H1249  H     0.65226   0.47160   0.78898   0.00000  Uiso   1.00
H1250  H     0.35033   0.45762   0.53195   0.00000  Uiso   1.00
H1251  H     0.36493   0.40797   0.50480   0.00000  Uiso   1.00
H1252  H     0.35246   0.41609   0.56502   0.00000  Uiso   1.00
H1253  H     0.52346   0.35144   0.64537   0.00000  Uiso   1.00
H1254  H     0.51067   0.63144   0.65832   0.00000  Uiso   1.00
H1255  H     0.60116   0.34436   0.62080   0.00000  Uiso   1.00
H1256  H     0.59135   0.62580   0.63872   0.00000  Uiso   1.00
H1257  H     0.54940   0.60125   0.58291   0.00000  Uiso   1.00
H1258  H     0.60203   0.62587   0.55604   0.00000  Uiso   1.00
H1259  H     0.55569   0.65347   0.56544   0.00000  Uiso   1.00
H1260  H     0.50354   0.40048   0.94454   0.00000  Uiso   1.00
H1261  H     0.43362   0.53363   0.63987   0.00000  Uiso   1.00
H1262  H     0.43495   0.48383   0.60908   0.00000  Uiso   1.00
H1263  H     0.41986   0.56346   0.57297   0.00000  Uiso   1.00
H1264  H     0.41512   0.51089   0.54733   0.00000  Uiso   1.00
H1265  H     0.35858   0.54512   0.63645   0.00000  Uiso   1.00
H1266  H     0.35529   0.49068   0.61556   0.00000  Uiso   1.00
H1267  H     0.34322   0.52914   0.58493   0.00000  Uiso   1.00
H1268  H     0.42074   0.64215   0.92003   0.00000  Uiso   1.00
H1269  H     0.41472   0.61574   0.96867   0.00000  Uiso   1.00
H1270  H     0.39116   0.57832   0.88069   0.00000  Uiso   1.00
H1271  H     0.53879   0.39260   0.50274   0.00000  Uiso   1.00
H1272  H     0.38635   0.54909   0.92791   0.00000  Uiso   1.00
H1273  H     0.33471   0.59567   0.97638   0.00000  Uiso   1.00
H1274  H     0.64954   0.57138   0.92855   0.00000  Uiso   1.00
H1275  H     0.33953   0.62527   0.92913   0.00000  Uiso   1.00
H1276  H     0.51048   0.57478   0.52717   0.00000  Uiso   1.00
H1277  H     0.34928   0.52906   0.71158   0.00000  Uiso   1.00
H1278  H     0.60782   0.41872   0.60853   0.00000  Uiso   1.00
H1279  H     0.60637   0.46211   0.57944   0.00000  Uiso   1.00
H1280  H     0.62502   0.37352   0.53711   0.00000  Uiso   1.00
H1281  H     0.62268   0.41609   0.50613   0.00000  Uiso   1.00
O1282  O     0.50000   0.50000   0.75000   0.00000  Uiso   1.00
O1283  O     0.48784   0.45970   0.65458   0.00000  Uiso   1.00
O1284  O     0.46274   0.53724   0.84968   0.00000  Uiso   1.00
O1285  O     0.54157   0.51092   0.64606   0.00000  Uiso   1.00
O1286  O     0.50785   0.49213   0.84968   0.00000  Uiso   1.00
O1287  O     0.55661   0.41141   0.58025   0.00000  Uiso   1.00
O1288  O     0.54341   0.34038   0.69996   0.00000  Uiso   1.00
O1289  O     0.48503   0.53229   0.58496   0.00000  Uiso   1.00
O1290  O     0.46251   0.59862   0.91058   0.00000  Uiso   1.00
O1291  O     0.51264   0.41352   0.78213   0.00000  Uiso   1.00
O1292  O     0.47965   0.59418   0.77013   0.00000  Uiso   1.00
O1293  O     0.40745   0.46625   0.73413   0.00000  Uiso   1.00
O1294  O     0.60026   0.52605   0.71360   0.00000  Uiso   1.00
O1295  O     0.40405   0.52211   0.78213   0.00000  Uiso   1.00
O1296  O     0.58824   0.48559   0.77013   0.00000  Uiso   1.00
O1297  O     0.47093   0.40277   0.73413   0.00000  Uiso   1.00
O1298  O     0.53678   0.58953   0.71360   0.00000  Uiso   1.00
Zn1299 Zn    0.52672   0.47327   0.78734   0.00000  Uiso   1.00
Zn1300 Zn    0.46713   0.45791   0.71875   0.00000  Uiso   1.00
Zn1301 Zn    0.54389   0.53109   0.70657   0.00000  Uiso   1.00
Zn1302 Zn    0.46226   0.53773   0.78733   0.00000  Uiso   1.00
C1303  C     0.71937   0.49296   0.76003   0.00000  Uiso   1.00
C1304  C     0.83912   0.49966   0.56004   0.00000  Uiso   1.00
C1305  C     0.87236   0.43698   0.55925   0.00000  Uiso   1.00
C1306  C     0.94745   0.50725   0.74005   0.00000  Uiso   1.00
C1307  C     0.81061   0.52930   0.91928   0.00000  Uiso   1.00
C1308  C     0.99338   0.51043   0.73644   0.00000  Uiso   1.00
C1309  C     0.67404   0.49048   0.76383   0.00000  Uiso   1.00
C1310  C     0.84498   0.65536   0.73412   0.00000  Uiso   1.00
C1311  C     0.81856   0.34551   0.76418   0.00000  Uiso   1.00
C1312  C     0.82268   0.38936   0.76030   0.00000  Uiso   1.00
C1313  C     0.84284   0.61116   0.73981   0.00000  Uiso   1.00
C1314  C     0.81821   0.58660   0.97516   0.00000  Uiso   1.00
C1315  C     0.85185   0.48138   0.62944   0.00000  Uiso   1.00
C1316  C     0.81477   0.51785   0.87104   0.00000  Uiso   1.00
C1317  C     0.86450   0.42320   0.51776   0.00000  Uiso   1.00
C1318  C     0.85714   0.47400   0.58148   0.00000  Uiso   1.00
C1319  C     0.80577   0.57115   0.93606   0.00000  Uiso   1.00
C1320  C     0.93343   0.42738   0.57834   0.00000  Uiso   1.00
C1321  C     0.96350   0.40797   0.53668   0.00000  Uiso   1.00
C1322  C     0.67738   0.42345   0.53466   0.00000  Uiso   1.00
C1323  C     0.86873   0.65936   0.65778   0.00000  Uiso   1.00
C1324  C     0.91092   0.64908   0.62501   0.00000  Uiso   1.00
C1325  C     0.83105   0.56031   0.99968   0.00000  Uiso   1.00
C1326  C     0.90393   0.63138   0.57951   0.00000  Uiso   1.00
C1327  C     0.77476   0.51807   0.60544   0.00000  Uiso   1.00
C1328  C     0.74465   0.53010   0.57975   0.00000  Uiso   1.00
C1329  C     0.69754   0.52322   0.60594   0.00000  Uiso   1.00
C1330  C     0.75474   0.61128   0.93148   0.00000  Uiso   1.00
C1331  C     0.71901   0.58047   0.91765   0.00000  Uiso   1.00
C1332  C     0.67465   0.59417   0.93935   0.00000  Uiso   1.00
C1333  C     0.82880   0.51705   0.98793   0.00000  Uiso   1.00
C1334  C     0.81878   0.50125   0.94685   0.00000  Uiso   1.00
C1335  C     0.83890   0.48938   0.51460   0.00000  Uiso   1.00
C1336  C     0.84685   0.44861   0.99589   0.00000  Uiso   1.00
C1337  C     0.83492   0.43289   0.95676   0.00000  Uiso   1.00
C1338  C     0.81795   0.45793   0.93437   0.00000  Uiso   1.00
F1339  F     0.78874   0.66325   0.80006   0.00000  Uiso   1.00
F1340  F     0.82039   0.62800   0.98805   0.00000  Uiso   1.00
F1341  F     0.79948   0.43903   0.90161   0.00000  Uiso   1.00
H1342  H     0.98559   0.47160   0.78898   0.00000  Uiso   1.00
H1343  H     0.68366   0.45762   0.53195   0.00000  Uiso   1.00
H1344  H     0.69826   0.40797   0.50480   0.00000  Uiso   1.00
H1345  H     0.68579   0.41609   0.56502   0.00000  Uiso   1.00
H1346  H     0.85679   0.35144   0.64537   0.00000  Uiso   1.00
H1347  H     0.84401   0.63144   0.65832   0.00000  Uiso   1.00
H1348  H     0.93450   0.34436   0.62080   0.00000  Uiso   1.00
H1349  H     0.92469   0.62580   0.63872   0.00000  Uiso   1.00
H1350  H     0.88273   0.60125   0.58291   0.00000  Uiso   1.00
H1351  H     0.93536   0.62587   0.55604   0.00000  Uiso   1.00
H1352  H     0.88902   0.65347   0.56544   0.00000  Uiso   1.00
H1353  H     0.83688   0.40048   0.94454   0.00000  Uiso   1.00
H1354  H     0.76696   0.53363   0.63987   0.00000  Uiso   1.00
H1355  H     0.76828   0.48383   0.60908   0.00000  Uiso   1.00
H1356  H     0.75319   0.56346   0.57297   0.00000  Uiso   1.00
H1357  H     0.74845   0.51089   0.54733   0.00000  Uiso   1.00
H1358  H     0.69191   0.54512   0.63645   0.00000  Uiso   1.00
H1359  H     0.68863   0.49068   0.61556   0.00000  Uiso   1.00
H1360  H     0.67655   0.52914   0.58493   0.00000  Uiso   1.00
H1361  H     0.75407   0.64215   0.92003   0.00000  Uiso   1.00
H1362  H     0.74805   0.61574   0.96867   0.00000  Uiso   1.00
H1363  H     0.72449   0.57832   0.88069   0.00000  Uiso   1.00
H1364  H     0.87213   0.39260   0.50274   0.00000  Uiso   1.00
H1365  H     0.71968   0.54909   0.92791   0.00000  Uiso   1.00
H1366  H     0.66805   0.59567   0.97638   0.00000  Uiso   1.00
H1367  H     0.98288   0.57138   0.92855   0.00000  Uiso   1.00
H1368  H     0.67286   0.62527   0.92913   0.00000  Uiso   1.00
H1369  H     0.84381   0.57478   0.52717   0.00000  Uiso   1.00
H1370  H     0.68261   0.52906   0.71158   0.00000  Uiso   1.00
H1371  H     0.94115   0.41872   0.60853   0.00000  Uiso   1.00
H1372  H     0.93970   0.46211   0.57944   0.00000  Uiso   1.00
H1373  H     0.95836   0.37352   0.53711   0.00000  Uiso   1.00
H1374  H     0.95601   0.41609   0.50613   0.00000  Uiso   1.00
O1375  O     0.83333   0.50000   0.75000   0.00000  Uiso   1.00
O1376  O     0.82118   0.45970   0.65458   0.00000  Uiso   1.00
O1377  O     0.79607   0.53724   0.84968   0.00000  Uiso   1.00
O1378  O     0.87491   0.51092   0.64606   0.00000  Uiso   1.00
O1379  O     0.84118   0.49213   0.84968   0.00000  Uiso   1.00
O1380  O     0.88994   0.41141   0.58025   0.00000  Uiso   1.00
O1381  O     0.87674   0.34038   0.69996   0.00000  Uiso   1.00
O1382  O     0.81836   0.53229   0.58496   0.00000  Uiso   1.00
O1383  O     0.79585   0.59862   0.91058   0.00000  Uiso   1.00
O1384  O     0.84597   0.41352   0.78213   0.00000  Uiso   1.00
O1385  O     0.81298   0.59418   0.77013   0.00000  Uiso   1.00
O1386  O     0.74078   0.46625   0.73413   0.00000  Uiso   1.00
O1387  O     0.93360   0.52605   0.71360   0.00000  Uiso   1.00
O1388  O     0.73738   0.52211   0.78213   0.00000  Uiso   1.00
O1389  O     0.92158   0.48559   0.77013   0.00000  Uiso   1.00
O1390  O     0.80426   0.40277   0.73413   0.00000  Uiso   1.00
O1391  O     0.87012   0.58953   0.71360   0.00000  Uiso   1.00
Zn1392 Zn    0.86005   0.47327   0.78734   0.00000  Uiso   1.00
Zn1393 Zn    0.80046   0.45791   0.71875   0.00000  Uiso   1.00
Zn1394 Zn    0.87723   0.53109   0.70657   0.00000  Uiso   1.00
Zn1395 Zn    0.79560   0.53773   0.78733   0.00000  Uiso   1.00
C1396  C     0.05270   0.82630   0.76003   0.00000  Uiso   1.00
C1397  C     0.17246   0.83299   0.56004   0.00000  Uiso   1.00
C1398  C     0.20570   0.77031   0.55925   0.00000  Uiso   1.00
C1399  C     0.28078   0.84058   0.74005   0.00000  Uiso   1.00
C1400  C     0.14394   0.86263   0.91928   0.00000  Uiso   1.00
C1401  C     0.32672   0.84376   0.73644   0.00000  Uiso   1.00
C1402  C     0.00737   0.82381   0.76383   0.00000  Uiso   1.00
C1403  C     0.17831   0.98869   0.73412   0.00000  Uiso   1.00
C1404  C     0.15189   0.67885   0.76418   0.00000  Uiso   1.00
C1405  C     0.15601   0.72269   0.76030   0.00000  Uiso   1.00
C1406  C     0.17618   0.94450   0.73981   0.00000  Uiso   1.00
C1407  C     0.15155   0.91993   0.97516   0.00000  Uiso   1.00
C1408  C     0.18518   0.81471   0.62944   0.00000  Uiso   1.00
C1409  C     0.14811   0.85118   0.87104   0.00000  Uiso   1.00
C1410  C     0.19783   0.75653   0.51776   0.00000  Uiso   1.00
C1411  C     0.19047   0.80734   0.58148   0.00000  Uiso   1.00
C1412  C     0.13911   0.90449   0.93606   0.00000  Uiso   1.00
C1413  C     0.26677   0.76072   0.57834   0.00000  Uiso   1.00
C1414  C     0.29683   0.74131   0.53668   0.00000  Uiso   1.00
C1415  C     0.01072   0.75679   0.53466   0.00000  Uiso   1.00
C1416  C     0.20207   0.99269   0.65778   0.00000  Uiso   1.00
C1417  C     0.24425   0.98241   0.62501   0.00000  Uiso   1.00
C1418  C     0.16438   0.89365   0.99968   0.00000  Uiso   1.00
C1419  C     0.23727   0.96471   0.57951   0.00000  Uiso   1.00
C1420  C     0.10809   0.85140   0.60544   0.00000  Uiso   1.00
C1421  C     0.07799   0.86343   0.57975   0.00000  Uiso   1.00
C1422  C     0.03087   0.85655   0.60594   0.00000  Uiso   1.00
C1423  C     0.08808   0.94461   0.93148   0.00000  Uiso   1.00
C1424  C     0.05234   0.91380   0.91765   0.00000  Uiso   1.00
C1425  C     0.00799   0.92751   0.93935   0.00000  Uiso   1.00
C1426  C     0.16214   0.85038   0.98793   0.00000  Uiso   1.00
C1427  C     0.15211   0.83458   0.94685   0.00000  Uiso   1.00
C1428  C     0.17224   0.82271   0.51460   0.00000  Uiso   1.00
C1429  C     0.18018   0.78194   0.99589   0.00000  Uiso   1.00
C1430  C     0.16826   0.76623   0.95676   0.00000  Uiso   1.00
C1431  C     0.15128   0.79127   0.93437   0.00000  Uiso   1.00
F1432  F     0.12207   0.99659   0.80006   0.00000  Uiso   1.00
F1433  F     0.15372   0.96133   0.98805   0.00000  Uiso   1.00
F1434  F     0.13281   0.77236   0.90161   0.00000  Uiso   1.00
H1435  H     0.31892   0.80493   0.78898   0.00000  Uiso   1.00
H1436  H     0.01699   0.79096   0.53195   0.00000  Uiso   1.00
H1437  H     0.03160   0.74131   0.50480   0.00000  Uiso   1.00
H1438  H     0.01913   0.74942   0.56502   0.00000  Uiso   1.00
H1439  H     0.19012   0.68478   0.64537   0.00000  Uiso   1.00
H1440  H     0.17734   0.96477   0.65832   0.00000  Uiso   1.00
H1441  H     0.26783   0.67769   0.62080   0.00000  Uiso   1.00
H1442  H     0.25802   0.95914   0.63872   0.00000  Uiso   1.00
H1443  H     0.21607   0.93458   0.58291   0.00000  Uiso   1.00
H1444  H     0.26869   0.95920   0.55604   0.00000  Uiso   1.00
H1445  H     0.22236   0.98680   0.56544   0.00000  Uiso   1.00
H1446  H     0.17021   0.73381   0.94454   0.00000  Uiso   1.00
H1447  H     0.10029   0.86697   0.63987   0.00000  Uiso   1.00
H1448  H     0.10161   0.81716   0.60908   0.00000  Uiso   1.00
H1449  H     0.08652   0.89680   0.57297   0.00000  Uiso   1.00
H1450  H     0.08178   0.84423   0.54733   0.00000  Uiso   1.00
H1451  H     0.02524   0.87846   0.63645   0.00000  Uiso   1.00
H1452  H     0.02196   0.82401   0.61556   0.00000  Uiso   1.00
H1453  H     0.00988   0.86247   0.58493   0.00000  Uiso   1.00
H1454  H     0.08740   0.97549   0.92003   0.00000  Uiso   1.00
H1455  H     0.08139   0.94908   0.96867   0.00000  Uiso   1.00
H1456  H     0.05783   0.91166   0.88069   0.00000  Uiso   1.00
H1457  H     0.20546   0.72593   0.50274   0.00000  Uiso   1.00
H1458  H     0.05302   0.88242   0.92791   0.00000  Uiso   1.00
H1459  H     0.00138   0.92900   0.97638   0.00000  Uiso   1.00
H1460  H     0.31621   0.90472   0.92855   0.00000  Uiso   1.00
H1461  H     0.00619   0.95860   0.92913   0.00000  Uiso   1.00
H1462  H     0.17714   0.90812   0.52717   0.00000  Uiso   1.00
H1463  H     0.01595   0.86239   0.71158   0.00000  Uiso   1.00
H1464  H     0.27449   0.75205   0.60853   0.00000  Uiso   1.00
H1465  H     0.27304   0.79545   0.57944   0.00000  Uiso   1.00
H1466  H     0.29169   0.70686   0.53711   0.00000  Uiso   1.00
H1467  H     0.28934   0.74943   0.50613   0.00000  Uiso   1.00
O1468  O     0.16667   0.83333   0.75000   0.00000  Uiso   1.00
O1469  O     0.15451   0.79304   0.65458   0.00000  Uiso   1.00
O1470  O     0.12940   0.87058   0.84968   0.00000  Uiso   1.00
O1471  O     0.20824   0.84425   0.64606   0.00000  Uiso   1.00
O1472  O     0.17451   0.82546   0.84968   0.00000  Uiso   1.00
O1473  O     0.22327   0.74474   0.58025   0.00000  Uiso   1.00
O1474  O     0.21008   0.67371   0.69996   0.00000  Uiso   1.00
O1475  O     0.15169   0.86563   0.58496   0.00000  Uiso   1.00
O1476  O     0.12918   0.93196   0.91058   0.00000  Uiso   1.00
O1477  O     0.17930   0.74686   0.78213   0.00000  Uiso   1.00
O1478  O     0.14632   0.92751   0.77013   0.00000  Uiso   1.00
O1479  O     0.07412   0.79958   0.73413   0.00000  Uiso   1.00
O1480  O     0.26693   0.85939   0.71360   0.00000  Uiso   1.00
O1481  O     0.07071   0.85544   0.78213   0.00000  Uiso   1.00
O1482  O     0.25491   0.81892   0.77013   0.00000  Uiso   1.00
O1483  O     0.13760   0.73610   0.73413   0.00000  Uiso   1.00
O1484  O     0.20345   0.92286   0.71360   0.00000  Uiso   1.00
Zn1485 Zn    0.19338   0.80661   0.78734   0.00000  Uiso   1.00
Zn1486 Zn    0.13379   0.79124   0.71875   0.00000  Uiso   1.00
Zn1487 Zn    0.21056   0.86442   0.70657   0.00000  Uiso   1.00
Zn1488 Zn    0.12893   0.87106   0.78733   0.00000  Uiso   1.00
C1489  C     0.38603   0.82630   0.76003   0.00000  Uiso   1.00
C1490  C     0.50579   0.83299   0.56004   0.00000  Uiso   1.00
C1491  C     0.53903   0.77031   0.55925   0.00000  Uiso   1.00
C1492  C     0.61411   0.84058   0.74005   0.00000  Uiso   1.00
C1493  C     0.47727   0.86263   0.91928   0.00000  Uiso   1.00
C1494  C     0.66005   0.84376   0.73644   0.00000  Uiso   1.00
C1495  C     0.34070   0.82381   0.76383   0.00000  Uiso   1.00
C1496  C     0.51164   0.98869   0.73412   0.00000  Uiso   1.00
C1497  C     0.48522   0.67885   0.76418   0.00000  Uiso   1.00
C1498  C     0.48935   0.72269   0.76030   0.00000  Uiso   1.00
C1499  C     0.50951   0.94450   0.73981   0.00000  Uiso   1.00
C1500  C     0.48488   0.91993   0.97516   0.00000  Uiso   1.00
C1501  C     0.51851   0.81471   0.62944   0.00000  Uiso   1.00
C1502  C     0.48144   0.85118   0.87104   0.00000  Uiso   1.00
C1503  C     0.53116   0.75653   0.51776   0.00000  Uiso   1.00
C1504  C     0.52381   0.80734   0.58148   0.00000  Uiso   1.00
C1505  C     0.47244   0.90449   0.93606   0.00000  Uiso   1.00
C1506  C     0.60010   0.76072   0.57834   0.00000  Uiso   1.00
C1507  C     0.63017   0.74131   0.53668   0.00000  Uiso   1.00
C1508  C     0.34405   0.75679   0.53466   0.00000  Uiso   1.00
C1509  C     0.53540   0.99269   0.65778   0.00000  Uiso   1.00
C1510  C     0.57759   0.98241   0.62501   0.00000  Uiso   1.00
C1511  C     0.49772   0.89365   0.99968   0.00000  Uiso   1.00
C1512  C     0.57060   0.96471   0.57951   0.00000  Uiso   1.00
C1513  C     0.44142   0.85140   0.60544   0.00000  Uiso   1.00
C1514  C     0.41132   0.86343   0.57975   0.00000  Uiso   1.00
C1515  C     0.36421   0.85655   0.60594   0.00000  Uiso   1.00
C1516  C     0.42141   0.94461   0.93148   0.00000  Uiso   1.00
C1517  C     0.38568   0.91380   0.91765   0.00000  Uiso   1.00
C1518  C     0.34132   0.92751   0.93935   0.00000  Uiso   1.00
C1519  C     0.49547   0.85038   0.98793   0.00000  Uiso   1.00
C1520  C     0.48544   0.83458   0.94685   0.00000  Uiso   1.00
C1521  C     0.50557   0.82271   0.51460   0.00000  Uiso   1.00
C1522  C     0.51351   0.78194   0.99589   0.00000  Uiso   1.00
C1523  C     0.50159   0.76623   0.95676   0.00000  Uiso   1.00
C1524  C     0.48461   0.79127   0.93437   0.00000  Uiso   1.00
F1525  F     0.45540   0.99659   0.80006   0.00000  Uiso   1.00
F1526  F     0.48705   0.96133   0.98805   0.00000  Uiso   1.00
F1527  F     0.46614   0.77236   0.90161   0.00000  Uiso   1.00
H1528  H     0.65226   0.80493   0.78898   0.00000  Uiso   1.00
H1529  H     0.35033   0.79096   0.53195   0.00000  Uiso   1.00
H1530  H     0.36493   0.74131   0.50480   0.00000  Uiso   1.00
H1531  H     0.35246   0.74942   0.56502   0.00000  Uiso   1.00
H1532  H     0.52346   0.68478   0.64537   0.00000  Uiso   1.00
H1533  H     0.51067   0.96477   0.65832   0.00000  Uiso   1.00
H1534  H     0.60116   0.67769   0.62080   0.00000  Uiso   1.00
H1535  H     0.59135   0.95914   0.63872   0.00000  Uiso   1.00
H1536  H     0.54940   0.93458   0.58291   0.00000  Uiso   1.00
H1537  H     0.60203   0.95920   0.55604   0.00000  Uiso   1.00
H1538  H     0.55569   0.98680   0.56544   0.00000  Uiso   1.00
H1539  H     0.50354   0.73381   0.94454   0.00000  Uiso   1.00
H1540  H     0.43362   0.86697   0.63987   0.00000  Uiso   1.00
H1541  H     0.43495   0.81716   0.60908   0.00000  Uiso   1.00
H1542  H     0.41986   0.89680   0.57297   0.00000  Uiso   1.00
H1543  H     0.41512   0.84423   0.54733   0.00000  Uiso   1.00
H1544  H     0.35858   0.87846   0.63645   0.00000  Uiso   1.00
H1545  H     0.35529   0.82401   0.61556   0.00000  Uiso   1.00
H1546  H     0.34322   0.86247   0.58493   0.00000  Uiso   1.00
H1547  H     0.42074   0.97549   0.92003   0.00000  Uiso   1.00
H1548  H     0.41472   0.94908   0.96867   0.00000  Uiso   1.00
H1549  H     0.39116   0.91166   0.88069   0.00000  Uiso   1.00
H1550  H     0.53879   0.72593   0.50274   0.00000  Uiso   1.00
H1551  H     0.38635   0.88242   0.92791   0.00000  Uiso   1.00
H1552  H     0.33471   0.92900   0.97638   0.00000  Uiso   1.00
H1553  H     0.64954   0.90472   0.92855   0.00000  Uiso   1.00
H1554  H     0.33953   0.95860   0.92913   0.00000  Uiso   1.00
H1555  H     0.51048   0.90812   0.52717   0.00000  Uiso   1.00
H1556  H     0.34928   0.86239   0.71158   0.00000  Uiso   1.00
H1557  H     0.60782   0.75205   0.60853   0.00000  Uiso   1.00
H1558  H     0.60637   0.79545   0.57944   0.00000  Uiso   1.00
H1559  H     0.62502   0.70686   0.53711   0.00000  Uiso   1.00
H1560  H     0.62268   0.74943   0.50613   0.00000  Uiso   1.00
O1561  O     0.50000   0.83333   0.75000   0.00000  Uiso   1.00
O1562  O     0.48784   0.79304   0.65458   0.00000  Uiso   1.00
O1563  O     0.46274   0.87058   0.84968   0.00000  Uiso   1.00
O1564  O     0.54157   0.84425   0.64606   0.00000  Uiso   1.00
O1565  O     0.50785   0.82546   0.84968   0.00000  Uiso   1.00
O1566  O     0.55661   0.74474   0.58025   0.00000  Uiso   1.00
O1567  O     0.54341   0.67371   0.69996   0.00000  Uiso   1.00
O1568  O     0.48503   0.86563   0.58496   0.00000  Uiso   1.00
O1569  O     0.46251   0.93196   0.91058   0.00000  Uiso   1.00
O1570  O     0.51264   0.74686   0.78213   0.00000  Uiso   1.00
O1571  O     0.47965   0.92751   0.77013   0.00000  Uiso   1.00
O1572  O     0.40745   0.79958   0.73413   0.00000  Uiso   1.00
O1573  O     0.60026   0.85939   0.71360   0.00000  Uiso   1.00
O1574  O     0.40405   0.85544   0.78213   0.00000  Uiso   1.00
O1575  O     0.58824   0.81892   0.77013   0.00000  Uiso   1.00
O1576  O     0.47093   0.73610   0.73413   0.00000  Uiso   1.00
O1577  O     0.53678   0.92286   0.71360   0.00000  Uiso   1.00
Zn1578 Zn    0.52672   0.80661   0.78734   0.00000  Uiso   1.00
Zn1579 Zn    0.46713   0.79124   0.71875   0.00000  Uiso   1.00
Zn1580 Zn    0.54389   0.86442   0.70657   0.00000  Uiso   1.00
Zn1581 Zn    0.46226   0.87106   0.78733   0.00000  Uiso   1.00
C1582  C     0.71937   0.82630   0.76003   0.00000  Uiso   1.00
C1583  C     0.83912   0.83299   0.56004   0.00000  Uiso   1.00
C1584  C     0.87236   0.77031   0.55925   0.00000  Uiso   1.00
C1585  C     0.94745   0.84058   0.74005   0.00000  Uiso   1.00
C1586  C     0.81061   0.86263   0.91928   0.00000  Uiso   1.00
C1587  C     0.99338   0.84376   0.73644   0.00000  Uiso   1.00
C1588  C     0.67404   0.82381   0.76383   0.00000  Uiso   1.00
C1589  C     0.84498   0.98869   0.73412   0.00000  Uiso   1.00
C1590  C     0.81856   0.67885   0.76418   0.00000  Uiso   1.00
C1591  C     0.82268   0.72269   0.76030   0.00000  Uiso   1.00
C1592  C     0.84284   0.94450   0.73981   0.00000  Uiso   1.00
C1593  C     0.81821   0.91993   0.97516   0.00000  Uiso   1.00
C1594  C     0.85185   0.81471   0.62944   0.00000  Uiso   1.00
C1595  C     0.81477   0.85118   0.87104   0.00000  Uiso   1.00
C1596  C     0.86450   0.75653   0.51776   0.00000  Uiso   1.00
C1597  C     0.85714   0.80734   0.58148   0.00000  Uiso   1.00
C1598  C     0.80577   0.90449   0.93606   0.00000  Uiso   1.00
C1599  C     0.93343   0.76072   0.57834   0.00000  Uiso   1.00
C1600  C     0.96350   0.74131   0.53668   0.00000  Uiso   1.00
C1601  C     0.67738   0.75679   0.53466   0.00000  Uiso   1.00
C1602  C     0.86873   0.99269   0.65778   0.00000  Uiso   1.00
C1603  C     0.91092   0.98241   0.62501   0.00000  Uiso   1.00
C1604  C     0.83105   0.89365   0.99968   0.00000  Uiso   1.00
C1605  C     0.90393   0.96471   0.57951   0.00000  Uiso   1.00
C1606  C     0.77476   0.85140   0.60544   0.00000  Uiso   1.00
C1607  C     0.74465   0.86343   0.57975   0.00000  Uiso   1.00
C1608  C     0.69754   0.85655   0.60594   0.00000  Uiso   1.00
C1609  C     0.75474   0.94461   0.93148   0.00000  Uiso   1.00
C1610  C     0.71901   0.91380   0.91765   0.00000  Uiso   1.00
C1611  C     0.67465   0.92751   0.93935   0.00000  Uiso   1.00
C1612  C     0.82880   0.85038   0.98793   0.00000  Uiso   1.00
C1613  C     0.81878   0.83458   0.94685   0.00000  Uiso   1.00
C1614  C     0.83890   0.82271   0.51460   0.00000  Uiso   1.00
C1615  C     0.84685   0.78194   0.99589   0.00000  Uiso   1.00
C1616  C     0.83492   0.76623   0.95676   0.00000  Uiso   1.00
C1617  C     0.81795   0.79127   0.93437   0.00000  Uiso   1.00
F1618  F     0.78874   0.99659   0.80006   0.00000  Uiso   1.00
F1619  F     0.82039   0.96133   0.98805   0.00000  Uiso   1.00
F1620  F     0.79948   0.77236   0.90161   0.00000  Uiso   1.00
H1621  H     0.98559   0.80493   0.78898   0.00000  Uiso   1.00
H1622  H     0.68366   0.79096   0.53195   0.00000  Uiso   1.00
H1623  H     0.69826   0.74131   0.50480   0.00000  Uiso   1.00
H1624  H     0.68579   0.74942   0.56502   0.00000  Uiso   1.00
H1625  H     0.85679   0.68478   0.64537   0.00000  Uiso   1.00
H1626  H     0.84401   0.96477   0.65832   0.00000  Uiso   1.00
H1627  H     0.93450   0.67769   0.62080   0.00000  Uiso   1.00
H1628  H     0.92469   0.95914   0.63872   0.00000  Uiso   1.00
H1629  H     0.88273   0.93458   0.58291   0.00000  Uiso   1.00
H1630  H     0.93536   0.95920   0.55604   0.00000  Uiso   1.00
H1631  H     0.88902   0.98680   0.56544   0.00000  Uiso   1.00
H1632  H     0.83688   0.73381   0.94454   0.00000  Uiso   1.00
H1633  H     0.76696   0.86697   0.63987   0.00000  Uiso   1.00
H1634  H     0.76828   0.81716   0.60908   0.00000  Uiso   1.00
H1635  H     0.75319   0.89680   0.57297   0.00000  Uiso   1.00
H1636  H     0.74845   0.84423   0.54733   0.00000  Uiso   1.00
H1637  H     0.69191   0.87846   0.63645   0.00000  Uiso   1.00
H1638  H     0.68863   0.82401   0.61556   0.00000  Uiso   1.00
H1639  H     0.67655   0.86247   0.58493   0.00000  Uiso   1.00
H1640  H     0.75407   0.97549   0.92003   0.00000  Uiso   1.00
H1641  H     0.74805   0.94908   0.96867   0.00000  Uiso   1.00
H1642  H     0.72449   0.91166   0.88069   0.00000  Uiso   1.00
H1643  H     0.87213   0.72593   0.50274   0.00000  Uiso   1.00
H1644  H     0.71968   0.88242   0.92791   0.00000  Uiso   1.00
H1645  H     0.66805   0.92900   0.97638   0.00000  Uiso   1.00
H1646  H     0.98288   0.90472   0.92855   0.00000  Uiso   1.00
H1647  H     0.67286   0.95860   0.92913   0.00000  Uiso   1.00
H1648  H     0.84381   0.90812   0.52717   0.00000  Uiso   1.00
H1649  H     0.68261   0.86239   0.71158   0.00000  Uiso   1.00
H1650  H     0.94115   0.75205   0.60853   0.00000  Uiso   1.00
H1651  H     0.93970   0.79545   0.57944   0.00000  Uiso   1.00
H1652  H     0.95836   0.70686   0.53711   0.00000  Uiso   1.00
H1653  H     0.95601   0.74943   0.50613   0.00000  Uiso   1.00
O1654  O     0.83333   0.83333   0.75000   0.00000  Uiso   1.00
O1655  O     0.82118   0.79304   0.65458   0.00000  Uiso   1.00
O1656  O     0.79607   0.87058   0.84968   0.00000  Uiso   1.00
O1657  O     0.87491   0.84425   0.64606   0.00000  Uiso   1.00
O1658  O     0.84118   0.82546   0.84968   0.00000  Uiso   1.00
O1659  O     0.88994   0.74474   0.58025   0.00000  Uiso   1.00
O1660  O     0.87674   0.67371   0.69996   0.00000  Uiso   1.00
O1661  O     0.81836   0.86563   0.58496   0.00000  Uiso   1.00
O1662  O     0.79585   0.93196   0.91058   0.00000  Uiso   1.00
O1663  O     0.84597   0.74686   0.78213   0.00000  Uiso   1.00
O1664  O     0.81298   0.92751   0.77013   0.00000  Uiso   1.00
O1665  O     0.74078   0.79958   0.73413   0.00000  Uiso   1.00
O1666  O     0.93360   0.85939   0.71360   0.00000  Uiso   1.00
O1667  O     0.73738   0.85544   0.78213   0.00000  Uiso   1.00
O1668  O     0.92158   0.81892   0.77013   0.00000  Uiso   1.00
O1669  O     0.80426   0.73610   0.73413   0.00000  Uiso   1.00
O1670  O     0.87012   0.92286   0.71360   0.00000  Uiso   1.00
Zn1671 Zn    0.86005   0.80661   0.78734   0.00000  Uiso   1.00
Zn1672 Zn    0.80046   0.79124   0.71875   0.00000  Uiso   1.00
Zn1673 Zn    0.87723   0.86442   0.70657   0.00000  Uiso   1.00
Zn1674 Zn    0.79560   0.87106   0.78733   0.00000  Uiso   1.00
loop_
_geom_bond_atom_site_label_1
_geom_bond_atom_site_label_2
_geom_bond_distance
_geom_bond_site_symmetry_2
_ccdc_geom_bond_type
C1     O84     1.268   .     A
C1     O86     1.269   .     A
C1     C7      1.434   .     S
C2     C16     1.404   .     A
C2     C33     1.416   .     A
C2     O80     1.388   .     S
C3     C15     1.392   .     A
C3     O78     1.384   .     S
C3     C16     1.406   .     A
C4     O87     1.281   .     A
C4     C6      1.453   .     S
C4     O85     1.285   .     A
C5     C17     1.417   .     A
C5     C32     1.421   .     A
C5     C14     1.478   .     S
C6     C100    1.334   .     S
C6     H161    1.086   .     S
C7     C192    1.334   1_455 S
C7     H226    1.086   1_455 S
C8     C11     1.460   .     S
C8     C288    1.340   .     S
C8     O358    1.390   .     S
C9     C10     1.431   .     S
C9     C566    1.340   1_545 S
C9     F595    1.361   1_545 S
C10    O88     1.277   .     A
C10    O82     1.273   .     A
C11    O83     1.270   .     A
C11    O89     1.270   .     A
C12    C23     1.385   .     A
C12    C17     1.397   .     A
C12    F38     1.358   .     S
C13    O76     1.275   .     A
C13    O74     1.268   .     A
C13    C16     1.451   .     S
C14    O77     1.288   .     A
C14    O75     1.279   .     A
C15    H62     1.084   .     S
C15    C871    1.399   1_554 S
C17    O81     1.387   .     S
C18    H70     1.117   .     S
C18    C19     1.533   .     S
C18    H69     1.111   .     S
C18    O78     1.417   .     S
C19    H71     1.111   .     S
C19    H72     1.111   .     S
C19    C113    1.526   .     S
C20    H41     1.110   .     S
C20    H43     1.111   .     S
C20    H42     1.111   .     S
C20    C205    1.526   1_455 S
C21    C22     1.530   .     S
C21    H45     1.118   .     S
C21    H323    1.111   .     S
C21    O358    1.417   .     S
C22    H47     1.111   .     S
C22    C24     1.526   .     S
C22    H325    1.111   .     S
C23    C31     1.410   .     A
C23    H904    1.077   .     S
C24    H49     1.110   .     S
C24    H50     1.111   .     S
C24    H48     1.110   .     S
C25    O80     1.420   .     S
C25    H53     1.117   .     S
C25    C26     1.533   .     S
C25    H52     1.111   .     S
C26    H55     1.110   .     S
C26    C27     1.526   .     S
C26    H54     1.111   .     S
C27    H57     1.111   .     S
C27    H56     1.109   .     S
C27    H58     1.111   .     S
C28    C29     1.533   .     S
C28    H60     1.115   .     S
C28    H59     1.111   .     S
C28    O81     1.418   .     S
C29    H63     1.111   .     S
C29    H61     1.111   .     S
C29    C30     1.526   .     S
C30    H64     1.111   .     S
C30    H66     1.111   .     S
C30    H251    1.110   1_455 S
C31    C32     1.421   .     A
C31    C870    1.421   .     S
C32    C36     1.417   .     A
C33    C868    1.421   1_554 S
C33    C871    1.418   1_554 S
C34    C35     1.392   .     A
C34    C870    1.418   .     S
C34    C852    1.399   .     S
C35    C36     1.388   .     A
C35    H51     1.084   .     S
C36    F39     1.358   .     S
F37    C288    1.361   .     S
H40    C100    1.086   .     S
H44    C579    1.111   1_545 S
H46    C580    1.111   1_545 S
H65    C123    1.110   .     S
H67    C860    1.077   1_554 S
H68    C192    1.086   1_455 S
O73    Zn93    1.928   .     S
O73    Zn90    1.964   .     S
O73    Zn91    1.939   .     S
O73    Zn92    1.936   .     S
O74    Zn91    1.935   .     S
O75    Zn93    1.946   .     S
O76    Zn92    1.937   .     S
O77    Zn90    1.928   .     S
O79    C579    1.417   1_545 S
O79    C566    1.390   1_545 S
O82    Zn90    1.929   .     S
O83    Zn93    1.936   .     S
O84    Zn91    1.919   .     S
O85    Zn92    1.931   .     S
O86    Zn93    1.925   .     S
O87    Zn90    1.917   .     S
O88    Zn91    1.942   .     S
O89    Zn92    1.932   .     S
C94    O177    1.268   .     A
C94    O179    1.269   .     A
C94    C100    1.434   .     S
C95    C109    1.404   .     A
C95    C126    1.416   .     A
C95    O173    1.388   .     S
C96    C108    1.392   .     A
C96    O171    1.384   .     S
C96    C109    1.406   .     A
C97    O180    1.281   .     A
C97    C99     1.453   .     S
C97    O178    1.285   .     A
C98    C110    1.417   .     A
C98    C125    1.421   .     A
C98    C107    1.478   .     S
C99    C193    1.334   .     S
C99    H254    1.086   .     S
C101   C104    1.460   .     S
C101   C381    1.340   .     S
C101   O451    1.390   .     S
C102   C103    1.431   .     S
C102   C659    1.340   1_545 S
C102   F688    1.361   1_545 S
C103   O181    1.277   .     A
C103   O175    1.273   .     A
C104   O176    1.270   .     A
C104   O182    1.270   .     A
C105   C116    1.385   .     A
C105   C110    1.397   .     A
C105   F131    1.358   .     S
C106   O169    1.275   .     A
C106   O167    1.268   .     A
C106   C109    1.451   .     S
C107   O170    1.288   .     A
C107   O168    1.279   .     A
C108   H155    1.084   .     S
C108   C964    1.399   1_554 S
C110   O174    1.387   .     S
C111   H163    1.117   .     S
C111   C112    1.533   .     S
C111   H162    1.111   .     S
C111   O171    1.417   .     S
C112   H164    1.111   .     S
C112   H165    1.111   .     S
C112   C206    1.526   .     S
C113   H134    1.110   .     S
C113   H136    1.111   .     S
C113   H135    1.111   .     S
C114   C115    1.530   .     S
C114   H138    1.118   .     S
C114   H416    1.111   .     S
C114   O451    1.417   .     S
C115   H140    1.111   .     S
C115   C117    1.526   .     S
C115   H418    1.111   .     S
C116   C124    1.410   .     A
C116   H997    1.077   .     S
C117   H142    1.110   .     S
C117   H143    1.111   .     S
C117   H141    1.110   .     S
C118   O173    1.420   .     S
C118   H146    1.117   .     S
C118   C119    1.533   .     S
C118   H145    1.111   .     S
C119   H148    1.110   .     S
C119   C120    1.526   .     S
C119   H147    1.111   .     S
C120   H150    1.111   .     S
C120   H149    1.109   .     S
C120   H151    1.111   .     S
C121   C122    1.533   .     S
C121   H153    1.115   .     S
C121   H152    1.111   .     S
C121   O174    1.418   .     S
C122   H156    1.111   .     S
C122   H154    1.111   .     S
C122   C123    1.526   .     S
C123   H157    1.111   .     S
C123   H159    1.111   .     S
C124   C125    1.421   .     A
C124   C963    1.421   .     S
C125   C129    1.417   .     A
C126   C961    1.421   1_554 S
C126   C964    1.418   1_554 S
C127   C128    1.392   .     A
C127   C963    1.418   .     S
C127   C945    1.399   .     S
C128   C129    1.388   .     A
C128   H144    1.084   .     S
C129   F132    1.358   .     S
F130   C381    1.361   .     S
H133   C193    1.086   .     S
H137   C672    1.111   1_545 S
H139   C673    1.111   1_545 S
H158   C216    1.110   .     S
H160   C953    1.077   1_554 S
O166   Zn186   1.928   .     S
O166   Zn183   1.964   .     S
O166   Zn184   1.939   .     S
O166   Zn185   1.936   .     S
O167   Zn184   1.935   .     S
O168   Zn186   1.946   .     S
O169   Zn185   1.937   .     S
O170   Zn183   1.928   .     S
O172   C672    1.417   1_545 S
O172   C659    1.390   1_545 S
O175   Zn183   1.929   .     S
O176   Zn186   1.936   .     S
O177   Zn184   1.919   .     S
O178   Zn185   1.931   .     S
O179   Zn186   1.925   .     S
O180   Zn183   1.917   .     S
O181   Zn184   1.942   .     S
O182   Zn185   1.932   .     S
C187   O270    1.268   .     A
C187   O272    1.269   .     A
C187   C193    1.434   .     S
C188   C202    1.404   .     A
C188   C219    1.416   .     A
C188   O266    1.388   .     S
C189   C201    1.392   .     A
C189   O264    1.384   .     S
C189   C202    1.406   .     A
C190   O273    1.281   .     A
C190   C192    1.453   .     S
C190   O271    1.285   .     A
C191   C203    1.417   .     A
C191   C218    1.421   .     A
C191   C200    1.478   .     S
C192   C7      1.334   1_655 S
C192   H68     1.086   1_655 S
C194   C197    1.460   .     S
C194   C474    1.340   .     S
C194   O544    1.390   .     S
C195   C196    1.431   .     S
C195   C752    1.340   1_545 S
C195   F781    1.361   1_545 S
C196   O274    1.277   .     A
C196   O268    1.273   .     A
C197   O269    1.270   .     A
C197   O275    1.270   .     A
C198   C209    1.385   .     A
C198   C203    1.397   .     A
C198   F224    1.358   .     S
C199   O262    1.275   .     A
C199   O260    1.268   .     A
C199   C202    1.451   .     S
C200   O263    1.288   .     A
C200   O261    1.279   .     A
C201   H248    1.084   .     S
C201   C1057   1.399   1_554 S
C203   O267    1.387   .     S
C204   H256    1.117   .     S
C204   C205    1.533   .     S
C204   H255    1.111   .     S
C204   O264    1.417   .     S
C205   H257    1.111   .     S
C205   H258    1.111   .     S
C205   C20     1.526   1_655 S
C206   H227    1.110   .     S
C206   H229    1.111   .     S
C206   H228    1.111   .     S
C207   C208    1.530   .     S
C207   H231    1.118   .     S
C207   H509    1.111   .     S
C207   O544    1.417   .     S
C208   H233    1.111   .     S
C208   C210    1.526   .     S
C208   H511    1.111   .     S
C209   C217    1.410   .     A
C209   H1090   1.077   .     S
C210   H235    1.110   .     S
C210   H236    1.111   .     S
C210   H234    1.110   .     S
C211   O266    1.420   .     S
C211   H239    1.117   .     S
C211   C212    1.533   .     S
C211   H238    1.111   .     S
C212   H241    1.110   .     S
C212   C213    1.526   .     S
C212   H240    1.111   .     S
C213   H243    1.111   .     S
C213   H242    1.109   .     S
C213   H244    1.111   .     S
C214   C215    1.533   .     S
C214   H246    1.115   .     S
C214   H245    1.111   .     S
C214   O267    1.418   .     S
C215   H249    1.111   .     S
C215   H247    1.111   .     S
C215   C216    1.526   .     S
C216   H250    1.111   .     S
C216   H252    1.111   .     S
C217   C218    1.421   .     A
C217   C1056   1.421   .     S
C218   C222    1.417   .     A
C219   C1054   1.421   1_554 S
C219   C1057   1.418   1_554 S
C220   C221    1.392   .     A
C220   C1056   1.418   .     S
C220   C1038   1.399   .     S
C221   C222    1.388   .     A
C221   H237    1.084   .     S
C222   F225    1.358   .     S
F223   C474    1.361   .     S
H226   C7      1.086   1_655 S
H230   C765    1.111   1_545 S
H232   C766    1.111   1_545 S
H251   C30     1.110   1_655 S
H253   C1046   1.077   1_554 S
O259   Zn279   1.928   .     S
O259   Zn276   1.964   .     S
O259   Zn277   1.939   .     S
O259   Zn278   1.936   .     S
O260   Zn277   1.935   .     S
O261   Zn279   1.946   .     S
O262   Zn278   1.937   .     S
O263   Zn276   1.928   .     S
O265   C765    1.417   1_545 S
O265   C752    1.390   1_545 S
O268   Zn276   1.929   .     S
O269   Zn279   1.936   .     S
O270   Zn277   1.919   .     S
O271   Zn278   1.931   .     S
O272   Zn279   1.925   .     S
O273   Zn276   1.917   .     S
O274   Zn277   1.942   .     S
O275   Zn278   1.932   .     S
C280   O363    1.268   .     A
C280   O365    1.269   .     A
C280   C286    1.434   .     S
C281   C295    1.404   .     A
C281   C312    1.416   .     A
C281   O359    1.388   .     S
C282   C294    1.392   .     A
C282   O357    1.384   .     S
C282   C295    1.406   .     A
C283   O366    1.281   .     A
C283   C285    1.453   .     S
C283   O364    1.285   .     A
C284   C296    1.417   .     A
C284   C311    1.421   .     A
C284   C293    1.478   .     S
C285   C379    1.334   .     S
C285   H440    1.086   .     S
C286   C471    1.334   1_455 S
C286   H505    1.086   1_455 S
C287   C290    1.460   .     S
C287   C567    1.340   .     S
C287   O637    1.390   .     S
C288   C289    1.431   .     S
C289   O367    1.277   .     A
C289   O361    1.273   .     A
C290   O362    1.270   .     A
C290   O368    1.270   .     A
C291   C302    1.385   .     A
C291   C296    1.397   .     A
C291   F317    1.358   .     S
C292   O355    1.275   .     A
C292   O353    1.268   .     A
C292   C295    1.451   .     S
C293   O356    1.288   .     A
C293   O354    1.279   .     A
C294   H341    1.084   .     S
C294   C1150   1.399   1_554 S
C296   O360    1.387   .     S
C297   H349    1.117   .     S
C297   C298    1.533   .     S
C297   H348    1.111   .     S
C297   O357    1.417   .     S
C298   H350    1.111   .     S
C298   H351    1.111   .     S
C298   C392    1.526   .     S
C299   H320    1.110   .     S
C299   H322    1.111   .     S
C299   H321    1.111   .     S
C299   C484    1.526   1_455 S
C300   C301    1.530   .     S
C300   H324    1.118   .     S
C300   H602    1.111   .     S
C300   O637    1.417   .     S
C301   H326    1.111   .     S
C301   C303    1.526   .     S
C301   H604    1.111   .     S
C302   C310    1.410   .     A
C302   H1183   1.077   .     S
C303   H328    1.110   .     S
C303   H329    1.111   .     S
C303   H327    1.110   .     S
C304   O359    1.420   .     S
C304   H332    1.117   .     S
C304   C305    1.533   .     S
C304   H331    1.111   .     S
C305   H334    1.110   .     S
C305   C306    1.526   .     S
C305   H333    1.111   .     S
C306   H336    1.111   .     S
C306   H335    1.109   .     S
C306   H337    1.111   .     S
C307   C308    1.533   .     S
C307   H339    1.115   .     S
C307   H338    1.111   .     S
C307   O360    1.418   .     S
C308   H342    1.111   .     S
C308   H340    1.111   .     S
C308   C309    1.526   .     S
C309   H343    1.111   .     S
C309   H345    1.111   .     S
C309   H530    1.110   1_455 S
C310   C311    1.421   .     A
C310   C1149   1.421   .     S
C311   C315    1.417   .     A
C312   C1147   1.421   1_554 S
C312   C1150   1.418   1_554 S
C313   C314    1.392   .     A
C313   C1149   1.418   .     S
C313   C1131   1.399   .     S
C314   C315    1.388   .     A
C314   H330    1.084   .     S
C315   F318    1.358   .     S
F316   C567    1.361   .     S
H319   C379    1.086   .     S
H344   C402    1.110   .     S
H346   C1139   1.077   1_554 S
H347   C471    1.086   1_455 S
O352   Zn372   1.928   .     S
O352   Zn369   1.964   .     S
O352   Zn370   1.939   .     S
O352   Zn371   1.936   .     S
O353   Zn370   1.935   .     S
O354   Zn372   1.946   .     S
O355   Zn371   1.937   .     S
O356   Zn369   1.928   .     S
O361   Zn369   1.929   .     S
O362   Zn372   1.936   .     S
O363   Zn370   1.919   .     S
O364   Zn371   1.931   .     S
O365   Zn372   1.925   .     S
O366   Zn369   1.917   .     S
O367   Zn370   1.942   .     S
O368   Zn371   1.932   .     S
C373   O456    1.268   .     A
C373   O458    1.269   .     A
C373   C379    1.434   .     S
C374   C388    1.404   .     A
C374   C405    1.416   .     A
C374   O452    1.388   .     S
C375   C387    1.392   .     A
C375   O450    1.384   .     S
C375   C388    1.406   .     A
C376   O459    1.281   .     A
C376   C378    1.453   .     S
C376   O457    1.285   .     A
C377   C389    1.417   .     A
C377   C404    1.421   .     A
C377   C386    1.478   .     S
C378   C472    1.334   .     S
C378   H533    1.086   .     S
C380   C383    1.460   .     S
C380   C660    1.340   .     S
C380   O730    1.390   .     S
C381   C382    1.431   .     S
C382   O460    1.277   .     A
C382   O454    1.273   .     A
C383   O455    1.270   .     A
C383   O461    1.270   .     A
C384   C395    1.385   .     A
C384   C389    1.397   .     A
C384   F410    1.358   .     S
C385   O448    1.275   .     A
C385   O446    1.268   .     A
C385   C388    1.451   .     S
C386   O449    1.288   .     A
C386   O447    1.279   .     A
C387   H434    1.084   .     S
C387   C1243   1.399   1_554 S
C389   O453    1.387   .     S
C390   H442    1.117   .     S
C390   C391    1.533   .     S
C390   H441    1.111   .     S
C390   O450    1.417   .     S
C391   H443    1.111   .     S
C391   H444    1.111   .     S
C391   C485    1.526   .     S
C392   H413    1.110   .     S
C392   H415    1.111   .     S
C392   H414    1.111   .     S
C393   C394    1.530   .     S
C393   H417    1.118   .     S
C393   H695    1.111   .     S
C393   O730    1.417   .     S
C394   H419    1.111   .     S
C394   C396    1.526   .     S
C394   H697    1.111   .     S
C395   C403    1.410   .     A
C395   H1276   1.077   .     S
C396   H421    1.110   .     S
C396   H422    1.111   .     S
C396   H420    1.110   .     S
C397   O452    1.420   .     S
C397   H425    1.117   .     S
C397   C398    1.533   .     S
C397   H424    1.111   .     S
C398   H427    1.110   .     S
C398   C399    1.526   .     S
C398   H426    1.111   .     S
C399   H429    1.111   .     S
C399   H428    1.109   .     S
C399   H430    1.111   .     S
C400   C401    1.533   .     S
C400   H432    1.115   .     S
C400   H431    1.111   .     S
C400   O453    1.418   .     S
C401   H435    1.111   .     S
C401   H433    1.111   .     S
C401   C402    1.526   .     S
C402   H436    1.111   .     S
C402   H438    1.111   .     S
C403   C404    1.421   .     A
C403   C1242   1.421   .     S
C404   C408    1.417   .     A
C405   C1240   1.421   1_554 S
C405   C1243   1.418   1_554 S
C406   C407    1.392   .     A
C406   C1242   1.418   .     S
C406   C1224   1.399   .     S
C407   C408    1.388   .     A
C407   H423    1.084   .     S
C408   F411    1.358   .     S
F409   C660    1.361   .     S
H412   C472    1.086   .     S
H437   C495    1.110   .     S
H439   C1232   1.077   1_554 S
O445   Zn465   1.928   .     S
O445   Zn462   1.964   .     S
O445   Zn463   1.939   .     S
O445   Zn464   1.936   .     S
O446   Zn463   1.935   .     S
O447   Zn465   1.946   .     S
O448   Zn464   1.937   .     S
O449   Zn462   1.928   .     S
O454   Zn462   1.929   .     S
O455   Zn465   1.936   .     S
O456   Zn463   1.919   .     S
O457   Zn464   1.931   .     S
O458   Zn465   1.925   .     S
O459   Zn462   1.917   .     S
O460   Zn463   1.942   .     S
O461   Zn464   1.932   .     S
C466   O549    1.268   .     A
C466   O551    1.269   .     A
C466   C472    1.434   .     S
C467   C481    1.404   .     A
C467   C498    1.416   .     A
C467   O545    1.388   .     S
C468   C480    1.392   .     A
C468   O543    1.384   .     S
C468   C481    1.406   .     A
C469   O552    1.281   .     A
C469   C471    1.453   .     S
C469   O550    1.285   .     A
C470   C482    1.417   .     A
C470   C497    1.421   .     A
C470   C479    1.478   .     S
C471   C286    1.334   1_655 S
C471   H347    1.086   1_655 S
C473   C476    1.460   .     S
C473   C753    1.340   .     S
C473   O823    1.390   .     S
C474   C475    1.431   .     S
C475   O553    1.277   .     A
C475   O547    1.273   .     A
C476   O548    1.270   .     A
C476   O554    1.270   .     A
C477   C488    1.385   .     A
C477   C482    1.397   .     A
C477   F503    1.358   .     S
C478   O541    1.275   .     A
C478   O539    1.268   .     A
C478   C481    1.451   .     S
C479   O542    1.288   .     A
C479   O540    1.279   .     A
C480   H527    1.084   .     S
C480   C1336   1.399   1_554 S
C482   O546    1.387   .     S
C483   H535    1.117   .     S
C483   C484    1.533   .     S
C483   H534    1.111   .     S
C483   O543    1.417   .     S
C484   H536    1.111   .     S
C484   H537    1.111   .     S
C484   C299    1.526   1_655 S
C485   H506    1.110   .     S
C485   H508    1.111   .     S
C485   H507    1.111   .     S
C486   C487    1.530   .     S
C486   H510    1.118   .     S
C486   H788    1.111   .     S
C486   O823    1.417   .     S
C487   H512    1.111   .     S
C487   C489    1.526   .     S
C487   H790    1.111   .     S
C488   C496    1.410   .     A
C488   H1369   1.077   .     S
C489   H514    1.110   .     S
C489   H515    1.111   .     S
C489   H513    1.110   .     S
C490   O545    1.420   .     S
C490   H518    1.117   .     S
C490   C491    1.533   .     S
C490   H517    1.111   .     S
C491   H520    1.110   .     S
C491   C492    1.526   .     S
C491   H519    1.111   .     S
C492   H522    1.111   .     S
C492   H521    1.109   .     S
C492   H523    1.111   .     S
C493   C494    1.533   .     S
C493   H525    1.115   .     S
C493   H524    1.111   .     S
C493   O546    1.418   .     S
C494   H528    1.111   .     S
C494   H526    1.111   .     S
C494   C495    1.526   .     S
C495   H529    1.111   .     S
C495   H531    1.111   .     S
C496   C497    1.421   .     A
C496   C1335   1.421   .     S
C497   C501    1.417   .     A
C498   C1333   1.421   1_554 S
C498   C1336   1.418   1_554 S
C499   C500    1.392   .     A
C499   C1335   1.418   .     S
C499   C1317   1.399   .     S
C500   C501    1.388   .     A
C500   H516    1.084   .     S
C501   F504    1.358   .     S
F502   C753    1.361   .     S
H505   C286    1.086   1_655 S
H530   C309    1.110   1_655 S
H532   C1325   1.077   1_554 S
O538   Zn558   1.928   .     S
O538   Zn555   1.964   .     S
O538   Zn556   1.939   .     S
O538   Zn557   1.936   .     S
O539   Zn556   1.935   .     S
O540   Zn558   1.946   .     S
O541   Zn557   1.937   .     S
O542   Zn555   1.928   .     S
O547   Zn555   1.929   .     S
O548   Zn558   1.936   .     S
O549   Zn556   1.919   .     S
O550   Zn557   1.931   .     S
O551   Zn558   1.925   .     S
O552   Zn555   1.917   .     S
O553   Zn556   1.942   .     S
O554   Zn557   1.932   .     S
C559   O642    1.268   .     A
C559   O644    1.269   .     A
C559   C565    1.434   .     S
C560   C574    1.404   .     A
C560   C591    1.416   .     A
C560   O638    1.388   .     S
C561   C573    1.392   .     A
C561   O636    1.384   .     S
C561   C574    1.406   .     A
C562   O645    1.281   .     A
C562   C564    1.453   .     S
C562   O643    1.285   .     A
C563   C575    1.417   .     A
C563   C590    1.421   .     A
C563   C572    1.478   .     S
C564   C658    1.334   .     S
C564   H719    1.086   .     S
C565   C750    1.334   1_455 S
C565   H784    1.086   1_455 S
C566   C569    1.460   .     S
C566   C9      1.340   1_565 S
C566   O79     1.390   1_565 S
C567   C568    1.431   .     S
C568   O646    1.277   .     A
C568   O640    1.273   .     A
C569   O641    1.270   .     A
C569   O647    1.270   .     A
C570   C581    1.385   .     A
C570   C575    1.397   .     A
C570   F596    1.358   .     S
C571   O634    1.275   .     A
C571   O632    1.268   .     A
C571   C574    1.451   .     S
C572   O635    1.288   .     A
C572   O633    1.279   .     A
C573   H620    1.084   .     S
C573   C1429   1.399   1_554 S
C575   O639    1.387   .     S
C576   H628    1.117   .     S
C576   C577    1.533   .     S
C576   H627    1.111   .     S
C576   O636    1.417   .     S
C577   H629    1.111   .     S
C577   H630    1.111   .     S
C577   C671    1.526   .     S
C578   H599    1.110   .     S
C578   H601    1.111   .     S
C578   H600    1.111   .     S
C578   C763    1.526   1_455 S
C579   C580    1.530   .     S
C579   H603    1.118   .     S
C579   H44     1.111   1_565 S
C579   O79     1.417   1_565 S
C580   H605    1.111   .     S
C580   C582    1.526   .     S
C580   H46     1.111   1_565 S
C581   C589    1.410   .     A
C581   H1462   1.077   .     S
C582   H607    1.110   .     S
C582   H608    1.111   .     S
C582   H606    1.110   .     S
C583   O638    1.420   .     S
C583   H611    1.117   .     S
C583   C584    1.533   .     S
C583   H610    1.111   .     S
C584   H613    1.110   .     S
C584   C585    1.526   .     S
C584   H612    1.111   .     S
C585   H615    1.111   .     S
C585   H614    1.109   .     S
C585   H616    1.111   .     S
C586   C587    1.533   .     S
C586   H618    1.115   .     S
C586   H617    1.111   .     S
C586   O639    1.418   .     S
C587   H621    1.111   .     S
C587   H619    1.111   .     S
C587   C588    1.526   .     S
C588   H622    1.111   .     S
C588   H624    1.111   .     S
C588   H809    1.110   1_455 S
C589   C590    1.421   .     A
C589   C1428   1.421   .     S
C590   C594    1.417   .     A
C591   C1426   1.421   1_554 S
C591   C1429   1.418   1_554 S
C592   C593    1.392   .     A
C592   C1428   1.418   .     S
C592   C1410   1.399   .     S
C593   C594    1.388   .     A
C593   H609    1.084   .     S
C594   F597    1.358   .     S
F595   C9      1.361   1_565 S
H598   C658    1.086   .     S
H623   C681    1.110   .     S
H625   C1418   1.077   1_554 S
H626   C750    1.086   1_455 S
O631   Zn651   1.928   .     S
O631   Zn648   1.964   .     S
O631   Zn649   1.939   .     S
O631   Zn650   1.936   .     S
O632   Zn649   1.935   .     S
O633   Zn651   1.946   .     S
O634   Zn650   1.937   .     S
O635   Zn648   1.928   .     S
O640   Zn648   1.929   .     S
O641   Zn651   1.936   .     S
O642   Zn649   1.919   .     S
O643   Zn650   1.931   .     S
O644   Zn651   1.925   .     S
O645   Zn648   1.917   .     S
O646   Zn649   1.942   .     S
O647   Zn650   1.932   .     S
C652   O735    1.268   .     A
C652   O737    1.269   .     A
C652   C658    1.434   .     S
C653   C667    1.404   .     A
C653   C684    1.416   .     A
C653   O731    1.388   .     S
C654   C666    1.392   .     A
C654   O729    1.384   .     S
C654   C667    1.406   .     A
C655   O738    1.281   .     A
C655   C657    1.453   .     S
C655   O736    1.285   .     A
C656   C668    1.417   .     A
C656   C683    1.421   .     A
C656   C665    1.478   .     S
C657   C751    1.334   .     S
C657   H812    1.086   .     S
C659   C662    1.460   .     S
C659   C102    1.340   1_565 S
C659   O172    1.390   1_565 S
C660   C661    1.431   .     S
C661   O739    1.277   .     A
C661   O733    1.273   .     A
C662   O734    1.270   .     A
C662   O740    1.270   .     A
C663   C674    1.385   .     A
C663   C668    1.397   .     A
C663   F689    1.358   .     S
C664   O727    1.275   .     A
C664   O725    1.268   .     A
C664   C667    1.451   .     S
C665   O728    1.288   .     A
C665   O726    1.279   .     A
C666   H713    1.084   .     S
C666   C1522   1.399   1_554 S
C668   O732    1.387   .     S
C669   H721    1.117   .     S
C669   C670    1.533   .     S
C669   H720    1.111   .     S
C669   O729    1.417   .     S
C670   H722    1.111   .     S
C670   H723    1.111   .     S
C670   C764    1.526   .     S
C671   H692    1.110   .     S
C671   H694    1.111   .     S
C671   H693    1.111   .     S
C672   C673    1.530   .     S
C672   H696    1.118   .     S
C672   H137    1.111   1_565 S
C672   O172    1.417   1_565 S
C673   H698    1.111   .     S
C673   C675    1.526   .     S
C673   H139    1.111   1_565 S
C674   C682    1.410   .     A
C674   H1555   1.077   .     S
C675   H700    1.110   .     S
C675   H701    1.111   .     S
C675   H699    1.110   .     S
C676   O731    1.420   .     S
C676   H704    1.117   .     S
C676   C677    1.533   .     S
C676   H703    1.111   .     S
C677   H706    1.110   .     S
C677   C678    1.526   .     S
C677   H705    1.111   .     S
C678   H708    1.111   .     S
C678   H707    1.109   .     S
C678   H709    1.111   .     S
C679   C680    1.533   .     S
C679   H711    1.115   .     S
C679   H710    1.111   .     S
C679   O732    1.418   .     S
C680   H714    1.111   .     S
C680   H712    1.111   .     S
C680   C681    1.526   .     S
C681   H715    1.111   .     S
C681   H717    1.111   .     S
C682   C683    1.421   .     A
C682   C1521   1.421   .     S
C683   C687    1.417   .     A
C684   C1519   1.421   1_554 S
C684   C1522   1.418   1_554 S
C685   C686    1.392   .     A
C685   C1521   1.418   .     S
C685   C1503   1.399   .     S
C686   C687    1.388   .     A
C686   H702    1.084   .     S
C687   F690    1.358   .     S
F688   C102    1.361   1_565 S
H691   C751    1.086   .     S
H716   C774    1.110   .     S
H718   C1511   1.077   1_554 S
O724   Zn744   1.928   .     S
O724   Zn741   1.964   .     S
O724   Zn742   1.939   .     S
O724   Zn743   1.936   .     S
O725   Zn742   1.935   .     S
O726   Zn744   1.946   .     S
O727   Zn743   1.937   .     S
O728   Zn741   1.928   .     S
O733   Zn741   1.929   .     S
O734   Zn744   1.936   .     S
O735   Zn742   1.919   .     S
O736   Zn743   1.931   .     S
O737   Zn744   1.925   .     S
O738   Zn741   1.917   .     S
O739   Zn742   1.942   .     S
O740   Zn743   1.932   .     S
C745   O828    1.268   .     A
C745   O830    1.269   .     A
C745   C751    1.434   .     S
C746   C760    1.404   .     A
C746   C777    1.416   .     A
C746   O824    1.388   .     S
C747   C759    1.392   .     A
C747   O822    1.384   .     S
C747   C760    1.406   .     A
C748   O831    1.281   .     A
C748   C750    1.453   .     S
C748   O829    1.285   .     A
C749   C761    1.417   .     A
C749   C776    1.421   .     A
C749   C758    1.478   .     S
C750   C565    1.334   1_655 S
C750   H626    1.086   1_655 S
C752   C755    1.460   .     S
C752   C195    1.340   1_565 S
C752   O265    1.390   1_565 S
C753   C754    1.431   .     S
C754   O832    1.277   .     A
C754   O826    1.273   .     A
C755   O827    1.270   .     A
C755   O833    1.270   .     A
C756   C767    1.385   .     A
C756   C761    1.397   .     A
C756   F782    1.358   .     S
C757   O820    1.275   .     A
C757   O818    1.268   .     A
C757   C760    1.451   .     S
C758   O821    1.288   .     A
C758   O819    1.279   .     A
C759   H806    1.084   .     S
C759   C1615   1.399   1_554 S
C761   O825    1.387   .     S
C762   H814    1.117   .     S
C762   C763    1.533   .     S
C762   H813    1.111   .     S
C762   O822    1.417   .     S
C763   H815    1.111   .     S
C763   H816    1.111   .     S
C763   C578    1.526   1_655 S
C764   H785    1.110   .     S
C764   H787    1.111   .     S
C764   H786    1.111   .     S
C765   C766    1.530   .     S
C765   H789    1.118   .     S
C765   H230    1.111   1_565 S
C765   O265    1.417   1_565 S
C766   H791    1.111   .     S
C766   C768    1.526   .     S
C766   H232    1.111   1_565 S
C767   C775    1.410   .     A
C767   H1648   1.077   .     S
C768   H793    1.110   .     S
C768   H794    1.111   .     S
C768   H792    1.110   .     S
C769   O824    1.420   .     S
C769   H797    1.117   .     S
C769   C770    1.533   .     S
C769   H796    1.111   .     S
C770   H799    1.110   .     S
C770   C771    1.526   .     S
C770   H798    1.111   .     S
C771   H801    1.111   .     S
C771   H800    1.109   .     S
C771   H802    1.111   .     S
C772   C773    1.533   .     S
C772   H804    1.115   .     S
C772   H803    1.111   .     S
C772   O825    1.418   .     S
C773   H807    1.111   .     S
C773   H805    1.111   .     S
C773   C774    1.526   .     S
C774   H808    1.111   .     S
C774   H810    1.111   .     S
C775   C776    1.421   .     A
C775   C1614   1.421   .     S
C776   C780    1.417   .     A
C777   C1612   1.421   1_554 S
C777   C1615   1.418   1_554 S
C778   C779    1.392   .     A
C778   C1614   1.418   .     S
C778   C1596   1.399   .     S
C779   C780    1.388   .     A
C779   H795    1.084   .     S
C780   F783    1.358   .     S
F781   C195    1.361   1_565 S
H784   C565    1.086   1_655 S
H809   C588    1.110   1_655 S
H811   C1604   1.077   1_554 S
O817   Zn837   1.928   .     S
O817   Zn834   1.964   .     S
O817   Zn835   1.939   .     S
O817   Zn836   1.936   .     S
O818   Zn835   1.935   .     S
O819   Zn837   1.946   .     S
O820   Zn836   1.937   .     S
O821   Zn834   1.928   .     S
O826   Zn834   1.929   .     S
O827   Zn837   1.936   .     S
O828   Zn835   1.919   .     S
O829   Zn836   1.931   .     S
O830   Zn837   1.925   .     S
O831   Zn834   1.917   .     S
O832   Zn835   1.942   .     S
O833   Zn836   1.932   .     S
C838   O921    1.268   .     A
C838   O923    1.269   .     A
C838   C844    1.434   .     S
C839   C853    1.404   .     A
C839   C870    1.416   .     A
C839   O917    1.388   .     S
C840   C852    1.392   .     A
C840   O915    1.384   .     S
C840   C853    1.406   .     A
C841   O924    1.281   .     A
C841   C843    1.453   .     S
C841   O922    1.285   .     A
C842   C854    1.417   .     A
C842   C869    1.421   .     A
C842   C851    1.478   .     S
C843   C937    1.334   .     S
C843   H998    1.086   .     S
C844   C1029   1.334   1_455 S
C844   H1063   1.086   1_455 S
C845   C848    1.460   .     S
C845   C1125   1.340   .     S
C845   O1195   1.390   .     S
C846   C847    1.431   .     S
C846   C1403   1.340   1_545 S
C846   F1432   1.361   1_545 S
C847   O925    1.277   .     A
C847   O919    1.273   .     A
C848   O920    1.270   .     A
C848   O926    1.270   .     A
C849   C860    1.385   .     A
C849   C854    1.397   .     A
C849   F875    1.358   .     S
C850   O913    1.275   .     A
C850   O911    1.268   .     A
C850   C853    1.451   .     S
C851   O914    1.288   .     A
C851   O912    1.279   .     A
C852   H899    1.084   .     S
C854   O918    1.387   .     S
C855   H907    1.117   .     S
C855   C856    1.533   .     S
C855   H906    1.111   .     S
C855   O915    1.417   .     S
C856   H908    1.111   .     S
C856   H909    1.111   .     S
C856   C950    1.526   .     S
C857   H878    1.110   .     S
C857   H880    1.111   .     S
C857   H879    1.111   .     S
C857   C1042   1.526   1_455 S
C858   C859    1.530   .     S
C858   H882    1.118   .     S
C858   H1160   1.111   .     S
C858   O1195   1.417   .     S
C859   H884    1.111   .     S
C859   C861    1.526   .     S
C859   H1162   1.111   .     S
C860   C868    1.410   .     A
C860   H67     1.077   1_556 S
C861   H886    1.110   .     S
C861   H887    1.111   .     S
C861   H885    1.110   .     S
C862   O917    1.420   .     S
C862   H890    1.117   .     S
C862   C863    1.533   .     S
C862   H889    1.111   .     S
C863   H892    1.110   .     S
C863   C864    1.526   .     S
C863   H891    1.111   .     S
C864   H894    1.111   .     S
C864   H893    1.109   .     S
C864   H895    1.111   .     S
C865   C866    1.533   .     S
C865   H897    1.115   .     S
C865   H896    1.111   .     S
C865   O918    1.418   .     S
C866   H900    1.111   .     S
C866   H898    1.111   .     S
C866   C867    1.526   .     S
C867   H901    1.111   .     S
C867   H903    1.111   .     S
C867   H1088   1.110   1_455 S
C868   C869    1.421   .     A
C868   C33     1.421   1_556 S
C869   C873    1.417   .     A
C871   C872    1.392   .     A
C871   C33     1.418   1_556 S
C871   C15     1.399   1_556 S
C872   C873    1.388   .     A
C872   H888    1.084   .     S
C873   F876    1.358   .     S
F874   C1125   1.361   .     S
H877   C937    1.086   .     S
H881   C1416   1.111   1_545 S
H883   C1417   1.111   1_545 S
H902   C960    1.110   .     S
H905   C1029   1.086   1_455 S
O910   Zn930   1.928   .     S
O910   Zn927   1.964   .     S
O910   Zn928   1.939   .     S
O910   Zn929   1.936   .     S
O911   Zn928   1.935   .     S
O912   Zn930   1.946   .     S
O913   Zn929   1.937   .     S
O914   Zn927   1.928   .     S
O916   C1416   1.417   1_545 S
O916   C1403   1.390   1_545 S
O919   Zn927   1.929   .     S
O920   Zn930   1.936   .     S
O921   Zn928   1.919   .     S
O922   Zn929   1.931   .     S
O923   Zn930   1.925   .     S
O924   Zn927   1.917   .     S
O925   Zn928   1.942   .     S
O926   Zn929   1.932   .     S
C931   O1014   1.268   .     A
C931   O1016   1.269   .     A
C931   C937    1.434   .     S
C932   C946    1.404   .     A
C932   C963    1.416   .     A
C932   O1010   1.388   .     S
C933   C945    1.392   .     A
C933   O1008   1.384   .     S
C933   C946    1.406   .     A
C934   O1017   1.281   .     A
C934   C936    1.453   .     S
C934   O1015   1.285   .     A
C935   C947    1.417   .     A
C935   C962    1.421   .     A
C935   C944    1.478   .     S
C936   C1030   1.334   .     S
C936   H1091   1.086   .     S
C938   C941    1.460   .     S
C938   C1218   1.340   .     S
C938   O1288   1.390   .     S
C939   C940    1.431   .     S
C939   C1496   1.340   1_545 S
C939   F1525   1.361   1_545 S
C940   O1018   1.277   .     A
C940   O1012   1.273   .     A
C941   O1013   1.270   .     A
C941   O1019   1.270   .     A
C942   C953    1.385   .     A
C942   C947    1.397   .     A
C942   F968    1.358   .     S
C943   O1006   1.275   .     A
C943   O1004   1.268   .     A
C943   C946    1.451   .     S
C944   O1007   1.288   .     A
C944   O1005   1.279   .     A
C945   H992    1.084   .     S
C947   O1011   1.387   .     S
C948   H1000   1.117   .     S
C948   C949    1.533   .     S
C948   H999    1.111   .     S
C948   O1008   1.417   .     S
C949   H1001   1.111   .     S
C949   H1002   1.111   .     S
C949   C1043   1.526   .     S
C950   H971    1.110   .     S
C950   H973    1.111   .     S
C950   H972    1.111   .     S
C951   C952    1.530   .     S
C951   H975    1.118   .     S
C951   H1253   1.111   .     S
C951   O1288   1.417   .     S
C952   H977    1.111   .     S
C952   C954    1.526   .     S
C952   H1255   1.111   .     S
C953   C961    1.410   .     A
C953   H160    1.077   1_556 S
C954   H979    1.110   .     S
C954   H980    1.111   .     S
C954   H978    1.110   .     S
C955   O1010   1.420   .     S
C955   H983    1.117   .     S
C955   C956    1.533   .     S
C955   H982    1.111   .     S
C956   H985    1.110   .     S
C956   C957    1.526   .     S
C956   H984    1.111   .     S
C957   H987    1.111   .     S
C957   H986    1.109   .     S
C957   H988    1.111   .     S
C958   C959    1.533   .     S
C958   H990    1.115   .     S
C958   H989    1.111   .     S
C958   O1011   1.418   .     S
C959   H993    1.111   .     S
C959   H991    1.111   .     S
C959   C960    1.526   .     S
C960   H994    1.111   .     S
C960   H996    1.111   .     S
C961   C962    1.421   .     A
C961   C126    1.421   1_556 S
C962   C966    1.417   .     A
C964   C965    1.392   .     A
C964   C126    1.418   1_556 S
C964   C108    1.399   1_556 S
C965   C966    1.388   .     A
C965   H981    1.084   .     S
C966   F969    1.358   .     S
F967   C1218   1.361   .     S
H970   C1030   1.086   .     S
H974   C1509   1.111   1_545 S
H976   C1510   1.111   1_545 S
H995   C1053   1.110   .     S
O1003  Zn1023  1.928   .     S
O1003  Zn1020  1.964   .     S
O1003  Zn1021  1.939   .     S
O1003  Zn1022  1.936   .     S
O1004  Zn1021  1.935   .     S
O1005  Zn1023  1.946   .     S
O1006  Zn1022  1.937   .     S
O1007  Zn1020  1.928   .     S
O1009  C1509   1.417   1_545 S
O1009  C1496   1.390   1_545 S
O1012  Zn1020  1.929   .     S
O1013  Zn1023  1.936   .     S
O1014  Zn1021  1.919   .     S
O1015  Zn1022  1.931   .     S
O1016  Zn1023  1.925   .     S
O1017  Zn1020  1.917   .     S
O1018  Zn1021  1.942   .     S
O1019  Zn1022  1.932   .     S
C1024  O1107   1.268   .     A
C1024  O1109   1.269   .     A
C1024  C1030   1.434   .     S
C1025  C1039   1.404   .     A
C1025  C1056   1.416   .     A
C1025  O1103   1.388   .     S
C1026  C1038   1.392   .     A
C1026  O1101   1.384   .     S
C1026  C1039   1.406   .     A
C1027  O1110   1.281   .     A
C1027  C1029   1.453   .     S
C1027  O1108   1.285   .     A
C1028  C1040   1.417   .     A
C1028  C1055   1.421   .     A
C1028  C1037   1.478   .     S
C1029  C844    1.334   1_655 S
C1029  H905    1.086   1_655 S
C1031  C1034   1.460   .     S
C1031  C1311   1.340   .     S
C1031  O1381   1.390   .     S
C1032  C1033   1.431   .     S
C1032  C1589   1.340   1_545 S
C1032  F1618   1.361   1_545 S
C1033  O1111   1.277   .     A
C1033  O1105   1.273   .     A
C1034  O1106   1.270   .     A
C1034  O1112   1.270   .     A
C1035  C1046   1.385   .     A
C1035  C1040   1.397   .     A
C1035  F1061   1.358   .     S
C1036  O1099   1.275   .     A
C1036  O1097   1.268   .     A
C1036  C1039   1.451   .     S
C1037  O1100   1.288   .     A
C1037  O1098   1.279   .     A
C1038  H1085   1.084   .     S
C1040  O1104   1.387   .     S
C1041  H1093   1.117   .     S
C1041  C1042   1.533   .     S
C1041  H1092   1.111   .     S
C1041  O1101   1.417   .     S
C1042  H1094   1.111   .     S
C1042  H1095   1.111   .     S
C1042  C857    1.526   1_655 S
C1043  H1064   1.110   .     S
C1043  H1066   1.111   .     S
C1043  H1065   1.111   .     S
C1044  C1045   1.530   .     S
C1044  H1068   1.118   .     S
C1044  H1346   1.111   .     S
C1044  O1381   1.417   .     S
C1045  H1070   1.111   .     S
C1045  C1047   1.526   .     S
C1045  H1348   1.111   .     S
C1046  C1054   1.410   .     A
C1046  H253    1.077   1_556 S
C1047  H1072   1.110   .     S
C1047  H1073   1.111   .     S
C1047  H1071   1.110   .     S
C1048  O1103   1.420   .     S
C1048  H1076   1.117   .     S
C1048  C1049   1.533   .     S
C1048  H1075   1.111   .     S
C1049  H1078   1.110   .     S
C1049  C1050   1.526   .     S
C1049  H1077   1.111   .     S
C1050  H1080   1.111   .     S
C1050  H1079   1.109   .     S
C1050  H1081   1.111   .     S
C1051  C1052   1.533   .     S
C1051  H1083   1.115   .     S
C1051  H1082   1.111   .     S
C1051  O1104   1.418   .     S
C1052  H1086   1.111   .     S
C1052  H1084   1.111   .     S
C1052  C1053   1.526   .     S
C1053  H1087   1.111   .     S
C1053  H1089   1.111   .     S
C1054  C1055   1.421   .     A
C1054  C219    1.421   1_556 S
C1055  C1059   1.417   .     A
C1057  C1058   1.392   .     A
C1057  C219    1.418   1_556 S
C1057  C201    1.399   1_556 S
C1058  C1059   1.388   .     A
C1058  H1074   1.084   .     S
C1059  F1062   1.358   .     S
F1060  C1311   1.361   .     S
H1063  C844    1.086   1_655 S
H1067  C1602   1.111   1_545 S
H1069  C1603   1.111   1_545 S
H1088  C867    1.110   1_655 S
O1096  Zn1116  1.928   .     S
O1096  Zn1113  1.964   .     S
O1096  Zn1114  1.939   .     S
O1096  Zn1115  1.936   .     S
O1097  Zn1114  1.935   .     S
O1098  Zn1116  1.946   .     S
O1099  Zn1115  1.937   .     S
O1100  Zn1113  1.928   .     S
O1102  C1602   1.417   1_545 S
O1102  C1589   1.390   1_545 S
O1105  Zn1113  1.929   .     S
O1106  Zn1116  1.936   .     S
O1107  Zn1114  1.919   .     S
O1108  Zn1115  1.931   .     S
O1109  Zn1116  1.925   .     S
O1110  Zn1113  1.917   .     S
O1111  Zn1114  1.942   .     S
O1112  Zn1115  1.932   .     S
C1117  O1200   1.268   .     A
C1117  O1202   1.269   .     A
C1117  C1123   1.434   .     S
C1118  C1132   1.404   .     A
C1118  C1149   1.416   .     A
C1118  O1196   1.388   .     S
C1119  C1131   1.392   .     A
C1119  O1194   1.384   .     S
C1119  C1132   1.406   .     A
C1120  O1203   1.281   .     A
C1120  C1122   1.453   .     S
C1120  O1201   1.285   .     A
C1121  C1133   1.417   .     A
C1121  C1148   1.421   .     A
C1121  C1130   1.478   .     S
C1122  C1216   1.334   .     S
C1122  H1277   1.086   .     S
C1123  C1308   1.334   1_455 S
C1123  H1342   1.086   1_455 S
C1124  C1127   1.460   .     S
C1124  C1404   1.340   .     S
C1124  O1474   1.390   .     S
C1125  C1126   1.431   .     S
C1126  O1204   1.277   .     A
C1126  O1198   1.273   .     A
C1127  O1199   1.270   .     A
C1127  O1205   1.270   .     A
C1128  C1139   1.385   .     A
C1128  C1133   1.397   .     A
C1128  F1154   1.358   .     S
C1129  O1192   1.275   .     A
C1129  O1190   1.268   .     A
C1129  C1132   1.451   .     S
C1130  O1193   1.288   .     A
C1130  O1191   1.279   .     A
C1131  H1178   1.084   .     S
C1133  O1197   1.387   .     S
C1134  H1186   1.117   .     S
C1134  C1135   1.533   .     S
C1134  H1185   1.111   .     S
C1134  O1194   1.417   .     S
C1135  H1187   1.111   .     S
C1135  H1188   1.111   .     S
C1135  C1229   1.526   .     S
C1136  H1157   1.110   .     S
C1136  H1159   1.111   .     S
C1136  H1158   1.111   .     S
C1136  C1321   1.526   1_455 S
C1137  C1138   1.530   .     S
C1137  H1161   1.118   .     S
C1137  H1439   1.111   .     S
C1137  O1474   1.417   .     S
C1138  H1163   1.111   .     S
C1138  C1140   1.526   .     S
C1138  H1441   1.111   .     S
C1139  C1147   1.410   .     A
C1139  H346    1.077   1_556 S
C1140  H1165   1.110   .     S
C1140  H1166   1.111   .     S
C1140  H1164   1.110   .     S
C1141  O1196   1.420   .     S
C1141  H1169   1.117   .     S
C1141  C1142   1.533   .     S
C1141  H1168   1.111   .     S
C1142  H1171   1.110   .     S
C1142  C1143   1.526   .     S
C1142  H1170   1.111   .     S
C1143  H1173   1.111   .     S
C1143  H1172   1.109   .     S
C1143  H1174   1.111   .     S
C1144  C1145   1.533   .     S
C1144  H1176   1.115   .     S
C1144  H1175   1.111   .     S
C1144  O1197   1.418   .     S
C1145  H1179   1.111   .     S
C1145  H1177   1.111   .     S
C1145  C1146   1.526   .     S
C1146  H1180   1.111   .     S
C1146  H1182   1.111   .     S
C1146  H1367   1.110   1_455 S
C1147  C1148   1.421   .     A
C1147  C312    1.421   1_556 S
C1148  C1152   1.417   .     A
C1150  C1151   1.392   .     A
C1150  C312    1.418   1_556 S
C1150  C294    1.399   1_556 S
C1151  C1152   1.388   .     A
C1151  H1167   1.084   .     S
C1152  F1155   1.358   .     S
F1153  C1404   1.361   .     S
H1156  C1216   1.086   .     S
H1181  C1239   1.110   .     S
H1184  C1308   1.086   1_455 S
O1189  Zn1209  1.928   .     S
O1189  Zn1206  1.964   .     S
O1189  Zn1207  1.939   .     S
O1189  Zn1208  1.936   .     S
O1190  Zn1207  1.935   .     S
O1191  Zn1209  1.946   .     S
O1192  Zn1208  1.937   .     S
O1193  Zn1206  1.928   .     S
O1198  Zn1206  1.929   .     S
O1199  Zn1209  1.936   .     S
O1200  Zn1207  1.919   .     S
O1201  Zn1208  1.931   .     S
O1202  Zn1209  1.925   .     S
O1203  Zn1206  1.917   .     S
O1204  Zn1207  1.942   .     S
O1205  Zn1208  1.932   .     S
C1210  O1293   1.268   .     A
C1210  O1295   1.269   .     A
C1210  C1216   1.434   .     S
C1211  C1225   1.404   .     A
C1211  C1242   1.416   .     A
C1211  O1289   1.388   .     S
C1212  C1224   1.392   .     A
C1212  O1287   1.384   .     S
C1212  C1225   1.406   .     A
C1213  O1296   1.281   .     A
C1213  C1215   1.453   .     S
C1213  O1294   1.285   .     A
C1214  C1226   1.417   .     A
C1214  C1241   1.421   .     A
C1214  C1223   1.478   .     S
C1215  C1309   1.334   .     S
C1215  H1370   1.086   .     S
C1217  C1220   1.460   .     S
C1217  C1497   1.340   .     S
C1217  O1567   1.390   .     S
C1218  C1219   1.431   .     S
C1219  O1297   1.277   .     A
C1219  O1291   1.273   .     A
C1220  O1292   1.270   .     A
C1220  O1298   1.270   .     A
C1221  C1232   1.385   .     A
C1221  C1226   1.397   .     A
C1221  F1247   1.358   .     S
C1222  O1285   1.275   .     A
C1222  O1283   1.268   .     A
C1222  C1225   1.451   .     S
C1223  O1286   1.288   .     A
C1223  O1284   1.279   .     A
C1224  H1271   1.084   .     S
C1226  O1290   1.387   .     S
C1227  H1279   1.117   .     S
C1227  C1228   1.533   .     S
C1227  H1278   1.111   .     S
C1227  O1287   1.417   .     S
C1228  H1280   1.111   .     S
C1228  H1281   1.111   .     S
C1228  C1322   1.526   .     S
C1229  H1250   1.110   .     S
C1229  H1252   1.111   .     S
C1229  H1251   1.111   .     S
C1230  C1231   1.530   .     S
C1230  H1254   1.118   .     S
C1230  H1532   1.111   .     S
C1230  O1567   1.417   .     S
C1231  H1256   1.111   .     S
C1231  C1233   1.526   .     S
C1231  H1534   1.111   .     S
C1232  C1240   1.410   .     A
C1232  H439    1.077   1_556 S
C1233  H1258   1.110   .     S
C1233  H1259   1.111   .     S
C1233  H1257   1.110   .     S
C1234  O1289   1.420   .     S
C1234  H1262   1.117   .     S
C1234  C1235   1.533   .     S
C1234  H1261   1.111   .     S
C1235  H1264   1.110   .     S
C1235  C1236   1.526   .     S
C1235  H1263   1.111   .     S
C1236  H1266   1.111   .     S
C1236  H1265   1.109   .     S
C1236  H1267   1.111   .     S
C1237  C1238   1.533   .     S
C1237  H1269   1.115   .     S
C1237  H1268   1.111   .     S
C1237  O1290   1.418   .     S
C1238  H1272   1.111   .     S
C1238  H1270   1.111   .     S
C1238  C1239   1.526   .     S
C1239  H1273   1.111   .     S
C1239  H1275   1.111   .     S
C1240  C1241   1.421   .     A
C1240  C405    1.421   1_556 S
C1241  C1245   1.417   .     A
C1243  C1244   1.392   .     A
C1243  C405    1.418   1_556 S
C1243  C387    1.399   1_556 S
C1244  C1245   1.388   .     A
C1244  H1260   1.084   .     S
C1245  F1248   1.358   .     S
F1246  C1497   1.361   .     S
H1249  C1309   1.086   .     S
H1274  C1332   1.110   .     S
O1282  Zn1302  1.928   .     S
O1282  Zn1299  1.964   .     S
O1282  Zn1300  1.939   .     S
O1282  Zn1301  1.936   .     S
O1283  Zn1300  1.935   .     S
O1284  Zn1302  1.946   .     S
O1285  Zn1301  1.937   .     S
O1286  Zn1299  1.928   .     S
O1291  Zn1299  1.929   .     S
O1292  Zn1302  1.936   .     S
O1293  Zn1300  1.919   .     S
O1294  Zn1301  1.931   .     S
O1295  Zn1302  1.925   .     S
O1296  Zn1299  1.917   .     S
O1297  Zn1300  1.942   .     S
O1298  Zn1301  1.932   .     S
C1303  O1386   1.268   .     A
C1303  O1388   1.269   .     A
C1303  C1309   1.434   .     S
C1304  C1318   1.404   .     A
C1304  C1335   1.416   .     A
C1304  O1382   1.388   .     S
C1305  C1317   1.392   .     A
C1305  O1380   1.384   .     S
C1305  C1318   1.406   .     A
C1306  O1389   1.281   .     A
C1306  C1308   1.453   .     S
C1306  O1387   1.285   .     A
C1307  C1319   1.417   .     A
C1307  C1334   1.421   .     A
C1307  C1316   1.478   .     S
C1308  C1123   1.334   1_655 S
C1308  H1184   1.086   1_655 S
C1310  C1313   1.460   .     S
C1310  C1590   1.340   .     S
C1310  O1660   1.390   .     S
C1311  C1312   1.431   .     S
C1312  O1390   1.277   .     A
C1312  O1384   1.273   .     A
C1313  O1385   1.270   .     A
C1313  O1391   1.270   .     A
C1314  C1325   1.385   .     A
C1314  C1319   1.397   .     A
C1314  F1340   1.358   .     S
C1315  O1378   1.275   .     A
C1315  O1376   1.268   .     A
C1315  C1318   1.451   .     S
C1316  O1379   1.288   .     A
C1316  O1377   1.279   .     A
C1317  H1364   1.084   .     S
C1319  O1383   1.387   .     S
C1320  H1372   1.117   .     S
C1320  C1321   1.533   .     S
C1320  H1371   1.111   .     S
C1320  O1380   1.417   .     S
C1321  H1373   1.111   .     S
C1321  H1374   1.111   .     S
C1321  C1136   1.526   1_655 S
C1322  H1343   1.110   .     S
C1322  H1345   1.111   .     S
C1322  H1344   1.111   .     S
C1323  C1324   1.530   .     S
C1323  H1347   1.118   .     S
C1323  H1625   1.111   .     S
C1323  O1660   1.417   .     S
C1324  H1349   1.111   .     S
C1324  C1326   1.526   .     S
C1324  H1627   1.111   .     S
C1325  C1333   1.410   .     A
C1325  H532    1.077   1_556 S
C1326  H1351   1.110   .     S
C1326  H1352   1.111   .     S
C1326  H1350   1.110   .     S
C1327  O1382   1.420   .     S
C1327  H1355   1.117   .     S
C1327  C1328   1.533   .     S
C1327  H1354   1.111   .     S
C1328  H1357   1.110   .     S
C1328  C1329   1.526   .     S
C1328  H1356   1.111   .     S
C1329  H1359   1.111   .     S
C1329  H1358   1.109   .     S
C1329  H1360   1.111   .     S
C1330  C1331   1.533   .     S
C1330  H1362   1.115   .     S
C1330  H1361   1.111   .     S
C1330  O1383   1.418   .     S
C1331  H1365   1.111   .     S
C1331  H1363   1.111   .     S
C1331  C1332   1.526   .     S
C1332  H1366   1.111   .     S
C1332  H1368   1.111   .     S
C1333  C1334   1.421   .     A
C1333  C498    1.421   1_556 S
C1334  C1338   1.417   .     A
C1336  C1337   1.392   .     A
C1336  C498    1.418   1_556 S
C1336  C480    1.399   1_556 S
C1337  C1338   1.388   .     A
C1337  H1353   1.084   .     S
C1338  F1341   1.358   .     S
F1339  C1590   1.361   .     S
H1342  C1123   1.086   1_655 S
H1367  C1146   1.110   1_655 S
O1375  Zn1395  1.928   .     S
O1375  Zn1392  1.964   .     S
O1375  Zn1393  1.939   .     S
O1375  Zn1394  1.936   .     S
O1376  Zn1393  1.935   .     S
O1377  Zn1395  1.946   .     S
O1378  Zn1394  1.937   .     S
O1379  Zn1392  1.928   .     S
O1384  Zn1392  1.929   .     S
O1385  Zn1395  1.936   .     S
O1386  Zn1393  1.919   .     S
O1387  Zn1394  1.931   .     S
O1388  Zn1395  1.925   .     S
O1389  Zn1392  1.917   .     S
O1390  Zn1393  1.942   .     S
O1391  Zn1394  1.932   .     S
C1396  O1479   1.268   .     A
C1396  O1481   1.269   .     A
C1396  C1402   1.434   .     S
C1397  C1411   1.404   .     A
C1397  C1428   1.416   .     A
C1397  O1475   1.388   .     S
C1398  C1410   1.392   .     A
C1398  O1473   1.384   .     S
C1398  C1411   1.406   .     A
C1399  O1482   1.281   .     A
C1399  C1401   1.453   .     S
C1399  O1480   1.285   .     A
C1400  C1412   1.417   .     A
C1400  C1427   1.421   .     A
C1400  C1409   1.478   .     S
C1401  C1495   1.334   .     S
C1401  H1556   1.086   .     S
C1402  C1587   1.334   1_455 S
C1402  H1621   1.086   1_455 S
C1403  C1406   1.460   .     S
C1403  C846    1.340   1_565 S
C1403  O916    1.390   1_565 S
C1404  C1405   1.431   .     S
C1405  O1483   1.277   .     A
C1405  O1477   1.273   .     A
C1406  O1478   1.270   .     A
C1406  O1484   1.270   .     A
C1407  C1418   1.385   .     A
C1407  C1412   1.397   .     A
C1407  F1433   1.358   .     S
C1408  O1471   1.275   .     A
C1408  O1469   1.268   .     A
C1408  C1411   1.451   .     S
C1409  O1472   1.288   .     A
C1409  O1470   1.279   .     A
C1410  H1457   1.084   .     S
C1412  O1476   1.387   .     S
C1413  H1465   1.117   .     S
C1413  C1414   1.533   .     S
C1413  H1464   1.111   .     S
C1413  O1473   1.417   .     S
C1414  H1466   1.111   .     S
C1414  H1467   1.111   .     S
C1414  C1508   1.526   .     S
C1415  H1436   1.110   .     S
C1415  H1438   1.111   .     S
C1415  H1437   1.111   .     S
C1415  C1600   1.526   1_455 S
C1416  C1417   1.530   .     S
C1416  H1440   1.118   .     S
C1416  H881    1.111   1_565 S
C1416  O916    1.417   1_565 S
C1417  H1442   1.111   .     S
C1417  C1419   1.526   .     S
C1417  H883    1.111   1_565 S
C1418  C1426   1.410   .     A
C1418  H625    1.077   1_556 S
C1419  H1444   1.110   .     S
C1419  H1445   1.111   .     S
C1419  H1443   1.110   .     S
C1420  O1475   1.420   .     S
C1420  H1448   1.117   .     S
C1420  C1421   1.533   .     S
C1420  H1447   1.111   .     S
C1421  H1450   1.110   .     S
C1421  C1422   1.526   .     S
C1421  H1449   1.111   .     S
C1422  H1452   1.111   .     S
C1422  H1451   1.109   .     S
C1422  H1453   1.111   .     S
C1423  C1424   1.533   .     S
C1423  H1455   1.115   .     S
C1423  H1454   1.111   .     S
C1423  O1476   1.418   .     S
C1424  H1458   1.111   .     S
C1424  H1456   1.111   .     S
C1424  C1425   1.526   .     S
C1425  H1459   1.111   .     S
C1425  H1461   1.111   .     S
C1425  H1646   1.110   1_455 S
C1426  C1427   1.421   .     A
C1426  C591    1.421   1_556 S
C1427  C1431   1.417   .     A
C1429  C1430   1.392   .     A
C1429  C591    1.418   1_556 S
C1429  C573    1.399   1_556 S
C1430  C1431   1.388   .     A
C1430  H1446   1.084   .     S
C1431  F1434   1.358   .     S
F1432  C846    1.361   1_565 S
H1435  C1495   1.086   .     S
H1460  C1518   1.110   .     S
H1463  C1587   1.086   1_455 S
O1468  Zn1488  1.928   .     S
O1468  Zn1485  1.964   .     S
O1468  Zn1486  1.939   .     S
O1468  Zn1487  1.936   .     S
O1469  Zn1486  1.935   .     S
O1470  Zn1488  1.946   .     S
O1471  Zn1487  1.937   .     S
O1472  Zn1485  1.928   .     S
O1477  Zn1485  1.929   .     S
O1478  Zn1488  1.936   .     S
O1479  Zn1486  1.919   .     S
O1480  Zn1487  1.931   .     S
O1481  Zn1488  1.925   .     S
O1482  Zn1485  1.917   .     S
O1483  Zn1486  1.942   .     S
O1484  Zn1487  1.932   .     S
C1489  O1572   1.268   .     A
C1489  O1574   1.269   .     A
C1489  C1495   1.434   .     S
C1490  C1504   1.404   .     A
C1490  C1521   1.416   .     A
C1490  O1568   1.388   .     S
C1491  C1503   1.392   .     A
C1491  O1566   1.384   .     S
C1491  C1504   1.406   .     A
C1492  O1575   1.281   .     A
C1492  C1494   1.453   .     S
C1492  O1573   1.285   .     A
C1493  C1505   1.417   .     A
C1493  C1520   1.421   .     A
C1493  C1502   1.478   .     S
C1494  C1588   1.334   .     S
C1494  H1649   1.086   .     S
C1496  C1499   1.460   .     S
C1496  C939    1.340   1_565 S
C1496  O1009   1.390   1_565 S
C1497  C1498   1.431   .     S
C1498  O1576   1.277   .     A
C1498  O1570   1.273   .     A
C1499  O1571   1.270   .     A
C1499  O1577   1.270   .     A
C1500  C1511   1.385   .     A
C1500  C1505   1.397   .     A
C1500  F1526   1.358   .     S
C1501  O1564   1.275   .     A
C1501  O1562   1.268   .     A
C1501  C1504   1.451   .     S
C1502  O1565   1.288   .     A
C1502  O1563   1.279   .     A
C1503  H1550   1.084   .     S
C1505  O1569   1.387   .     S
C1506  H1558   1.117   .     S
C1506  C1507   1.533   .     S
C1506  H1557   1.111   .     S
C1506  O1566   1.417   .     S
C1507  H1559   1.111   .     S
C1507  H1560   1.111   .     S
C1507  C1601   1.526   .     S
C1508  H1529   1.110   .     S
C1508  H1531   1.111   .     S
C1508  H1530   1.111   .     S
C1509  C1510   1.530   .     S
C1509  H1533   1.118   .     S
C1509  H974    1.111   1_565 S
C1509  O1009   1.417   1_565 S
C1510  H1535   1.111   .     S
C1510  C1512   1.526   .     S
C1510  H976    1.111   1_565 S
C1511  C1519   1.410   .     A
C1511  H718    1.077   1_556 S
C1512  H1537   1.110   .     S
C1512  H1538   1.111   .     S
C1512  H1536   1.110   .     S
C1513  O1568   1.420   .     S
C1513  H1541   1.117   .     S
C1513  C1514   1.533   .     S
C1513  H1540   1.111   .     S
C1514  H1543   1.110   .     S
C1514  C1515   1.526   .     S
C1514  H1542   1.111   .     S
C1515  H1545   1.111   .     S
C1515  H1544   1.109   .     S
C1515  H1546   1.111   .     S
C1516  C1517   1.533   .     S
C1516  H1548   1.115   .     S
C1516  H1547   1.111   .     S
C1516  O1569   1.418   .     S
C1517  H1551   1.111   .     S
C1517  H1549   1.111   .     S
C1517  C1518   1.526   .     S
C1518  H1552   1.111   .     S
C1518  H1554   1.111   .     S
C1519  C1520   1.421   .     A
C1519  C684    1.421   1_556 S
C1520  C1524   1.417   .     A
C1522  C1523   1.392   .     A
C1522  C684    1.418   1_556 S
C1522  C666    1.399   1_556 S
C1523  C1524   1.388   .     A
C1523  H1539   1.084   .     S
C1524  F1527   1.358   .     S
F1525  C939    1.361   1_565 S
H1528  C1588   1.086   .     S
H1553  C1611   1.110   .     S
O1561  Zn1581  1.928   .     S
O1561  Zn1578  1.964   .     S
O1561  Zn1579  1.939   .     S
O1561  Zn1580  1.936   .     S
O1562  Zn1579  1.935   .     S
O1563  Zn1581  1.946   .     S
O1564  Zn1580  1.937   .     S
O1565  Zn1578  1.928   .     S
O1570  Zn1578  1.929   .     S
O1571  Zn1581  1.936   .     S
O1572  Zn1579  1.919   .     S
O1573  Zn1580  1.931   .     S
O1574  Zn1581  1.925   .     S
O1575  Zn1578  1.917   .     S
O1576  Zn1579  1.942   .     S
O1577  Zn1580  1.932   .     S
C1582  O1665   1.268   .     A
C1582  O1667   1.269   .     A
C1582  C1588   1.434   .     S
C1583  C1597   1.404   .     A
C1583  C1614   1.416   .     A
C1583  O1661   1.388   .     S
C1584  C1596   1.392   .     A
C1584  O1659   1.384   .     S
C1584  C1597   1.406   .     A
C1585  O1668   1.281   .     A
C1585  C1587   1.453   .     S
C1585  O1666   1.285   .     A
C1586  C1598   1.417   .     A
C1586  C1613   1.421   .     A
C1586  C1595   1.478   .     S
C1587  C1402   1.334   1_655 S
C1587  H1463   1.086   1_655 S
C1589  C1592   1.460   .     S
C1589  C1032   1.340   1_565 S
C1589  O1102   1.390   1_565 S
C1590  C1591   1.431   .     S
C1591  O1669   1.277   .     A
C1591  O1663   1.273   .     A
C1592  O1664   1.270   .     A
C1592  O1670   1.270   .     A
C1593  C1604   1.385   .     A
C1593  C1598   1.397   .     A
C1593  F1619   1.358   .     S
C1594  O1657   1.275   .     A
C1594  O1655   1.268   .     A
C1594  C1597   1.451   .     S
C1595  O1658   1.288   .     A
C1595  O1656   1.279   .     A
C1596  H1643   1.084   .     S
C1598  O1662   1.387   .     S
C1599  H1651   1.117   .     S
C1599  C1600   1.533   .     S
C1599  H1650   1.111   .     S
C1599  O1659   1.417   .     S
C1600  H1652   1.111   .     S
C1600  H1653   1.111   .     S
C1600  C1415   1.526   1_655 S
C1601  H1622   1.110   .     S
C1601  H1624   1.111   .     S
C1601  H1623   1.111   .     S
C1602  C1603   1.530   .     S
C1602  H1626   1.118   .     S
C1602  H1067   1.111   1_565 S
C1602  O1102   1.417   1_565 S
C1603  H1628   1.111   .     S
C1603  C1605   1.526   .     S
C1603  H1069   1.111   1_565 S
C1604  C1612   1.410   .     A
C1604  H811    1.077   1_556 S
C1605  H1630   1.110   .     S
C1605  H1631   1.111   .     S
C1605  H1629   1.110   .     S
C1606  O1661   1.420   .     S
C1606  H1634   1.117   .     S
C1606  C1607   1.533   .     S
C1606  H1633   1.111   .     S
C1607  H1636   1.110   .     S
C1607  C1608   1.526   .     S
C1607  H1635   1.111   .     S
C1608  H1638   1.111   .     S
C1608  H1637   1.109   .     S
C1608  H1639   1.111   .     S
C1609  C1610   1.533   .     S
C1609  H1641   1.115   .     S
C1609  H1640   1.111   .     S
C1609  O1662   1.418   .     S
C1610  H1644   1.111   .     S
C1610  H1642   1.111   .     S
C1610  C1611   1.526   .     S
C1611  H1645   1.111   .     S
C1611  H1647   1.111   .     S
C1612  C1613   1.421   .     A
C1612  C777    1.421   1_556 S
C1613  C1617   1.417   .     A
C1615  C1616   1.392   .     A
C1615  C777    1.418   1_556 S
C1615  C759    1.399   1_556 S
C1616  C1617   1.388   .     A
C1616  H1632   1.084   .     S
C1617  F1620   1.358   .     S
F1618  C1032   1.361   1_565 S
H1621  C1402   1.086   1_655 S
H1646  C1425   1.110   1_655 S
O1654  Zn1674  1.928   .     S
O1654  Zn1671  1.964   .     S
O1654  Zn1672  1.939   .     S
O1654  Zn1673  1.936   .     S
O1655  Zn1672  1.935   .     S
O1656  Zn1674  1.946   .     S
O1657  Zn1673  1.937   .     S
O1658  Zn1671  1.928   .     S
O1663  Zn1671  1.929   .     S
O1664  Zn1674  1.936   .     S
O1665  Zn1672  1.919   .     S
O1666  Zn1673  1.931   .     S
O1667  Zn1674  1.925   .     S
O1668  Zn1671  1.917   .     S
O1669  Zn1672  1.942   .     S
O1670  Zn1673  1.932   .     S
