data_str_m1_o10_o16_pcu_sym.200
_audit_creation_date              2020-01-03
_audit_creation_method            'Materials Studio'
_symmetry_space_group_name_H-M    'P1'
_symmetry_Int_Tables_number       1
_symmetry_cell_setting            triclinic
loop_
_symmetry_equiv_pos_as_xyz
  x,y,z
_cell_length_a                    32.7125
_cell_length_b                    32.4482
_cell_length_c                    31.0171
_cell_angle_alpha                 96.3921
_cell_angle_beta                  75.1166
_cell_angle_gamma                 98.2303
loop_
_atom_site_label
_atom_site_type_symbol
_atom_site_fract_x
_atom_site_fract_y
_atom_site_fract_z
_atom_site_U_iso_or_equiv
_atom_site_adp_type
_atom_site_occupancy
C1     C     0.05318   0.16015   0.25932   0.00000  Uiso   1.00
C2     C     0.18035   0.16619   0.05735   0.00000  Uiso   1.00
C3     C     0.20543   0.10012   0.06105   0.00000  Uiso   1.00
C4     C     0.28059   0.17354   0.24040   0.00000  Uiso   1.00
C5     C     0.14698   0.19730   0.41909   0.00000  Uiso   1.00
C6     C     0.32595   0.17525   0.23745   0.00000  Uiso   1.00
C7     C     0.00796   0.15619   0.26554   0.00000  Uiso   1.00
C8     C     0.18024   0.32245   0.23657   0.00000  Uiso   1.00
C9     C     0.15203   0.01178   0.26409   0.00000  Uiso   1.00
C10    C     0.15613   0.05589   0.26031   0.00000  Uiso   1.00
C11    C     0.17653   0.27785   0.24022   0.00000  Uiso   1.00
C12    C     0.15394   0.25446   0.47534   0.00000  Uiso   1.00
C13    C     0.18524   0.14788   0.12955   0.00000  Uiso   1.00
C14    C     0.14876   0.18482   0.37108   0.00000  Uiso   1.00
C15    C     0.20264   0.08822   0.01683   0.00000  Uiso   1.00
C16    C     0.19258   0.13859   0.08144   0.00000  Uiso   1.00
C17    C     0.14190   0.23909   0.43624   0.00000  Uiso   1.00
C18    C     0.21925   0.07210   0.08635   0.00000  Uiso   1.00
C19    C     0.31519   0.13132   0.30394   0.00000  Uiso   1.00
C20    C     0.21473   0.04796   0.49604   0.00000  Uiso   1.00
C21    C     0.12865   0.26867   0.41250   0.00000  Uiso   1.00
C22    C     0.19369   0.25133   0.02984   0.00000  Uiso   1.00
C23    C     0.17061   0.22933   0.49850   0.00000  Uiso   1.00
C24    C     0.16942   0.18546   0.48644   0.00000  Uiso   1.00
C25    C     0.15793   0.16979   0.44586   0.00000  Uiso   1.00
C26    C     0.18032   0.15663   0.01216   0.00000  Uiso   1.00
C27    C     0.18731   0.11538   0.49349   0.00000  Uiso   1.00
C28    C     0.17556   0.10107   0.45368   0.00000  Uiso   1.00
C29    C     0.15830   0.12688   0.43232   0.00000  Uiso   1.00
H30    H     0.20618   0.00365   0.21126   0.00000  Uiso   1.00
H31    H     0.29644   0.10349   0.29123   0.00000  Uiso   1.00
H32    H     0.12579   0.33142   0.28960   0.00000  Uiso   1.00
H33    H     0.17712   0.06895   0.44011   0.00000  Uiso   1.00
H34    H     0.16666   0.19312   0.07596   0.00000  Uiso   1.00
H35    H     0.15320   0.28741   0.48614   0.00000  Uiso   1.00
H36    H     0.14545   0.11249   0.40471   0.00000  Uiso   1.00
H37    H     0.01459   0.19272   0.21126   0.00000  Uiso   1.00
H38    H     0.00270   0.11972   0.32197   0.00000  Uiso   1.00
H39    H     0.29396   0.15126   0.32866   0.00000  Uiso   1.00
N40    N     0.23023   0.04976   0.10657   0.00000  Uiso   1.00
N41    N     0.22453   0.01593   0.47943   0.00000  Uiso   1.00
N42    N     0.11808   0.29246   0.39361   0.00000  Uiso   1.00
N43    N     0.21223   0.26917   0.05475   0.00000  Uiso   1.00
O44    O     0.16667   0.16667   0.25000   0.00000  Uiso   1.00
O45    O     0.15451   0.12637   0.15459   0.00000  Uiso   1.00
O46    O     0.12940   0.20391   0.34968   0.00000  Uiso   1.00
O47    O     0.20824   0.17759   0.14606   0.00000  Uiso   1.00
O48    O     0.17451   0.15880   0.34968   0.00000  Uiso   1.00
O49    O     0.17930   0.08019   0.28214   0.00000  Uiso   1.00
O50    O     0.14632   0.26085   0.27014   0.00000  Uiso   1.00
O51    O     0.07412   0.13291   0.23413   0.00000  Uiso   1.00
O52    O     0.26693   0.19272   0.21361   0.00000  Uiso   1.00
O53    O     0.07071   0.18878   0.28213   0.00000  Uiso   1.00
O54    O     0.25491   0.15226   0.27014   0.00000  Uiso   1.00
O55    O     0.13760   0.06944   0.23413   0.00000  Uiso   1.00
O56    O     0.20345   0.25620   0.21361   0.00000  Uiso   1.00
Zn57   Zn    0.19338   0.13994   0.28734   0.00000  Uiso   1.00
Zn58   Zn    0.13379   0.12458   0.21876   0.00000  Uiso   1.00
Zn59   Zn    0.21056   0.19775   0.20657   0.00000  Uiso   1.00
Zn60   Zn    0.12893   0.20439   0.28734   0.00000  Uiso   1.00
C61    C     0.38651   0.16015   0.25932   0.00000  Uiso   1.00
C62    C     0.51368   0.16619   0.05735   0.00000  Uiso   1.00
C63    C     0.53876   0.10012   0.06105   0.00000  Uiso   1.00
C64    C     0.61392   0.17354   0.24040   0.00000  Uiso   1.00
C65    C     0.48032   0.19730   0.41909   0.00000  Uiso   1.00
C66    C     0.65928   0.17525   0.23745   0.00000  Uiso   1.00
C67    C     0.34130   0.15619   0.26554   0.00000  Uiso   1.00
C68    C     0.51358   0.32245   0.23657   0.00000  Uiso   1.00
C69    C     0.48537   0.01178   0.26409   0.00000  Uiso   1.00
C70    C     0.48946   0.05589   0.26031   0.00000  Uiso   1.00
C71    C     0.50986   0.27785   0.24022   0.00000  Uiso   1.00
C72    C     0.48727   0.25446   0.47534   0.00000  Uiso   1.00
C73    C     0.51857   0.14788   0.12955   0.00000  Uiso   1.00
C74    C     0.48209   0.18482   0.37108   0.00000  Uiso   1.00
C75    C     0.53597   0.08822   0.01683   0.00000  Uiso   1.00
C76    C     0.52591   0.13859   0.08144   0.00000  Uiso   1.00
C77    C     0.47524   0.23909   0.43624   0.00000  Uiso   1.00
C78    C     0.55258   0.07210   0.08635   0.00000  Uiso   1.00
C79    C     0.64852   0.13132   0.30394   0.00000  Uiso   1.00
C80    C     0.54807   0.04796   0.49604   0.00000  Uiso   1.00
C81    C     0.46198   0.26867   0.41250   0.00000  Uiso   1.00
C82    C     0.52702   0.25133   0.02984   0.00000  Uiso   1.00
C83    C     0.50394   0.22933   0.49850   0.00000  Uiso   1.00
C84    C     0.50275   0.18546   0.48644   0.00000  Uiso   1.00
C85    C     0.49126   0.16979   0.44586   0.00000  Uiso   1.00
C86    C     0.51365   0.15663   0.01216   0.00000  Uiso   1.00
C87    C     0.52064   0.11538   0.49349   0.00000  Uiso   1.00
C88    C     0.50889   0.10107   0.45368   0.00000  Uiso   1.00
C89    C     0.49164   0.12688   0.43232   0.00000  Uiso   1.00
H90    H     0.53951   0.00365   0.21126   0.00000  Uiso   1.00
H91    H     0.62977   0.10349   0.29123   0.00000  Uiso   1.00
H92    H     0.45913   0.33142   0.28960   0.00000  Uiso   1.00
H93    H     0.51045   0.06895   0.44011   0.00000  Uiso   1.00
H94    H     0.49999   0.19312   0.07596   0.00000  Uiso   1.00
H95    H     0.48653   0.28741   0.48614   0.00000  Uiso   1.00
H96    H     0.47878   0.11249   0.40471   0.00000  Uiso   1.00
H97    H     0.34792   0.19272   0.21126   0.00000  Uiso   1.00
H98    H     0.33604   0.11972   0.32197   0.00000  Uiso   1.00
H99    H     0.62729   0.15126   0.32866   0.00000  Uiso   1.00
N100   N     0.56356   0.04976   0.10657   0.00000  Uiso   1.00
N101   N     0.55786   0.01593   0.47943   0.00000  Uiso   1.00
N102   N     0.45142   0.29246   0.39361   0.00000  Uiso   1.00
N103   N     0.54556   0.26917   0.05475   0.00000  Uiso   1.00
O104   O     0.50000   0.16667   0.25000   0.00000  Uiso   1.00
O105   O     0.48784   0.12637   0.15459   0.00000  Uiso   1.00
O106   O     0.46274   0.20391   0.34968   0.00000  Uiso   1.00
O107   O     0.54157   0.17759   0.14606   0.00000  Uiso   1.00
O108   O     0.50785   0.15880   0.34968   0.00000  Uiso   1.00
O109   O     0.51264   0.08019   0.28214   0.00000  Uiso   1.00
O110   O     0.47965   0.26085   0.27014   0.00000  Uiso   1.00
O111   O     0.40745   0.13291   0.23413   0.00000  Uiso   1.00
O112   O     0.60026   0.19272   0.21361   0.00000  Uiso   1.00
O113   O     0.40405   0.18878   0.28213   0.00000  Uiso   1.00
O114   O     0.58824   0.15226   0.27014   0.00000  Uiso   1.00
O115   O     0.47093   0.06944   0.23413   0.00000  Uiso   1.00
O116   O     0.53678   0.25620   0.21361   0.00000  Uiso   1.00
Zn117  Zn    0.52672   0.13994   0.28734   0.00000  Uiso   1.00
Zn118  Zn    0.46713   0.12458   0.21876   0.00000  Uiso   1.00
Zn119  Zn    0.54389   0.19775   0.20657   0.00000  Uiso   1.00
Zn120  Zn    0.46226   0.20439   0.28734   0.00000  Uiso   1.00
C121   C     0.71984   0.16015   0.25932   0.00000  Uiso   1.00
C122   C     0.84702   0.16619   0.05735   0.00000  Uiso   1.00
C123   C     0.87209   0.10012   0.06105   0.00000  Uiso   1.00
C124   C     0.94726   0.17354   0.24040   0.00000  Uiso   1.00
C125   C     0.81365   0.19730   0.41909   0.00000  Uiso   1.00
C126   C     0.99261   0.17525   0.23745   0.00000  Uiso   1.00
C127   C     0.67463   0.15619   0.26554   0.00000  Uiso   1.00
C128   C     0.84691   0.32245   0.23657   0.00000  Uiso   1.00
C129   C     0.81870   0.01178   0.26409   0.00000  Uiso   1.00
C130   C     0.82279   0.05589   0.26031   0.00000  Uiso   1.00
C131   C     0.84320   0.27785   0.24022   0.00000  Uiso   1.00
C132   C     0.82061   0.25446   0.47534   0.00000  Uiso   1.00
C133   C     0.85190   0.14788   0.12955   0.00000  Uiso   1.00
C134   C     0.81542   0.18482   0.37108   0.00000  Uiso   1.00
C135   C     0.86930   0.08822   0.01683   0.00000  Uiso   1.00
C136   C     0.85924   0.13859   0.08144   0.00000  Uiso   1.00
C137   C     0.80857   0.23909   0.43624   0.00000  Uiso   1.00
C138   C     0.88591   0.07210   0.08635   0.00000  Uiso   1.00
C139   C     0.98185   0.13132   0.30394   0.00000  Uiso   1.00
C140   C     0.88140   0.04796   0.49604   0.00000  Uiso   1.00
C141   C     0.79531   0.26867   0.41250   0.00000  Uiso   1.00
C142   C     0.86036   0.25133   0.02984   0.00000  Uiso   1.00
C143   C     0.83727   0.22933   0.49850   0.00000  Uiso   1.00
C144   C     0.83609   0.18546   0.48644   0.00000  Uiso   1.00
C145   C     0.82459   0.16979   0.44586   0.00000  Uiso   1.00
C146   C     0.84698   0.15663   0.01216   0.00000  Uiso   1.00
C147   C     0.85397   0.11538   0.49349   0.00000  Uiso   1.00
C148   C     0.84223   0.10107   0.45368   0.00000  Uiso   1.00
C149   C     0.82497   0.12688   0.43232   0.00000  Uiso   1.00
H150   H     0.87284   0.00365   0.21126   0.00000  Uiso   1.00
H151   H     0.96311   0.10349   0.29123   0.00000  Uiso   1.00
H152   H     0.79246   0.33142   0.28960   0.00000  Uiso   1.00
H153   H     0.84379   0.06895   0.44011   0.00000  Uiso   1.00
H154   H     0.83333   0.19312   0.07596   0.00000  Uiso   1.00
H155   H     0.81986   0.28741   0.48614   0.00000  Uiso   1.00
H156   H     0.81212   0.11249   0.40471   0.00000  Uiso   1.00
H157   H     0.68125   0.19272   0.21126   0.00000  Uiso   1.00
H158   H     0.66937   0.11972   0.32197   0.00000  Uiso   1.00
H159   H     0.96063   0.15126   0.32866   0.00000  Uiso   1.00
N160   N     0.89690   0.04976   0.10657   0.00000  Uiso   1.00
N161   N     0.89119   0.01593   0.47943   0.00000  Uiso   1.00
N162   N     0.78475   0.29246   0.39361   0.00000  Uiso   1.00
N163   N     0.87890   0.26917   0.05475   0.00000  Uiso   1.00
O164   O     0.83333   0.16667   0.25000   0.00000  Uiso   1.00
O165   O     0.82118   0.12637   0.15459   0.00000  Uiso   1.00
O166   O     0.79607   0.20391   0.34968   0.00000  Uiso   1.00
O167   O     0.87491   0.17759   0.14606   0.00000  Uiso   1.00
O168   O     0.84118   0.15880   0.34968   0.00000  Uiso   1.00
O169   O     0.84597   0.08019   0.28214   0.00000  Uiso   1.00
O170   O     0.81298   0.26085   0.27014   0.00000  Uiso   1.00
O171   O     0.74078   0.13291   0.23413   0.00000  Uiso   1.00
O172   O     0.93360   0.19272   0.21361   0.00000  Uiso   1.00
O173   O     0.73738   0.18878   0.28213   0.00000  Uiso   1.00
O174   O     0.92158   0.15226   0.27014   0.00000  Uiso   1.00
O175   O     0.80426   0.06944   0.23413   0.00000  Uiso   1.00
O176   O     0.87012   0.25620   0.21361   0.00000  Uiso   1.00
Zn177  Zn    0.86005   0.13994   0.28734   0.00000  Uiso   1.00
Zn178  Zn    0.80046   0.12458   0.21876   0.00000  Uiso   1.00
Zn179  Zn    0.87723   0.19775   0.20657   0.00000  Uiso   1.00
Zn180  Zn    0.79560   0.20439   0.28734   0.00000  Uiso   1.00
C181   C     0.05318   0.49348   0.25932   0.00000  Uiso   1.00
C182   C     0.18035   0.49952   0.05735   0.00000  Uiso   1.00
C183   C     0.20543   0.43345   0.06105   0.00000  Uiso   1.00
C184   C     0.28059   0.50687   0.24040   0.00000  Uiso   1.00
C185   C     0.14698   0.53063   0.41909   0.00000  Uiso   1.00
C186   C     0.32595   0.50858   0.23745   0.00000  Uiso   1.00
C187   C     0.00796   0.48953   0.26554   0.00000  Uiso   1.00
C188   C     0.18024   0.65579   0.23657   0.00000  Uiso   1.00
C189   C     0.15203   0.34511   0.26409   0.00000  Uiso   1.00
C190   C     0.15613   0.38922   0.26031   0.00000  Uiso   1.00
C191   C     0.17653   0.61118   0.24022   0.00000  Uiso   1.00
C192   C     0.15394   0.58779   0.47534   0.00000  Uiso   1.00
C193   C     0.18524   0.48121   0.12955   0.00000  Uiso   1.00
C194   C     0.14876   0.51815   0.37108   0.00000  Uiso   1.00
C195   C     0.20264   0.42155   0.01683   0.00000  Uiso   1.00
C196   C     0.19258   0.47193   0.08144   0.00000  Uiso   1.00
C197   C     0.14190   0.57242   0.43624   0.00000  Uiso   1.00
C198   C     0.21925   0.40543   0.08635   0.00000  Uiso   1.00
C199   C     0.31519   0.46465   0.30394   0.00000  Uiso   1.00
C200   C     0.21473   0.38129   0.49604   0.00000  Uiso   1.00
C201   C     0.12865   0.60200   0.41250   0.00000  Uiso   1.00
C202   C     0.19369   0.58466   0.02984   0.00000  Uiso   1.00
C203   C     0.17061   0.56266   0.49850   0.00000  Uiso   1.00
C204   C     0.16942   0.51880   0.48644   0.00000  Uiso   1.00
C205   C     0.15793   0.50313   0.44586   0.00000  Uiso   1.00
C206   C     0.18032   0.48997   0.01216   0.00000  Uiso   1.00
C207   C     0.18731   0.44871   0.49349   0.00000  Uiso   1.00
C208   C     0.17556   0.43441   0.45368   0.00000  Uiso   1.00
C209   C     0.15830   0.46021   0.43232   0.00000  Uiso   1.00
H210   H     0.20618   0.33698   0.21126   0.00000  Uiso   1.00
H211   H     0.29644   0.43683   0.29123   0.00000  Uiso   1.00
H212   H     0.12579   0.66476   0.28960   0.00000  Uiso   1.00
H213   H     0.17712   0.40228   0.44011   0.00000  Uiso   1.00
H214   H     0.16666   0.52646   0.07596   0.00000  Uiso   1.00
H215   H     0.15320   0.62074   0.48614   0.00000  Uiso   1.00
H216   H     0.14545   0.44582   0.40471   0.00000  Uiso   1.00
H217   H     0.01459   0.52606   0.21126   0.00000  Uiso   1.00
H218   H     0.00270   0.45305   0.32197   0.00000  Uiso   1.00
H219   H     0.29396   0.48459   0.32866   0.00000  Uiso   1.00
N220   N     0.23023   0.38309   0.10657   0.00000  Uiso   1.00
N221   N     0.22453   0.34927   0.47943   0.00000  Uiso   1.00
N222   N     0.11808   0.62579   0.39361   0.00000  Uiso   1.00
N223   N     0.21223   0.60250   0.05475   0.00000  Uiso   1.00
O224   O     0.16667   0.50000   0.25000   0.00000  Uiso   1.00
O225   O     0.15451   0.45970   0.15459   0.00000  Uiso   1.00
O226   O     0.12940   0.53724   0.34968   0.00000  Uiso   1.00
O227   O     0.20824   0.51092   0.14606   0.00000  Uiso   1.00
O228   O     0.17451   0.49213   0.34968   0.00000  Uiso   1.00
O229   O     0.17930   0.41352   0.28214   0.00000  Uiso   1.00
O230   O     0.14632   0.59418   0.27014   0.00000  Uiso   1.00
O231   O     0.07412   0.46625   0.23413   0.00000  Uiso   1.00
O232   O     0.26693   0.52605   0.21361   0.00000  Uiso   1.00
O233   O     0.07071   0.52211   0.28213   0.00000  Uiso   1.00
O234   O     0.25491   0.48559   0.27014   0.00000  Uiso   1.00
O235   O     0.13760   0.40277   0.23413   0.00000  Uiso   1.00
O236   O     0.20345   0.58953   0.21361   0.00000  Uiso   1.00
Zn237  Zn    0.19338   0.47327   0.28734   0.00000  Uiso   1.00
Zn238  Zn    0.13379   0.45791   0.21876   0.00000  Uiso   1.00
Zn239  Zn    0.21056   0.53109   0.20657   0.00000  Uiso   1.00
Zn240  Zn    0.12893   0.53773   0.28734   0.00000  Uiso   1.00
C241   C     0.38651   0.49348   0.25932   0.00000  Uiso   1.00
C242   C     0.51368   0.49952   0.05735   0.00000  Uiso   1.00
C243   C     0.53876   0.43345   0.06105   0.00000  Uiso   1.00
C244   C     0.61392   0.50687   0.24040   0.00000  Uiso   1.00
C245   C     0.48032   0.53063   0.41909   0.00000  Uiso   1.00
C246   C     0.65928   0.50858   0.23745   0.00000  Uiso   1.00
C247   C     0.34130   0.48953   0.26554   0.00000  Uiso   1.00
C248   C     0.51358   0.65579   0.23657   0.00000  Uiso   1.00
C249   C     0.48537   0.34511   0.26409   0.00000  Uiso   1.00
C250   C     0.48946   0.38922   0.26031   0.00000  Uiso   1.00
C251   C     0.50986   0.61118   0.24022   0.00000  Uiso   1.00
C252   C     0.48727   0.58779   0.47534   0.00000  Uiso   1.00
C253   C     0.51857   0.48121   0.12955   0.00000  Uiso   1.00
C254   C     0.48209   0.51815   0.37108   0.00000  Uiso   1.00
C255   C     0.53597   0.42155   0.01683   0.00000  Uiso   1.00
C256   C     0.52591   0.47193   0.08144   0.00000  Uiso   1.00
C257   C     0.47524   0.57242   0.43624   0.00000  Uiso   1.00
C258   C     0.55258   0.40543   0.08635   0.00000  Uiso   1.00
C259   C     0.64852   0.46465   0.30394   0.00000  Uiso   1.00
C260   C     0.54807   0.38129   0.49604   0.00000  Uiso   1.00
C261   C     0.46198   0.60200   0.41250   0.00000  Uiso   1.00
C262   C     0.52702   0.58466   0.02984   0.00000  Uiso   1.00
C263   C     0.50394   0.56266   0.49850   0.00000  Uiso   1.00
C264   C     0.50275   0.51880   0.48644   0.00000  Uiso   1.00
C265   C     0.49126   0.50313   0.44586   0.00000  Uiso   1.00
C266   C     0.51365   0.48997   0.01216   0.00000  Uiso   1.00
C267   C     0.52064   0.44871   0.49349   0.00000  Uiso   1.00
C268   C     0.50889   0.43441   0.45368   0.00000  Uiso   1.00
C269   C     0.49164   0.46021   0.43232   0.00000  Uiso   1.00
H270   H     0.53951   0.33698   0.21126   0.00000  Uiso   1.00
H271   H     0.62977   0.43683   0.29123   0.00000  Uiso   1.00
H272   H     0.45913   0.66476   0.28960   0.00000  Uiso   1.00
H273   H     0.51045   0.40228   0.44011   0.00000  Uiso   1.00
H274   H     0.49999   0.52646   0.07596   0.00000  Uiso   1.00
H275   H     0.48653   0.62074   0.48614   0.00000  Uiso   1.00
H276   H     0.47878   0.44582   0.40471   0.00000  Uiso   1.00
H277   H     0.34792   0.52606   0.21126   0.00000  Uiso   1.00
H278   H     0.33604   0.45305   0.32197   0.00000  Uiso   1.00
H279   H     0.62729   0.48459   0.32866   0.00000  Uiso   1.00
N280   N     0.56356   0.38309   0.10657   0.00000  Uiso   1.00
N281   N     0.55786   0.34927   0.47943   0.00000  Uiso   1.00
N282   N     0.45142   0.62579   0.39361   0.00000  Uiso   1.00
N283   N     0.54556   0.60250   0.05475   0.00000  Uiso   1.00
O284   O     0.50000   0.50000   0.25000   0.00000  Uiso   1.00
O285   O     0.48784   0.45970   0.15459   0.00000  Uiso   1.00
O286   O     0.46274   0.53724   0.34968   0.00000  Uiso   1.00
O287   O     0.54157   0.51092   0.14606   0.00000  Uiso   1.00
O288   O     0.50785   0.49213   0.34968   0.00000  Uiso   1.00
O289   O     0.51264   0.41352   0.28214   0.00000  Uiso   1.00
O290   O     0.47965   0.59418   0.27014   0.00000  Uiso   1.00
O291   O     0.40745   0.46625   0.23413   0.00000  Uiso   1.00
O292   O     0.60026   0.52605   0.21361   0.00000  Uiso   1.00
O293   O     0.40405   0.52211   0.28213   0.00000  Uiso   1.00
O294   O     0.58824   0.48559   0.27014   0.00000  Uiso   1.00
O295   O     0.47093   0.40277   0.23413   0.00000  Uiso   1.00
O296   O     0.53678   0.58953   0.21361   0.00000  Uiso   1.00
Zn297  Zn    0.52672   0.47327   0.28734   0.00000  Uiso   1.00
Zn298  Zn    0.46713   0.45791   0.21876   0.00000  Uiso   1.00
Zn299  Zn    0.54389   0.53109   0.20657   0.00000  Uiso   1.00
Zn300  Zn    0.46226   0.53773   0.28734   0.00000  Uiso   1.00
C301   C     0.71984   0.49348   0.25932   0.00000  Uiso   1.00
C302   C     0.84702   0.49952   0.05735   0.00000  Uiso   1.00
C303   C     0.87209   0.43345   0.06105   0.00000  Uiso   1.00
C304   C     0.94726   0.50687   0.24040   0.00000  Uiso   1.00
C305   C     0.81365   0.53063   0.41909   0.00000  Uiso   1.00
C306   C     0.99261   0.50858   0.23745   0.00000  Uiso   1.00
C307   C     0.67463   0.48953   0.26554   0.00000  Uiso   1.00
C308   C     0.84691   0.65579   0.23657   0.00000  Uiso   1.00
C309   C     0.81870   0.34511   0.26409   0.00000  Uiso   1.00
C310   C     0.82279   0.38922   0.26031   0.00000  Uiso   1.00
C311   C     0.84320   0.61118   0.24022   0.00000  Uiso   1.00
C312   C     0.82061   0.58779   0.47534   0.00000  Uiso   1.00
C313   C     0.85190   0.48121   0.12955   0.00000  Uiso   1.00
C314   C     0.81542   0.51815   0.37108   0.00000  Uiso   1.00
C315   C     0.86930   0.42155   0.01683   0.00000  Uiso   1.00
C316   C     0.85924   0.47193   0.08144   0.00000  Uiso   1.00
C317   C     0.80857   0.57242   0.43624   0.00000  Uiso   1.00
C318   C     0.88591   0.40543   0.08635   0.00000  Uiso   1.00
C319   C     0.98185   0.46465   0.30394   0.00000  Uiso   1.00
C320   C     0.88140   0.38129   0.49604   0.00000  Uiso   1.00
C321   C     0.79531   0.60200   0.41250   0.00000  Uiso   1.00
C322   C     0.86036   0.58466   0.02984   0.00000  Uiso   1.00
C323   C     0.83727   0.56266   0.49850   0.00000  Uiso   1.00
C324   C     0.83609   0.51880   0.48644   0.00000  Uiso   1.00
C325   C     0.82459   0.50313   0.44586   0.00000  Uiso   1.00
C326   C     0.84698   0.48997   0.01216   0.00000  Uiso   1.00
C327   C     0.85397   0.44871   0.49349   0.00000  Uiso   1.00
C328   C     0.84223   0.43441   0.45368   0.00000  Uiso   1.00
C329   C     0.82497   0.46021   0.43232   0.00000  Uiso   1.00
H330   H     0.87284   0.33698   0.21126   0.00000  Uiso   1.00
H331   H     0.96311   0.43683   0.29123   0.00000  Uiso   1.00
H332   H     0.79246   0.66476   0.28960   0.00000  Uiso   1.00
H333   H     0.84379   0.40228   0.44011   0.00000  Uiso   1.00
H334   H     0.83333   0.52646   0.07596   0.00000  Uiso   1.00
H335   H     0.81986   0.62074   0.48614   0.00000  Uiso   1.00
H336   H     0.81212   0.44582   0.40471   0.00000  Uiso   1.00
H337   H     0.68125   0.52606   0.21126   0.00000  Uiso   1.00
H338   H     0.66937   0.45305   0.32197   0.00000  Uiso   1.00
H339   H     0.96063   0.48459   0.32866   0.00000  Uiso   1.00
N340   N     0.89690   0.38309   0.10657   0.00000  Uiso   1.00
N341   N     0.89119   0.34927   0.47943   0.00000  Uiso   1.00
N342   N     0.78475   0.62579   0.39361   0.00000  Uiso   1.00
N343   N     0.87890   0.60250   0.05475   0.00000  Uiso   1.00
O344   O     0.83333   0.50000   0.25000   0.00000  Uiso   1.00
O345   O     0.82118   0.45970   0.15459   0.00000  Uiso   1.00
O346   O     0.79607   0.53724   0.34968   0.00000  Uiso   1.00
O347   O     0.87491   0.51092   0.14606   0.00000  Uiso   1.00
O348   O     0.84118   0.49213   0.34968   0.00000  Uiso   1.00
O349   O     0.84597   0.41352   0.28214   0.00000  Uiso   1.00
O350   O     0.81298   0.59418   0.27014   0.00000  Uiso   1.00
O351   O     0.74078   0.46625   0.23413   0.00000  Uiso   1.00
O352   O     0.93360   0.52605   0.21361   0.00000  Uiso   1.00
O353   O     0.73738   0.52211   0.28213   0.00000  Uiso   1.00
O354   O     0.92158   0.48559   0.27014   0.00000  Uiso   1.00
O355   O     0.80426   0.40277   0.23413   0.00000  Uiso   1.00
O356   O     0.87012   0.58953   0.21361   0.00000  Uiso   1.00
Zn357  Zn    0.86005   0.47327   0.28734   0.00000  Uiso   1.00
Zn358  Zn    0.80046   0.45791   0.21876   0.00000  Uiso   1.00
Zn359  Zn    0.87723   0.53109   0.20657   0.00000  Uiso   1.00
Zn360  Zn    0.79560   0.53773   0.28734   0.00000  Uiso   1.00
C361   C     0.05318   0.82681   0.25932   0.00000  Uiso   1.00
C362   C     0.18035   0.83286   0.05735   0.00000  Uiso   1.00
C363   C     0.20543   0.76678   0.06105   0.00000  Uiso   1.00
C364   C     0.28059   0.84021   0.24040   0.00000  Uiso   1.00
C365   C     0.14698   0.86396   0.41909   0.00000  Uiso   1.00
C366   C     0.32595   0.84191   0.23745   0.00000  Uiso   1.00
C367   C     0.00796   0.82286   0.26554   0.00000  Uiso   1.00
C368   C     0.18024   0.98912   0.23657   0.00000  Uiso   1.00
C369   C     0.15203   0.67844   0.26409   0.00000  Uiso   1.00
C370   C     0.15613   0.72255   0.26031   0.00000  Uiso   1.00
C371   C     0.17653   0.94452   0.24022   0.00000  Uiso   1.00
C372   C     0.15394   0.92112   0.47534   0.00000  Uiso   1.00
C373   C     0.18524   0.81454   0.12955   0.00000  Uiso   1.00
C374   C     0.14876   0.85149   0.37108   0.00000  Uiso   1.00
C375   C     0.20264   0.75488   0.01683   0.00000  Uiso   1.00
C376   C     0.19258   0.80526   0.08144   0.00000  Uiso   1.00
C377   C     0.14190   0.90575   0.43624   0.00000  Uiso   1.00
C378   C     0.21925   0.73877   0.08635   0.00000  Uiso   1.00
C379   C     0.31519   0.79799   0.30394   0.00000  Uiso   1.00
C380   C     0.21473   0.71462   0.49604   0.00000  Uiso   1.00
C381   C     0.12865   0.93533   0.41250   0.00000  Uiso   1.00
C382   C     0.19369   0.91799   0.02984   0.00000  Uiso   1.00
C383   C     0.17061   0.89599   0.49850   0.00000  Uiso   1.00
C384   C     0.16942   0.85213   0.48644   0.00000  Uiso   1.00
C385   C     0.15793   0.83646   0.44586   0.00000  Uiso   1.00
C386   C     0.18032   0.82330   0.01216   0.00000  Uiso   1.00
C387   C     0.18731   0.78205   0.49349   0.00000  Uiso   1.00
C388   C     0.17556   0.76774   0.45368   0.00000  Uiso   1.00
C389   C     0.15830   0.79354   0.43232   0.00000  Uiso   1.00
H390   H     0.20618   0.67031   0.21126   0.00000  Uiso   1.00
H391   H     0.29644   0.77016   0.29123   0.00000  Uiso   1.00
H392   H     0.12579   0.99809   0.28960   0.00000  Uiso   1.00
H393   H     0.17712   0.73562   0.44011   0.00000  Uiso   1.00
H394   H     0.16666   0.85979   0.07596   0.00000  Uiso   1.00
H395   H     0.15320   0.95408   0.48614   0.00000  Uiso   1.00
H396   H     0.14545   0.77915   0.40471   0.00000  Uiso   1.00
H397   H     0.01459   0.85939   0.21126   0.00000  Uiso   1.00
H398   H     0.00270   0.78638   0.32197   0.00000  Uiso   1.00
H399   H     0.29396   0.81793   0.32866   0.00000  Uiso   1.00
N400   N     0.23023   0.71643   0.10657   0.00000  Uiso   1.00
N401   N     0.22453   0.68260   0.47943   0.00000  Uiso   1.00
N402   N     0.11808   0.95913   0.39361   0.00000  Uiso   1.00
N403   N     0.21223   0.93583   0.05475   0.00000  Uiso   1.00
O404   O     0.16667   0.83333   0.25000   0.00000  Uiso   1.00
O405   O     0.15451   0.79304   0.15459   0.00000  Uiso   1.00
O406   O     0.12940   0.87058   0.34968   0.00000  Uiso   1.00
O407   O     0.20824   0.84425   0.14606   0.00000  Uiso   1.00
O408   O     0.17451   0.82546   0.34968   0.00000  Uiso   1.00
O409   O     0.17930   0.74686   0.28214   0.00000  Uiso   1.00
O410   O     0.14632   0.92751   0.27014   0.00000  Uiso   1.00
O411   O     0.07412   0.79958   0.23413   0.00000  Uiso   1.00
O412   O     0.26693   0.85939   0.21361   0.00000  Uiso   1.00
O413   O     0.07071   0.85544   0.28213   0.00000  Uiso   1.00
O414   O     0.25491   0.81892   0.27014   0.00000  Uiso   1.00
O415   O     0.13760   0.73610   0.23413   0.00000  Uiso   1.00
O416   O     0.20345   0.92286   0.21361   0.00000  Uiso   1.00
Zn417  Zn    0.19338   0.80661   0.28734   0.00000  Uiso   1.00
Zn418  Zn    0.13379   0.79124   0.21876   0.00000  Uiso   1.00
Zn419  Zn    0.21056   0.86442   0.20657   0.00000  Uiso   1.00
Zn420  Zn    0.12893   0.87106   0.28734   0.00000  Uiso   1.00
C421   C     0.38651   0.82681   0.25932   0.00000  Uiso   1.00
C422   C     0.51368   0.83286   0.05735   0.00000  Uiso   1.00
C423   C     0.53876   0.76678   0.06105   0.00000  Uiso   1.00
C424   C     0.61392   0.84021   0.24040   0.00000  Uiso   1.00
C425   C     0.48032   0.86396   0.41909   0.00000  Uiso   1.00
C426   C     0.65928   0.84191   0.23745   0.00000  Uiso   1.00
C427   C     0.34130   0.82286   0.26554   0.00000  Uiso   1.00
C428   C     0.51358   0.98912   0.23657   0.00000  Uiso   1.00
C429   C     0.48537   0.67844   0.26409   0.00000  Uiso   1.00
C430   C     0.48946   0.72255   0.26031   0.00000  Uiso   1.00
C431   C     0.50986   0.94452   0.24022   0.00000  Uiso   1.00
C432   C     0.48727   0.92112   0.47534   0.00000  Uiso   1.00
C433   C     0.51857   0.81454   0.12955   0.00000  Uiso   1.00
C434   C     0.48209   0.85149   0.37108   0.00000  Uiso   1.00
C435   C     0.53597   0.75488   0.01683   0.00000  Uiso   1.00
C436   C     0.52591   0.80526   0.08144   0.00000  Uiso   1.00
C437   C     0.47524   0.90575   0.43624   0.00000  Uiso   1.00
C438   C     0.55258   0.73877   0.08635   0.00000  Uiso   1.00
C439   C     0.64852   0.79799   0.30394   0.00000  Uiso   1.00
C440   C     0.54807   0.71462   0.49604   0.00000  Uiso   1.00
C441   C     0.46198   0.93533   0.41250   0.00000  Uiso   1.00
C442   C     0.52702   0.91799   0.02984   0.00000  Uiso   1.00
C443   C     0.50394   0.89599   0.49850   0.00000  Uiso   1.00
C444   C     0.50275   0.85213   0.48644   0.00000  Uiso   1.00
C445   C     0.49126   0.83646   0.44586   0.00000  Uiso   1.00
C446   C     0.51365   0.82330   0.01216   0.00000  Uiso   1.00
C447   C     0.52064   0.78205   0.49349   0.00000  Uiso   1.00
C448   C     0.50889   0.76774   0.45368   0.00000  Uiso   1.00
C449   C     0.49164   0.79354   0.43232   0.00000  Uiso   1.00
H450   H     0.53951   0.67031   0.21126   0.00000  Uiso   1.00
H451   H     0.62977   0.77016   0.29123   0.00000  Uiso   1.00
H452   H     0.45913   0.99809   0.28960   0.00000  Uiso   1.00
H453   H     0.51045   0.73562   0.44011   0.00000  Uiso   1.00
H454   H     0.49999   0.85979   0.07596   0.00000  Uiso   1.00
H455   H     0.48653   0.95408   0.48614   0.00000  Uiso   1.00
H456   H     0.47878   0.77915   0.40471   0.00000  Uiso   1.00
H457   H     0.34792   0.85939   0.21126   0.00000  Uiso   1.00
H458   H     0.33604   0.78638   0.32197   0.00000  Uiso   1.00
H459   H     0.62729   0.81793   0.32866   0.00000  Uiso   1.00
N460   N     0.56356   0.71643   0.10657   0.00000  Uiso   1.00
N461   N     0.55786   0.68260   0.47943   0.00000  Uiso   1.00
N462   N     0.45142   0.95913   0.39361   0.00000  Uiso   1.00
N463   N     0.54556   0.93583   0.05475   0.00000  Uiso   1.00
O464   O     0.50000   0.83333   0.25000   0.00000  Uiso   1.00
O465   O     0.48784   0.79304   0.15459   0.00000  Uiso   1.00
O466   O     0.46274   0.87058   0.34968   0.00000  Uiso   1.00
O467   O     0.54157   0.84425   0.14606   0.00000  Uiso   1.00
O468   O     0.50785   0.82546   0.34968   0.00000  Uiso   1.00
O469   O     0.51264   0.74686   0.28214   0.00000  Uiso   1.00
O470   O     0.47965   0.92751   0.27014   0.00000  Uiso   1.00
O471   O     0.40745   0.79958   0.23413   0.00000  Uiso   1.00
O472   O     0.60026   0.85939   0.21361   0.00000  Uiso   1.00
O473   O     0.40405   0.85544   0.28213   0.00000  Uiso   1.00
O474   O     0.58824   0.81892   0.27014   0.00000  Uiso   1.00
O475   O     0.47093   0.73610   0.23413   0.00000  Uiso   1.00
O476   O     0.53678   0.92286   0.21361   0.00000  Uiso   1.00
Zn477  Zn    0.52672   0.80661   0.28734   0.00000  Uiso   1.00
Zn478  Zn    0.46713   0.79124   0.21876   0.00000  Uiso   1.00
Zn479  Zn    0.54389   0.86442   0.20657   0.00000  Uiso   1.00
Zn480  Zn    0.46226   0.87106   0.28734   0.00000  Uiso   1.00
C481   C     0.71984   0.82681   0.25932   0.00000  Uiso   1.00
C482   C     0.84702   0.83286   0.05735   0.00000  Uiso   1.00
C483   C     0.87209   0.76678   0.06105   0.00000  Uiso   1.00
C484   C     0.94726   0.84021   0.24040   0.00000  Uiso   1.00
C485   C     0.81365   0.86396   0.41909   0.00000  Uiso   1.00
C486   C     0.99261   0.84191   0.23745   0.00000  Uiso   1.00
C487   C     0.67463   0.82286   0.26554   0.00000  Uiso   1.00
C488   C     0.84691   0.98912   0.23657   0.00000  Uiso   1.00
C489   C     0.81870   0.67844   0.26409   0.00000  Uiso   1.00
C490   C     0.82279   0.72255   0.26031   0.00000  Uiso   1.00
C491   C     0.84320   0.94452   0.24022   0.00000  Uiso   1.00
C492   C     0.82061   0.92112   0.47534   0.00000  Uiso   1.00
C493   C     0.85190   0.81454   0.12955   0.00000  Uiso   1.00
C494   C     0.81542   0.85149   0.37108   0.00000  Uiso   1.00
C495   C     0.86930   0.75488   0.01683   0.00000  Uiso   1.00
C496   C     0.85924   0.80526   0.08144   0.00000  Uiso   1.00
C497   C     0.80857   0.90575   0.43624   0.00000  Uiso   1.00
C498   C     0.88591   0.73877   0.08635   0.00000  Uiso   1.00
C499   C     0.98185   0.79799   0.30394   0.00000  Uiso   1.00
C500   C     0.88140   0.71462   0.49604   0.00000  Uiso   1.00
C501   C     0.79531   0.93533   0.41250   0.00000  Uiso   1.00
C502   C     0.86036   0.91799   0.02984   0.00000  Uiso   1.00
C503   C     0.83727   0.89599   0.49850   0.00000  Uiso   1.00
C504   C     0.83609   0.85213   0.48644   0.00000  Uiso   1.00
C505   C     0.82459   0.83646   0.44586   0.00000  Uiso   1.00
C506   C     0.84698   0.82330   0.01216   0.00000  Uiso   1.00
C507   C     0.85397   0.78205   0.49349   0.00000  Uiso   1.00
C508   C     0.84223   0.76774   0.45368   0.00000  Uiso   1.00
C509   C     0.82497   0.79354   0.43232   0.00000  Uiso   1.00
H510   H     0.87284   0.67031   0.21126   0.00000  Uiso   1.00
H511   H     0.96311   0.77016   0.29123   0.00000  Uiso   1.00
H512   H     0.79246   0.99809   0.28960   0.00000  Uiso   1.00
H513   H     0.84379   0.73562   0.44011   0.00000  Uiso   1.00
H514   H     0.83333   0.85979   0.07596   0.00000  Uiso   1.00
H515   H     0.81986   0.95408   0.48614   0.00000  Uiso   1.00
H516   H     0.81212   0.77915   0.40471   0.00000  Uiso   1.00
H517   H     0.68125   0.85939   0.21126   0.00000  Uiso   1.00
H518   H     0.66937   0.78638   0.32197   0.00000  Uiso   1.00
H519   H     0.96063   0.81793   0.32866   0.00000  Uiso   1.00
N520   N     0.89690   0.71643   0.10657   0.00000  Uiso   1.00
N521   N     0.89119   0.68260   0.47943   0.00000  Uiso   1.00
N522   N     0.78475   0.95913   0.39361   0.00000  Uiso   1.00
N523   N     0.87890   0.93583   0.05475   0.00000  Uiso   1.00
O524   O     0.83333   0.83333   0.25000   0.00000  Uiso   1.00
O525   O     0.82118   0.79304   0.15459   0.00000  Uiso   1.00
O526   O     0.79607   0.87058   0.34968   0.00000  Uiso   1.00
O527   O     0.87491   0.84425   0.14606   0.00000  Uiso   1.00
O528   O     0.84118   0.82546   0.34968   0.00000  Uiso   1.00
O529   O     0.84597   0.74686   0.28214   0.00000  Uiso   1.00
O530   O     0.81298   0.92751   0.27014   0.00000  Uiso   1.00
O531   O     0.74078   0.79958   0.23413   0.00000  Uiso   1.00
O532   O     0.93360   0.85939   0.21361   0.00000  Uiso   1.00
O533   O     0.73738   0.85544   0.28213   0.00000  Uiso   1.00
O534   O     0.92158   0.81892   0.27014   0.00000  Uiso   1.00
O535   O     0.80426   0.73610   0.23413   0.00000  Uiso   1.00
O536   O     0.87012   0.92286   0.21361   0.00000  Uiso   1.00
Zn537  Zn    0.86005   0.80661   0.28734   0.00000  Uiso   1.00
Zn538  Zn    0.80046   0.79124   0.21876   0.00000  Uiso   1.00
Zn539  Zn    0.87723   0.86442   0.20657   0.00000  Uiso   1.00
Zn540  Zn    0.79560   0.87106   0.28734   0.00000  Uiso   1.00
C541   C     0.05318   0.16015   0.75932   0.00000  Uiso   1.00
C542   C     0.18035   0.16619   0.55735   0.00000  Uiso   1.00
C543   C     0.20543   0.10012   0.56105   0.00000  Uiso   1.00
C544   C     0.28059   0.17354   0.74040   0.00000  Uiso   1.00
C545   C     0.14698   0.19730   0.91909   0.00000  Uiso   1.00
C546   C     0.32595   0.17525   0.73745   0.00000  Uiso   1.00
C547   C     0.00796   0.15619   0.76554   0.00000  Uiso   1.00
C548   C     0.18024   0.32245   0.73657   0.00000  Uiso   1.00
C549   C     0.15203   0.01178   0.76409   0.00000  Uiso   1.00
C550   C     0.15613   0.05589   0.76031   0.00000  Uiso   1.00
C551   C     0.17653   0.27785   0.74022   0.00000  Uiso   1.00
C552   C     0.15394   0.25446   0.97534   0.00000  Uiso   1.00
C553   C     0.18524   0.14788   0.62955   0.00000  Uiso   1.00
C554   C     0.14876   0.18482   0.87108   0.00000  Uiso   1.00
C555   C     0.20264   0.08822   0.51683   0.00000  Uiso   1.00
C556   C     0.19258   0.13859   0.58144   0.00000  Uiso   1.00
C557   C     0.14190   0.23909   0.93624   0.00000  Uiso   1.00
C558   C     0.21925   0.07210   0.58635   0.00000  Uiso   1.00
C559   C     0.31519   0.13132   0.80394   0.00000  Uiso   1.00
C560   C     0.21473   0.04796   0.99604   0.00000  Uiso   1.00
C561   C     0.12865   0.26867   0.91250   0.00000  Uiso   1.00
C562   C     0.19369   0.25133   0.52984   0.00000  Uiso   1.00
C563   C     0.17061   0.22933   0.99850   0.00000  Uiso   1.00
C564   C     0.16942   0.18546   0.98644   0.00000  Uiso   1.00
C565   C     0.15793   0.16979   0.94586   0.00000  Uiso   1.00
C566   C     0.18032   0.15663   0.51216   0.00000  Uiso   1.00
C567   C     0.18731   0.11538   0.99349   0.00000  Uiso   1.00
C568   C     0.17556   0.10107   0.95368   0.00000  Uiso   1.00
C569   C     0.15830   0.12688   0.93232   0.00000  Uiso   1.00
H570   H     0.20618   0.00365   0.71126   0.00000  Uiso   1.00
H571   H     0.29644   0.10349   0.79123   0.00000  Uiso   1.00
H572   H     0.12579   0.33142   0.78960   0.00000  Uiso   1.00
H573   H     0.17712   0.06895   0.94011   0.00000  Uiso   1.00
H574   H     0.16666   0.19312   0.57596   0.00000  Uiso   1.00
H575   H     0.15320   0.28741   0.98614   0.00000  Uiso   1.00
H576   H     0.14545   0.11249   0.90471   0.00000  Uiso   1.00
H577   H     0.01459   0.19272   0.71126   0.00000  Uiso   1.00
H578   H     0.00270   0.11972   0.82197   0.00000  Uiso   1.00
H579   H     0.29396   0.15126   0.82866   0.00000  Uiso   1.00
N580   N     0.23023   0.04976   0.60657   0.00000  Uiso   1.00
N581   N     0.22453   0.01593   0.97943   0.00000  Uiso   1.00
N582   N     0.11808   0.29246   0.89361   0.00000  Uiso   1.00
N583   N     0.21223   0.26917   0.55475   0.00000  Uiso   1.00
O584   O     0.16667   0.16667   0.75000   0.00000  Uiso   1.00
O585   O     0.15451   0.12637   0.65459   0.00000  Uiso   1.00
O586   O     0.12940   0.20391   0.84968   0.00000  Uiso   1.00
O587   O     0.20824   0.17759   0.64606   0.00000  Uiso   1.00
O588   O     0.17451   0.15880   0.84968   0.00000  Uiso   1.00
O589   O     0.17930   0.08019   0.78214   0.00000  Uiso   1.00
O590   O     0.14632   0.26085   0.77014   0.00000  Uiso   1.00
O591   O     0.07412   0.13291   0.73413   0.00000  Uiso   1.00
O592   O     0.26693   0.19272   0.71361   0.00000  Uiso   1.00
O593   O     0.07071   0.18878   0.78213   0.00000  Uiso   1.00
O594   O     0.25491   0.15226   0.77014   0.00000  Uiso   1.00
O595   O     0.13760   0.06944   0.73413   0.00000  Uiso   1.00
O596   O     0.20345   0.25620   0.71361   0.00000  Uiso   1.00
Zn597  Zn    0.19338   0.13994   0.78734   0.00000  Uiso   1.00
Zn598  Zn    0.13379   0.12458   0.71876   0.00000  Uiso   1.00
Zn599  Zn    0.21056   0.19775   0.70657   0.00000  Uiso   1.00
Zn600  Zn    0.12893   0.20439   0.78734   0.00000  Uiso   1.00
C601   C     0.38651   0.16015   0.75932   0.00000  Uiso   1.00
C602   C     0.51368   0.16619   0.55735   0.00000  Uiso   1.00
C603   C     0.53876   0.10012   0.56105   0.00000  Uiso   1.00
C604   C     0.61392   0.17354   0.74040   0.00000  Uiso   1.00
C605   C     0.48032   0.19730   0.91909   0.00000  Uiso   1.00
C606   C     0.65928   0.17525   0.73745   0.00000  Uiso   1.00
C607   C     0.34130   0.15619   0.76554   0.00000  Uiso   1.00
C608   C     0.51358   0.32245   0.73657   0.00000  Uiso   1.00
C609   C     0.48537   0.01178   0.76409   0.00000  Uiso   1.00
C610   C     0.48946   0.05589   0.76031   0.00000  Uiso   1.00
C611   C     0.50986   0.27785   0.74022   0.00000  Uiso   1.00
C612   C     0.48727   0.25446   0.97534   0.00000  Uiso   1.00
C613   C     0.51857   0.14788   0.62955   0.00000  Uiso   1.00
C614   C     0.48209   0.18482   0.87108   0.00000  Uiso   1.00
C615   C     0.53597   0.08822   0.51683   0.00000  Uiso   1.00
C616   C     0.52591   0.13859   0.58144   0.00000  Uiso   1.00
C617   C     0.47524   0.23909   0.93624   0.00000  Uiso   1.00
C618   C     0.55258   0.07210   0.58635   0.00000  Uiso   1.00
C619   C     0.64852   0.13132   0.80394   0.00000  Uiso   1.00
C620   C     0.54807   0.04796   0.99604   0.00000  Uiso   1.00
C621   C     0.46198   0.26867   0.91250   0.00000  Uiso   1.00
C622   C     0.52702   0.25133   0.52984   0.00000  Uiso   1.00
C623   C     0.50394   0.22933   0.99850   0.00000  Uiso   1.00
C624   C     0.50275   0.18546   0.98644   0.00000  Uiso   1.00
C625   C     0.49126   0.16979   0.94586   0.00000  Uiso   1.00
C626   C     0.51365   0.15663   0.51216   0.00000  Uiso   1.00
C627   C     0.52064   0.11538   0.99349   0.00000  Uiso   1.00
C628   C     0.50889   0.10107   0.95368   0.00000  Uiso   1.00
C629   C     0.49164   0.12688   0.93232   0.00000  Uiso   1.00
H630   H     0.53951   0.00365   0.71126   0.00000  Uiso   1.00
H631   H     0.62977   0.10349   0.79123   0.00000  Uiso   1.00
H632   H     0.45913   0.33142   0.78960   0.00000  Uiso   1.00
H633   H     0.51045   0.06895   0.94011   0.00000  Uiso   1.00
H634   H     0.49999   0.19312   0.57596   0.00000  Uiso   1.00
H635   H     0.48653   0.28741   0.98614   0.00000  Uiso   1.00
H636   H     0.47878   0.11249   0.90471   0.00000  Uiso   1.00
H637   H     0.34792   0.19272   0.71126   0.00000  Uiso   1.00
H638   H     0.33604   0.11972   0.82197   0.00000  Uiso   1.00
H639   H     0.62729   0.15126   0.82866   0.00000  Uiso   1.00
N640   N     0.56356   0.04976   0.60657   0.00000  Uiso   1.00
N641   N     0.55786   0.01593   0.97943   0.00000  Uiso   1.00
N642   N     0.45142   0.29246   0.89361   0.00000  Uiso   1.00
N643   N     0.54556   0.26917   0.55475   0.00000  Uiso   1.00
O644   O     0.50000   0.16667   0.75000   0.00000  Uiso   1.00
O645   O     0.48784   0.12637   0.65459   0.00000  Uiso   1.00
O646   O     0.46274   0.20391   0.84968   0.00000  Uiso   1.00
O647   O     0.54157   0.17759   0.64606   0.00000  Uiso   1.00
O648   O     0.50785   0.15880   0.84968   0.00000  Uiso   1.00
O649   O     0.51264   0.08019   0.78214   0.00000  Uiso   1.00
O650   O     0.47965   0.26085   0.77014   0.00000  Uiso   1.00
O651   O     0.40745   0.13291   0.73413   0.00000  Uiso   1.00
O652   O     0.60026   0.19272   0.71361   0.00000  Uiso   1.00
O653   O     0.40405   0.18878   0.78213   0.00000  Uiso   1.00
O654   O     0.58824   0.15226   0.77014   0.00000  Uiso   1.00
O655   O     0.47093   0.06944   0.73413   0.00000  Uiso   1.00
O656   O     0.53678   0.25620   0.71361   0.00000  Uiso   1.00
Zn657  Zn    0.52672   0.13994   0.78734   0.00000  Uiso   1.00
Zn658  Zn    0.46713   0.12458   0.71876   0.00000  Uiso   1.00
Zn659  Zn    0.54389   0.19775   0.70657   0.00000  Uiso   1.00
Zn660  Zn    0.46226   0.20439   0.78734   0.00000  Uiso   1.00
C661   C     0.71984   0.16015   0.75932   0.00000  Uiso   1.00
C662   C     0.84702   0.16619   0.55735   0.00000  Uiso   1.00
C663   C     0.87209   0.10012   0.56105   0.00000  Uiso   1.00
C664   C     0.94726   0.17354   0.74040   0.00000  Uiso   1.00
C665   C     0.81365   0.19730   0.91909   0.00000  Uiso   1.00
C666   C     0.99261   0.17525   0.73745   0.00000  Uiso   1.00
C667   C     0.67463   0.15619   0.76554   0.00000  Uiso   1.00
C668   C     0.84691   0.32245   0.73657   0.00000  Uiso   1.00
C669   C     0.81870   0.01178   0.76409   0.00000  Uiso   1.00
C670   C     0.82279   0.05589   0.76031   0.00000  Uiso   1.00
C671   C     0.84320   0.27785   0.74022   0.00000  Uiso   1.00
C672   C     0.82061   0.25446   0.97534   0.00000  Uiso   1.00
C673   C     0.85190   0.14788   0.62955   0.00000  Uiso   1.00
C674   C     0.81542   0.18482   0.87108   0.00000  Uiso   1.00
C675   C     0.86930   0.08822   0.51683   0.00000  Uiso   1.00
C676   C     0.85924   0.13859   0.58144   0.00000  Uiso   1.00
C677   C     0.80857   0.23909   0.93624   0.00000  Uiso   1.00
C678   C     0.88591   0.07210   0.58635   0.00000  Uiso   1.00
C679   C     0.98185   0.13132   0.80394   0.00000  Uiso   1.00
C680   C     0.88140   0.04796   0.99604   0.00000  Uiso   1.00
C681   C     0.79531   0.26867   0.91250   0.00000  Uiso   1.00
C682   C     0.86036   0.25133   0.52984   0.00000  Uiso   1.00
C683   C     0.83727   0.22933   0.99850   0.00000  Uiso   1.00
C684   C     0.83609   0.18546   0.98644   0.00000  Uiso   1.00
C685   C     0.82459   0.16979   0.94586   0.00000  Uiso   1.00
C686   C     0.84698   0.15663   0.51216   0.00000  Uiso   1.00
C687   C     0.85397   0.11538   0.99349   0.00000  Uiso   1.00
C688   C     0.84223   0.10107   0.95368   0.00000  Uiso   1.00
C689   C     0.82497   0.12688   0.93232   0.00000  Uiso   1.00
H690   H     0.87284   0.00365   0.71126   0.00000  Uiso   1.00
H691   H     0.96311   0.10349   0.79123   0.00000  Uiso   1.00
H692   H     0.79246   0.33142   0.78960   0.00000  Uiso   1.00
H693   H     0.84379   0.06895   0.94011   0.00000  Uiso   1.00
H694   H     0.83333   0.19312   0.57596   0.00000  Uiso   1.00
H695   H     0.81986   0.28741   0.98614   0.00000  Uiso   1.00
H696   H     0.81212   0.11249   0.90471   0.00000  Uiso   1.00
H697   H     0.68125   0.19272   0.71126   0.00000  Uiso   1.00
H698   H     0.66937   0.11972   0.82197   0.00000  Uiso   1.00
H699   H     0.96063   0.15126   0.82866   0.00000  Uiso   1.00
N700   N     0.89690   0.04976   0.60657   0.00000  Uiso   1.00
N701   N     0.89119   0.01593   0.97943   0.00000  Uiso   1.00
N702   N     0.78475   0.29246   0.89361   0.00000  Uiso   1.00
N703   N     0.87890   0.26917   0.55475   0.00000  Uiso   1.00
O704   O     0.83333   0.16667   0.75000   0.00000  Uiso   1.00
O705   O     0.82118   0.12637   0.65459   0.00000  Uiso   1.00
O706   O     0.79607   0.20391   0.84968   0.00000  Uiso   1.00
O707   O     0.87491   0.17759   0.64606   0.00000  Uiso   1.00
O708   O     0.84118   0.15880   0.84968   0.00000  Uiso   1.00
O709   O     0.84597   0.08019   0.78214   0.00000  Uiso   1.00
O710   O     0.81298   0.26085   0.77014   0.00000  Uiso   1.00
O711   O     0.74078   0.13291   0.73413   0.00000  Uiso   1.00
O712   O     0.93360   0.19272   0.71361   0.00000  Uiso   1.00
O713   O     0.73738   0.18878   0.78213   0.00000  Uiso   1.00
O714   O     0.92158   0.15226   0.77014   0.00000  Uiso   1.00
O715   O     0.80426   0.06944   0.73413   0.00000  Uiso   1.00
O716   O     0.87012   0.25620   0.71361   0.00000  Uiso   1.00
Zn717  Zn    0.86005   0.13994   0.78734   0.00000  Uiso   1.00
Zn718  Zn    0.80046   0.12458   0.71876   0.00000  Uiso   1.00
Zn719  Zn    0.87723   0.19775   0.70657   0.00000  Uiso   1.00
Zn720  Zn    0.79560   0.20439   0.78734   0.00000  Uiso   1.00
C721   C     0.05318   0.49348   0.75932   0.00000  Uiso   1.00
C722   C     0.18035   0.49952   0.55735   0.00000  Uiso   1.00
C723   C     0.20543   0.43345   0.56105   0.00000  Uiso   1.00
C724   C     0.28059   0.50687   0.74040   0.00000  Uiso   1.00
C725   C     0.14698   0.53063   0.91909   0.00000  Uiso   1.00
C726   C     0.32595   0.50858   0.73745   0.00000  Uiso   1.00
C727   C     0.00796   0.48953   0.76554   0.00000  Uiso   1.00
C728   C     0.18024   0.65579   0.73657   0.00000  Uiso   1.00
C729   C     0.15203   0.34511   0.76409   0.00000  Uiso   1.00
C730   C     0.15613   0.38922   0.76031   0.00000  Uiso   1.00
C731   C     0.17653   0.61118   0.74022   0.00000  Uiso   1.00
C732   C     0.15394   0.58779   0.97534   0.00000  Uiso   1.00
C733   C     0.18524   0.48121   0.62955   0.00000  Uiso   1.00
C734   C     0.14876   0.51815   0.87108   0.00000  Uiso   1.00
C735   C     0.20264   0.42155   0.51683   0.00000  Uiso   1.00
C736   C     0.19258   0.47193   0.58144   0.00000  Uiso   1.00
C737   C     0.14190   0.57242   0.93624   0.00000  Uiso   1.00
C738   C     0.21925   0.40543   0.58635   0.00000  Uiso   1.00
C739   C     0.31519   0.46465   0.80394   0.00000  Uiso   1.00
C740   C     0.21473   0.38129   0.99604   0.00000  Uiso   1.00
C741   C     0.12865   0.60200   0.91250   0.00000  Uiso   1.00
C742   C     0.19369   0.58466   0.52984   0.00000  Uiso   1.00
C743   C     0.17061   0.56266   0.99850   0.00000  Uiso   1.00
C744   C     0.16942   0.51880   0.98644   0.00000  Uiso   1.00
C745   C     0.15793   0.50313   0.94586   0.00000  Uiso   1.00
C746   C     0.18032   0.48997   0.51216   0.00000  Uiso   1.00
C747   C     0.18731   0.44871   0.99349   0.00000  Uiso   1.00
C748   C     0.17556   0.43441   0.95368   0.00000  Uiso   1.00
C749   C     0.15830   0.46021   0.93232   0.00000  Uiso   1.00
H750   H     0.20618   0.33698   0.71126   0.00000  Uiso   1.00
H751   H     0.29644   0.43683   0.79123   0.00000  Uiso   1.00
H752   H     0.12579   0.66476   0.78960   0.00000  Uiso   1.00
H753   H     0.17712   0.40228   0.94011   0.00000  Uiso   1.00
H754   H     0.16666   0.52646   0.57596   0.00000  Uiso   1.00
H755   H     0.15320   0.62074   0.98614   0.00000  Uiso   1.00
H756   H     0.14545   0.44582   0.90471   0.00000  Uiso   1.00
H757   H     0.01459   0.52606   0.71126   0.00000  Uiso   1.00
H758   H     0.00270   0.45305   0.82197   0.00000  Uiso   1.00
H759   H     0.29396   0.48459   0.82866   0.00000  Uiso   1.00
N760   N     0.23023   0.38309   0.60657   0.00000  Uiso   1.00
N761   N     0.22453   0.34927   0.97943   0.00000  Uiso   1.00
N762   N     0.11808   0.62579   0.89361   0.00000  Uiso   1.00
N763   N     0.21223   0.60250   0.55475   0.00000  Uiso   1.00
O764   O     0.16667   0.50000   0.75000   0.00000  Uiso   1.00
O765   O     0.15451   0.45970   0.65459   0.00000  Uiso   1.00
O766   O     0.12940   0.53724   0.84968   0.00000  Uiso   1.00
O767   O     0.20824   0.51092   0.64606   0.00000  Uiso   1.00
O768   O     0.17451   0.49213   0.84968   0.00000  Uiso   1.00
O769   O     0.17930   0.41352   0.78214   0.00000  Uiso   1.00
O770   O     0.14632   0.59418   0.77014   0.00000  Uiso   1.00
O771   O     0.07412   0.46625   0.73413   0.00000  Uiso   1.00
O772   O     0.26693   0.52605   0.71361   0.00000  Uiso   1.00
O773   O     0.07071   0.52211   0.78213   0.00000  Uiso   1.00
O774   O     0.25491   0.48559   0.77014   0.00000  Uiso   1.00
O775   O     0.13760   0.40277   0.73413   0.00000  Uiso   1.00
O776   O     0.20345   0.58953   0.71361   0.00000  Uiso   1.00
Zn777  Zn    0.19338   0.47327   0.78734   0.00000  Uiso   1.00
Zn778  Zn    0.13379   0.45791   0.71876   0.00000  Uiso   1.00
Zn779  Zn    0.21056   0.53109   0.70657   0.00000  Uiso   1.00
Zn780  Zn    0.12893   0.53773   0.78734   0.00000  Uiso   1.00
C781   C     0.38651   0.49348   0.75932   0.00000  Uiso   1.00
C782   C     0.51368   0.49952   0.55735   0.00000  Uiso   1.00
C783   C     0.53876   0.43345   0.56105   0.00000  Uiso   1.00
C784   C     0.61392   0.50687   0.74040   0.00000  Uiso   1.00
C785   C     0.48032   0.53063   0.91909   0.00000  Uiso   1.00
C786   C     0.65928   0.50858   0.73745   0.00000  Uiso   1.00
C787   C     0.34130   0.48953   0.76554   0.00000  Uiso   1.00
C788   C     0.51358   0.65579   0.73657   0.00000  Uiso   1.00
C789   C     0.48537   0.34511   0.76409   0.00000  Uiso   1.00
C790   C     0.48946   0.38922   0.76031   0.00000  Uiso   1.00
C791   C     0.50986   0.61118   0.74022   0.00000  Uiso   1.00
C792   C     0.48727   0.58779   0.97534   0.00000  Uiso   1.00
C793   C     0.51857   0.48121   0.62955   0.00000  Uiso   1.00
C794   C     0.48209   0.51815   0.87108   0.00000  Uiso   1.00
C795   C     0.53597   0.42155   0.51683   0.00000  Uiso   1.00
C796   C     0.52591   0.47193   0.58144   0.00000  Uiso   1.00
C797   C     0.47524   0.57242   0.93624   0.00000  Uiso   1.00
C798   C     0.55258   0.40543   0.58635   0.00000  Uiso   1.00
C799   C     0.64852   0.46465   0.80394   0.00000  Uiso   1.00
C800   C     0.54807   0.38129   0.99604   0.00000  Uiso   1.00
C801   C     0.46198   0.60200   0.91250   0.00000  Uiso   1.00
C802   C     0.52702   0.58466   0.52984   0.00000  Uiso   1.00
C803   C     0.50394   0.56266   0.99850   0.00000  Uiso   1.00
C804   C     0.50275   0.51880   0.98644   0.00000  Uiso   1.00
C805   C     0.49126   0.50313   0.94586   0.00000  Uiso   1.00
C806   C     0.51365   0.48997   0.51216   0.00000  Uiso   1.00
C807   C     0.52064   0.44871   0.99349   0.00000  Uiso   1.00
C808   C     0.50889   0.43441   0.95368   0.00000  Uiso   1.00
C809   C     0.49164   0.46021   0.93232   0.00000  Uiso   1.00
H810   H     0.53951   0.33698   0.71126   0.00000  Uiso   1.00
H811   H     0.62977   0.43683   0.79123   0.00000  Uiso   1.00
H812   H     0.45913   0.66476   0.78960   0.00000  Uiso   1.00
H813   H     0.51045   0.40228   0.94011   0.00000  Uiso   1.00
H814   H     0.49999   0.52646   0.57596   0.00000  Uiso   1.00
H815   H     0.48653   0.62074   0.98614   0.00000  Uiso   1.00
H816   H     0.47878   0.44582   0.90471   0.00000  Uiso   1.00
H817   H     0.34792   0.52606   0.71126   0.00000  Uiso   1.00
H818   H     0.33604   0.45305   0.82197   0.00000  Uiso   1.00
H819   H     0.62729   0.48459   0.82866   0.00000  Uiso   1.00
N820   N     0.56356   0.38309   0.60657   0.00000  Uiso   1.00
N821   N     0.55786   0.34927   0.97943   0.00000  Uiso   1.00
N822   N     0.45142   0.62579   0.89361   0.00000  Uiso   1.00
N823   N     0.54556   0.60250   0.55475   0.00000  Uiso   1.00
O824   O     0.50000   0.50000   0.75000   0.00000  Uiso   1.00
O825   O     0.48784   0.45970   0.65459   0.00000  Uiso   1.00
O826   O     0.46274   0.53724   0.84968   0.00000  Uiso   1.00
O827   O     0.54157   0.51092   0.64606   0.00000  Uiso   1.00
O828   O     0.50785   0.49213   0.84968   0.00000  Uiso   1.00
O829   O     0.51264   0.41352   0.78214   0.00000  Uiso   1.00
O830   O     0.47965   0.59418   0.77014   0.00000  Uiso   1.00
O831   O     0.40745   0.46625   0.73413   0.00000  Uiso   1.00
O832   O     0.60026   0.52605   0.71361   0.00000  Uiso   1.00
O833   O     0.40405   0.52211   0.78213   0.00000  Uiso   1.00
O834   O     0.58824   0.48559   0.77014   0.00000  Uiso   1.00
O835   O     0.47093   0.40277   0.73413   0.00000  Uiso   1.00
O836   O     0.53678   0.58953   0.71361   0.00000  Uiso   1.00
Zn837  Zn    0.52672   0.47327   0.78734   0.00000  Uiso   1.00
Zn838  Zn    0.46713   0.45791   0.71876   0.00000  Uiso   1.00
Zn839  Zn    0.54389   0.53109   0.70657   0.00000  Uiso   1.00
Zn840  Zn    0.46226   0.53773   0.78734   0.00000  Uiso   1.00
C841   C     0.71984   0.49348   0.75932   0.00000  Uiso   1.00
C842   C     0.84702   0.49952   0.55735   0.00000  Uiso   1.00
C843   C     0.87209   0.43345   0.56105   0.00000  Uiso   1.00
C844   C     0.94726   0.50687   0.74040   0.00000  Uiso   1.00
C845   C     0.81365   0.53063   0.91909   0.00000  Uiso   1.00
C846   C     0.99261   0.50858   0.73745   0.00000  Uiso   1.00
C847   C     0.67463   0.48953   0.76554   0.00000  Uiso   1.00
C848   C     0.84691   0.65579   0.73657   0.00000  Uiso   1.00
C849   C     0.81870   0.34511   0.76409   0.00000  Uiso   1.00
C850   C     0.82279   0.38922   0.76031   0.00000  Uiso   1.00
C851   C     0.84320   0.61118   0.74022   0.00000  Uiso   1.00
C852   C     0.82061   0.58779   0.97534   0.00000  Uiso   1.00
C853   C     0.85190   0.48121   0.62955   0.00000  Uiso   1.00
C854   C     0.81542   0.51815   0.87108   0.00000  Uiso   1.00
C855   C     0.86930   0.42155   0.51683   0.00000  Uiso   1.00
C856   C     0.85924   0.47193   0.58144   0.00000  Uiso   1.00
C857   C     0.80857   0.57242   0.93624   0.00000  Uiso   1.00
C858   C     0.88591   0.40543   0.58635   0.00000  Uiso   1.00
C859   C     0.98185   0.46465   0.80394   0.00000  Uiso   1.00
C860   C     0.88140   0.38129   0.99604   0.00000  Uiso   1.00
C861   C     0.79531   0.60200   0.91250   0.00000  Uiso   1.00
C862   C     0.86036   0.58466   0.52984   0.00000  Uiso   1.00
C863   C     0.83727   0.56266   0.99850   0.00000  Uiso   1.00
C864   C     0.83609   0.51880   0.98644   0.00000  Uiso   1.00
C865   C     0.82459   0.50313   0.94586   0.00000  Uiso   1.00
C866   C     0.84698   0.48997   0.51216   0.00000  Uiso   1.00
C867   C     0.85397   0.44871   0.99349   0.00000  Uiso   1.00
C868   C     0.84223   0.43441   0.95368   0.00000  Uiso   1.00
C869   C     0.82497   0.46021   0.93232   0.00000  Uiso   1.00
H870   H     0.87284   0.33698   0.71126   0.00000  Uiso   1.00
H871   H     0.96311   0.43683   0.79123   0.00000  Uiso   1.00
H872   H     0.79246   0.66476   0.78960   0.00000  Uiso   1.00
H873   H     0.84379   0.40228   0.94011   0.00000  Uiso   1.00
H874   H     0.83333   0.52646   0.57596   0.00000  Uiso   1.00
H875   H     0.81986   0.62074   0.98614   0.00000  Uiso   1.00
H876   H     0.81212   0.44582   0.90471   0.00000  Uiso   1.00
H877   H     0.68125   0.52606   0.71126   0.00000  Uiso   1.00
H878   H     0.66937   0.45305   0.82197   0.00000  Uiso   1.00
H879   H     0.96063   0.48459   0.82866   0.00000  Uiso   1.00
N880   N     0.89690   0.38309   0.60657   0.00000  Uiso   1.00
N881   N     0.89119   0.34927   0.97943   0.00000  Uiso   1.00
N882   N     0.78475   0.62579   0.89361   0.00000  Uiso   1.00
N883   N     0.87890   0.60250   0.55475   0.00000  Uiso   1.00
O884   O     0.83333   0.50000   0.75000   0.00000  Uiso   1.00
O885   O     0.82118   0.45970   0.65459   0.00000  Uiso   1.00
O886   O     0.79607   0.53724   0.84968   0.00000  Uiso   1.00
O887   O     0.87491   0.51092   0.64606   0.00000  Uiso   1.00
O888   O     0.84118   0.49213   0.84968   0.00000  Uiso   1.00
O889   O     0.84597   0.41352   0.78214   0.00000  Uiso   1.00
O890   O     0.81298   0.59418   0.77014   0.00000  Uiso   1.00
O891   O     0.74078   0.46625   0.73413   0.00000  Uiso   1.00
O892   O     0.93360   0.52605   0.71361   0.00000  Uiso   1.00
O893   O     0.73738   0.52211   0.78213   0.00000  Uiso   1.00
O894   O     0.92158   0.48559   0.77014   0.00000  Uiso   1.00
O895   O     0.80426   0.40277   0.73413   0.00000  Uiso   1.00
O896   O     0.87012   0.58953   0.71361   0.00000  Uiso   1.00
Zn897  Zn    0.86005   0.47327   0.78734   0.00000  Uiso   1.00
Zn898  Zn    0.80046   0.45791   0.71876   0.00000  Uiso   1.00
Zn899  Zn    0.87723   0.53109   0.70657   0.00000  Uiso   1.00
Zn900  Zn    0.79560   0.53773   0.78734   0.00000  Uiso   1.00
C901   C     0.05318   0.82681   0.75932   0.00000  Uiso   1.00
C902   C     0.18035   0.83286   0.55735   0.00000  Uiso   1.00
C903   C     0.20543   0.76678   0.56105   0.00000  Uiso   1.00
C904   C     0.28059   0.84021   0.74040   0.00000  Uiso   1.00
C905   C     0.14698   0.86396   0.91909   0.00000  Uiso   1.00
C906   C     0.32595   0.84191   0.73745   0.00000  Uiso   1.00
C907   C     0.00796   0.82286   0.76554   0.00000  Uiso   1.00
C908   C     0.18024   0.98912   0.73657   0.00000  Uiso   1.00
C909   C     0.15203   0.67844   0.76409   0.00000  Uiso   1.00
C910   C     0.15613   0.72255   0.76031   0.00000  Uiso   1.00
C911   C     0.17653   0.94452   0.74022   0.00000  Uiso   1.00
C912   C     0.15394   0.92112   0.97534   0.00000  Uiso   1.00
C913   C     0.18524   0.81454   0.62955   0.00000  Uiso   1.00
C914   C     0.14876   0.85149   0.87108   0.00000  Uiso   1.00
C915   C     0.20264   0.75488   0.51683   0.00000  Uiso   1.00
C916   C     0.19258   0.80526   0.58144   0.00000  Uiso   1.00
C917   C     0.14190   0.90575   0.93624   0.00000  Uiso   1.00
C918   C     0.21925   0.73877   0.58635   0.00000  Uiso   1.00
C919   C     0.31519   0.79799   0.80394   0.00000  Uiso   1.00
C920   C     0.21473   0.71462   0.99604   0.00000  Uiso   1.00
C921   C     0.12865   0.93533   0.91250   0.00000  Uiso   1.00
C922   C     0.19369   0.91799   0.52984   0.00000  Uiso   1.00
C923   C     0.17061   0.89599   0.99850   0.00000  Uiso   1.00
C924   C     0.16942   0.85213   0.98644   0.00000  Uiso   1.00
C925   C     0.15793   0.83646   0.94586   0.00000  Uiso   1.00
C926   C     0.18032   0.82330   0.51216   0.00000  Uiso   1.00
C927   C     0.18731   0.78205   0.99349   0.00000  Uiso   1.00
C928   C     0.17556   0.76774   0.95368   0.00000  Uiso   1.00
C929   C     0.15830   0.79354   0.93232   0.00000  Uiso   1.00
H930   H     0.20618   0.67031   0.71126   0.00000  Uiso   1.00
H931   H     0.29644   0.77016   0.79123   0.00000  Uiso   1.00
H932   H     0.12579   0.99809   0.78960   0.00000  Uiso   1.00
H933   H     0.17712   0.73562   0.94011   0.00000  Uiso   1.00
H934   H     0.16666   0.85979   0.57596   0.00000  Uiso   1.00
H935   H     0.15320   0.95408   0.98614   0.00000  Uiso   1.00
H936   H     0.14545   0.77915   0.90471   0.00000  Uiso   1.00
H937   H     0.01459   0.85939   0.71126   0.00000  Uiso   1.00
H938   H     0.00270   0.78638   0.82197   0.00000  Uiso   1.00
H939   H     0.29396   0.81793   0.82866   0.00000  Uiso   1.00
N940   N     0.23023   0.71643   0.60657   0.00000  Uiso   1.00
N941   N     0.22453   0.68260   0.97943   0.00000  Uiso   1.00
N942   N     0.11808   0.95913   0.89361   0.00000  Uiso   1.00
N943   N     0.21223   0.93583   0.55475   0.00000  Uiso   1.00
O944   O     0.16667   0.83333   0.75000   0.00000  Uiso   1.00
O945   O     0.15451   0.79304   0.65459   0.00000  Uiso   1.00
O946   O     0.12940   0.87058   0.84968   0.00000  Uiso   1.00
O947   O     0.20824   0.84425   0.64606   0.00000  Uiso   1.00
O948   O     0.17451   0.82546   0.84968   0.00000  Uiso   1.00
O949   O     0.17930   0.74686   0.78214   0.00000  Uiso   1.00
O950   O     0.14632   0.92751   0.77014   0.00000  Uiso   1.00
O951   O     0.07412   0.79958   0.73413   0.00000  Uiso   1.00
O952   O     0.26693   0.85939   0.71361   0.00000  Uiso   1.00
O953   O     0.07071   0.85544   0.78213   0.00000  Uiso   1.00
O954   O     0.25491   0.81892   0.77014   0.00000  Uiso   1.00
O955   O     0.13760   0.73610   0.73413   0.00000  Uiso   1.00
O956   O     0.20345   0.92286   0.71361   0.00000  Uiso   1.00
Zn957  Zn    0.19338   0.80661   0.78734   0.00000  Uiso   1.00
Zn958  Zn    0.13379   0.79124   0.71876   0.00000  Uiso   1.00
Zn959  Zn    0.21056   0.86442   0.70657   0.00000  Uiso   1.00
Zn960  Zn    0.12893   0.87106   0.78734   0.00000  Uiso   1.00
C961   C     0.38651   0.82681   0.75932   0.00000  Uiso   1.00
C962   C     0.51368   0.83286   0.55735   0.00000  Uiso   1.00
C963   C     0.53876   0.76678   0.56105   0.00000  Uiso   1.00
C964   C     0.61392   0.84021   0.74040   0.00000  Uiso   1.00
C965   C     0.48032   0.86396   0.91909   0.00000  Uiso   1.00
C966   C     0.65928   0.84191   0.73745   0.00000  Uiso   1.00
C967   C     0.34130   0.82286   0.76554   0.00000  Uiso   1.00
C968   C     0.51358   0.98912   0.73657   0.00000  Uiso   1.00
C969   C     0.48537   0.67844   0.76409   0.00000  Uiso   1.00
C970   C     0.48946   0.72255   0.76031   0.00000  Uiso   1.00
C971   C     0.50986   0.94452   0.74022   0.00000  Uiso   1.00
C972   C     0.48727   0.92112   0.97534   0.00000  Uiso   1.00
C973   C     0.51857   0.81454   0.62955   0.00000  Uiso   1.00
C974   C     0.48209   0.85149   0.87108   0.00000  Uiso   1.00
C975   C     0.53597   0.75488   0.51683   0.00000  Uiso   1.00
C976   C     0.52591   0.80526   0.58144   0.00000  Uiso   1.00
C977   C     0.47524   0.90575   0.93624   0.00000  Uiso   1.00
C978   C     0.55258   0.73877   0.58635   0.00000  Uiso   1.00
C979   C     0.64852   0.79799   0.80394   0.00000  Uiso   1.00
C980   C     0.54807   0.71462   0.99604   0.00000  Uiso   1.00
C981   C     0.46198   0.93533   0.91250   0.00000  Uiso   1.00
C982   C     0.52702   0.91799   0.52984   0.00000  Uiso   1.00
C983   C     0.50394   0.89599   0.99850   0.00000  Uiso   1.00
C984   C     0.50275   0.85213   0.98644   0.00000  Uiso   1.00
C985   C     0.49126   0.83646   0.94586   0.00000  Uiso   1.00
C986   C     0.51365   0.82330   0.51216   0.00000  Uiso   1.00
C987   C     0.52064   0.78205   0.99349   0.00000  Uiso   1.00
C988   C     0.50889   0.76774   0.95368   0.00000  Uiso   1.00
C989   C     0.49164   0.79354   0.93232   0.00000  Uiso   1.00
H990   H     0.53951   0.67031   0.71126   0.00000  Uiso   1.00
H991   H     0.62977   0.77016   0.79123   0.00000  Uiso   1.00
H992   H     0.45913   0.99809   0.78960   0.00000  Uiso   1.00
H993   H     0.51045   0.73562   0.94011   0.00000  Uiso   1.00
H994   H     0.49999   0.85979   0.57596   0.00000  Uiso   1.00
H995   H     0.48653   0.95408   0.98614   0.00000  Uiso   1.00
H996   H     0.47878   0.77915   0.90471   0.00000  Uiso   1.00
H997   H     0.34792   0.85939   0.71126   0.00000  Uiso   1.00
H998   H     0.33604   0.78638   0.82197   0.00000  Uiso   1.00
H999   H     0.62729   0.81793   0.82866   0.00000  Uiso   1.00
N1000  N     0.56356   0.71643   0.60657   0.00000  Uiso   1.00
N1001  N     0.55786   0.68260   0.97943   0.00000  Uiso   1.00
N1002  N     0.45142   0.95913   0.89361   0.00000  Uiso   1.00
N1003  N     0.54556   0.93583   0.55475   0.00000  Uiso   1.00
O1004  O     0.50000   0.83333   0.75000   0.00000  Uiso   1.00
O1005  O     0.48784   0.79304   0.65459   0.00000  Uiso   1.00
O1006  O     0.46274   0.87058   0.84968   0.00000  Uiso   1.00
O1007  O     0.54157   0.84425   0.64606   0.00000  Uiso   1.00
O1008  O     0.50785   0.82546   0.84968   0.00000  Uiso   1.00
O1009  O     0.51264   0.74686   0.78214   0.00000  Uiso   1.00
O1010  O     0.47965   0.92751   0.77014   0.00000  Uiso   1.00
O1011  O     0.40745   0.79958   0.73413   0.00000  Uiso   1.00
O1012  O     0.60026   0.85939   0.71361   0.00000  Uiso   1.00
O1013  O     0.40405   0.85544   0.78213   0.00000  Uiso   1.00
O1014  O     0.58824   0.81892   0.77014   0.00000  Uiso   1.00
O1015  O     0.47093   0.73610   0.73413   0.00000  Uiso   1.00
O1016  O     0.53678   0.92286   0.71361   0.00000  Uiso   1.00
Zn1017 Zn    0.52672   0.80661   0.78734   0.00000  Uiso   1.00
Zn1018 Zn    0.46713   0.79124   0.71876   0.00000  Uiso   1.00
Zn1019 Zn    0.54389   0.86442   0.70657   0.00000  Uiso   1.00
Zn1020 Zn    0.46226   0.87106   0.78734   0.00000  Uiso   1.00
C1021  C     0.71984   0.82681   0.75932   0.00000  Uiso   1.00
C1022  C     0.84702   0.83286   0.55735   0.00000  Uiso   1.00
C1023  C     0.87209   0.76678   0.56105   0.00000  Uiso   1.00
C1024  C     0.94726   0.84021   0.74040   0.00000  Uiso   1.00
C1025  C     0.81365   0.86396   0.91909   0.00000  Uiso   1.00
C1026  C     0.99261   0.84191   0.73745   0.00000  Uiso   1.00
C1027  C     0.67463   0.82286   0.76554   0.00000  Uiso   1.00
C1028  C     0.84691   0.98912   0.73657   0.00000  Uiso   1.00
C1029  C     0.81870   0.67844   0.76409   0.00000  Uiso   1.00
C1030  C     0.82279   0.72255   0.76031   0.00000  Uiso   1.00
C1031  C     0.84320   0.94452   0.74022   0.00000  Uiso   1.00
C1032  C     0.82061   0.92112   0.97534   0.00000  Uiso   1.00
C1033  C     0.85190   0.81454   0.62955   0.00000  Uiso   1.00
C1034  C     0.81542   0.85149   0.87108   0.00000  Uiso   1.00
C1035  C     0.86930   0.75488   0.51683   0.00000  Uiso   1.00
C1036  C     0.85924   0.80526   0.58144   0.00000  Uiso   1.00
C1037  C     0.80857   0.90575   0.93624   0.00000  Uiso   1.00
C1038  C     0.88591   0.73877   0.58635   0.00000  Uiso   1.00
C1039  C     0.98185   0.79799   0.80394   0.00000  Uiso   1.00
C1040  C     0.88140   0.71462   0.99604   0.00000  Uiso   1.00
C1041  C     0.79531   0.93533   0.91250   0.00000  Uiso   1.00
C1042  C     0.86036   0.91799   0.52984   0.00000  Uiso   1.00
C1043  C     0.83727   0.89599   0.99850   0.00000  Uiso   1.00
C1044  C     0.83609   0.85213   0.98644   0.00000  Uiso   1.00
C1045  C     0.82459   0.83646   0.94586   0.00000  Uiso   1.00
C1046  C     0.84698   0.82330   0.51216   0.00000  Uiso   1.00
C1047  C     0.85397   0.78205   0.99349   0.00000  Uiso   1.00
C1048  C     0.84223   0.76774   0.95368   0.00000  Uiso   1.00
C1049  C     0.82497   0.79354   0.93232   0.00000  Uiso   1.00
H1050  H     0.87284   0.67031   0.71126   0.00000  Uiso   1.00
H1051  H     0.96311   0.77016   0.79123   0.00000  Uiso   1.00
H1052  H     0.79246   0.99809   0.78960   0.00000  Uiso   1.00
H1053  H     0.84379   0.73562   0.94011   0.00000  Uiso   1.00
H1054  H     0.83333   0.85979   0.57596   0.00000  Uiso   1.00
H1055  H     0.81986   0.95408   0.98614   0.00000  Uiso   1.00
H1056  H     0.81212   0.77915   0.90471   0.00000  Uiso   1.00
H1057  H     0.68125   0.85939   0.71126   0.00000  Uiso   1.00
H1058  H     0.66937   0.78638   0.82197   0.00000  Uiso   1.00
H1059  H     0.96063   0.81793   0.82866   0.00000  Uiso   1.00
N1060  N     0.89690   0.71643   0.60657   0.00000  Uiso   1.00
N1061  N     0.89119   0.68260   0.97943   0.00000  Uiso   1.00
N1062  N     0.78475   0.95913   0.89361   0.00000  Uiso   1.00
N1063  N     0.87890   0.93583   0.55475   0.00000  Uiso   1.00
O1064  O     0.83333   0.83333   0.75000   0.00000  Uiso   1.00
O1065  O     0.82118   0.79304   0.65459   0.00000  Uiso   1.00
O1066  O     0.79607   0.87058   0.84968   0.00000  Uiso   1.00
O1067  O     0.87491   0.84425   0.64606   0.00000  Uiso   1.00
O1068  O     0.84118   0.82546   0.84968   0.00000  Uiso   1.00
O1069  O     0.84597   0.74686   0.78214   0.00000  Uiso   1.00
O1070  O     0.81298   0.92751   0.77014   0.00000  Uiso   1.00
O1071  O     0.74078   0.79958   0.73413   0.00000  Uiso   1.00
O1072  O     0.93360   0.85939   0.71361   0.00000  Uiso   1.00
O1073  O     0.73738   0.85544   0.78213   0.00000  Uiso   1.00
O1074  O     0.92158   0.81892   0.77014   0.00000  Uiso   1.00
O1075  O     0.80426   0.73610   0.73413   0.00000  Uiso   1.00
O1076  O     0.87012   0.92286   0.71361   0.00000  Uiso   1.00
Zn1077 Zn    0.86005   0.80661   0.78734   0.00000  Uiso   1.00
Zn1078 Zn    0.80046   0.79124   0.71876   0.00000  Uiso   1.00
Zn1079 Zn    0.87723   0.86442   0.70657   0.00000  Uiso   1.00
Zn1080 Zn    0.79560   0.87106   0.78734   0.00000  Uiso   1.00
loop_
_geom_bond_atom_site_label_1
_geom_bond_atom_site_label_2
_geom_bond_distance
_geom_bond_site_symmetry_2
_ccdc_geom_bond_type
C1     C7      1.430   .     S
C1     O51     1.267   .     A
C1     O53     1.266   .     A
C2     C16     1.387   .     A
C2     H34     1.079   .     S
C2     C26     1.402   .     A
C3     C16     1.405   .     A
C3     C15     1.405   .     A
C3     C18     1.451   .     S
C4     C6      1.456   .     S
C4     O52     1.290   .     A
C4     O54     1.269   .     A
C5     C14     1.487   .     S
C5     C25     1.422   .     A
C5     C17     1.417   .     A
C6     C67     1.352   .     S
C6     H97     1.088   .     S
C7     C126    1.352   1_455 S
C7     C139    1.514   1_455 S
C8     C11     1.450   .     S
C8     C189    1.331   .     S
C8     H210    1.088   .     S
C9     C10     1.433   .     S
C9     C368    1.331   1_545 S
C9     H392    1.086   1_545 S
C10    O55     1.276   .     A
C10    O49     1.276   .     A
C11    O50     1.276   .     A
C11    O56     1.275   .     A
C12    C17     1.389   .     A
C12    C23     1.392   .     A
C12    H35     1.086   .     S
C13    O45     1.272   .     A
C13    C16     1.453   .     S
C13    O47     1.280   .     A
C14    O46     1.283   .     A
C14    O48     1.287   .     A
C15    C560    1.452   1_554 S
C15    C567    1.417   1_554 S
C17    C21     1.446   .     S
C18    N40     1.157   .     T
C19    H31     1.110   .     S
C19    H39     1.111   .     S
C19    C67     1.514   .     S
C19    H98     1.112   .     S
C20    N41     1.157   .     T
C20    C555    1.452   .     S
C21    N42     1.158   .     T
C22    N43     1.158   .     T
C22    C563    1.447   1_554 S
C23    C24     1.428   .     A
C23    C562    1.447   .     S
C24    C25     1.425   .     A
C24    C566    1.430   .     S
C25    C29     1.410   .     A
C26    C564    1.430   1_554 S
C26    C567    1.424   1_554 S
C27    C28     1.398   .     A
C27    C566    1.424   .     S
C27    C555    1.417   .     S
C28    C29     1.382   .     A
C28    H33     1.083   .     S
C29    H36     1.081   .     S
H30    C368    1.088   1_545 S
H32    C189    1.086   .     S
H37    C126    1.088   1_455 S
H38    C139    1.112   1_455 S
O44    Zn57    1.954   .     S
O44    Zn60    1.935   .     S
O44    Zn59    1.946   .     S
O44    Zn58    1.944   .     S
O45    Zn58    1.935   .     S
O46    Zn60    1.940   .     S
O47    Zn59    1.934   .     S
O48    Zn57    1.930   .     S
O49    Zn57    1.926   .     S
O50    Zn60    1.931   .     S
O51    Zn58    1.938   .     S
O52    Zn59    1.943   .     S
O53    Zn60    1.942   .     S
O54    Zn57    1.939   .     S
O55    Zn58    1.931   .     S
O56    Zn59    1.925   .     S
C61    C67     1.430   .     S
C61    O111    1.267   .     A
C61    O113    1.266   .     A
C62    C76     1.387   .     A
C62    H94     1.079   .     S
C62    C86     1.402   .     A
C63    C76     1.405   .     A
C63    C75     1.405   .     A
C63    C78     1.451   .     S
C64    C66     1.456   .     S
C64    O112    1.290   .     A
C64    O114    1.269   .     A
C65    C74     1.487   .     S
C65    C85     1.422   .     A
C65    C77     1.417   .     A
C66    C127    1.352   .     S
C66    H157    1.088   .     S
C68    C71     1.450   .     S
C68    C249    1.331   .     S
C68    H270    1.088   .     S
C69    C70     1.433   .     S
C69    C428    1.331   1_545 S
C69    H452    1.086   1_545 S
C70    O115    1.276   .     A
C70    O109    1.276   .     A
C71    O110    1.276   .     A
C71    O116    1.275   .     A
C72    C77     1.389   .     A
C72    C83     1.392   .     A
C72    H95     1.086   .     S
C73    O105    1.272   .     A
C73    C76     1.453   .     S
C73    O107    1.280   .     A
C74    O106    1.283   .     A
C74    O108    1.287   .     A
C75    C620    1.452   1_554 S
C75    C627    1.417   1_554 S
C77    C81     1.446   .     S
C78    N100    1.157   .     T
C79    H91     1.110   .     S
C79    H99     1.111   .     S
C79    C127    1.514   .     S
C79    H158    1.112   .     S
C80    N101    1.157   .     T
C80    C615    1.452   .     S
C81    N102    1.158   .     T
C82    N103    1.158   .     T
C82    C623    1.447   1_554 S
C83    C84     1.428   .     A
C83    C622    1.447   .     S
C84    C85     1.425   .     A
C84    C626    1.430   .     S
C85    C89     1.410   .     A
C86    C624    1.430   1_554 S
C86    C627    1.424   1_554 S
C87    C88     1.398   .     A
C87    C626    1.424   .     S
C87    C615    1.417   .     S
C88    C89     1.382   .     A
C88    H93     1.083   .     S
C89    H96     1.081   .     S
H90    C428    1.088   1_545 S
H92    C249    1.086   .     S
O104   Zn117   1.954   .     S
O104   Zn120   1.935   .     S
O104   Zn119   1.946   .     S
O104   Zn118   1.944   .     S
O105   Zn118   1.935   .     S
O106   Zn120   1.940   .     S
O107   Zn119   1.934   .     S
O108   Zn117   1.930   .     S
O109   Zn117   1.926   .     S
O110   Zn120   1.931   .     S
O111   Zn118   1.938   .     S
O112   Zn119   1.943   .     S
O113   Zn120   1.942   .     S
O114   Zn117   1.939   .     S
O115   Zn118   1.931   .     S
O116   Zn119   1.925   .     S
C121   C127    1.430   .     S
C121   O171    1.267   .     A
C121   O173    1.266   .     A
C122   C136    1.387   .     A
C122   H154    1.079   .     S
C122   C146    1.402   .     A
C123   C136    1.405   .     A
C123   C135    1.405   .     A
C123   C138    1.451   .     S
C124   C126    1.456   .     S
C124   O172    1.290   .     A
C124   O174    1.269   .     A
C125   C134    1.487   .     S
C125   C145    1.422   .     A
C125   C137    1.417   .     A
C126   C7      1.352   1_655 S
C126   H37     1.088   1_655 S
C128   C131    1.450   .     S
C128   C309    1.331   .     S
C128   H330    1.088   .     S
C129   C130    1.433   .     S
C129   C488    1.331   1_545 S
C129   H512    1.086   1_545 S
C130   O175    1.276   .     A
C130   O169    1.276   .     A
C131   O170    1.276   .     A
C131   O176    1.275   .     A
C132   C137    1.389   .     A
C132   C143    1.392   .     A
C132   H155    1.086   .     S
C133   O165    1.272   .     A
C133   C136    1.453   .     S
C133   O167    1.280   .     A
C134   O166    1.283   .     A
C134   O168    1.287   .     A
C135   C680    1.452   1_554 S
C135   C687    1.417   1_554 S
C137   C141    1.446   .     S
C138   N160    1.157   .     T
C139   H151    1.110   .     S
C139   H159    1.111   .     S
C139   C7      1.514   1_655 S
C139   H38     1.112   1_655 S
C140   N161    1.157   .     T
C140   C675    1.452   .     S
C141   N162    1.158   .     T
C142   N163    1.158   .     T
C142   C683    1.447   1_554 S
C143   C144    1.428   .     A
C143   C682    1.447   .     S
C144   C145    1.425   .     A
C144   C686    1.430   .     S
C145   C149    1.410   .     A
C146   C684    1.430   1_554 S
C146   C687    1.424   1_554 S
C147   C148    1.398   .     A
C147   C686    1.424   .     S
C147   C675    1.417   .     S
C148   C149    1.382   .     A
C148   H153    1.083   .     S
C149   H156    1.081   .     S
H150   C488    1.088   1_545 S
H152   C309    1.086   .     S
O164   Zn177   1.954   .     S
O164   Zn180   1.935   .     S
O164   Zn179   1.946   .     S
O164   Zn178   1.944   .     S
O165   Zn178   1.935   .     S
O166   Zn180   1.940   .     S
O167   Zn179   1.934   .     S
O168   Zn177   1.930   .     S
O169   Zn177   1.926   .     S
O170   Zn180   1.931   .     S
O171   Zn178   1.938   .     S
O172   Zn179   1.943   .     S
O173   Zn180   1.942   .     S
O174   Zn177   1.939   .     S
O175   Zn178   1.931   .     S
O176   Zn179   1.925   .     S
C181   C187    1.430   .     S
C181   O231    1.267   .     A
C181   O233    1.266   .     A
C182   C196    1.387   .     A
C182   H214    1.079   .     S
C182   C206    1.402   .     A
C183   C196    1.405   .     A
C183   C195    1.405   .     A
C183   C198    1.451   .     S
C184   C186    1.456   .     S
C184   O232    1.290   .     A
C184   O234    1.269   .     A
C185   C194    1.487   .     S
C185   C205    1.422   .     A
C185   C197    1.417   .     A
C186   C247    1.352   .     S
C186   H277    1.088   .     S
C187   C306    1.352   1_455 S
C187   C319    1.514   1_455 S
C188   C191    1.450   .     S
C188   C369    1.331   .     S
C188   H390    1.088   .     S
C189   C190    1.433   .     S
C190   O235    1.276   .     A
C190   O229    1.276   .     A
C191   O230    1.276   .     A
C191   O236    1.275   .     A
C192   C197    1.389   .     A
C192   C203    1.392   .     A
C192   H215    1.086   .     S
C193   O225    1.272   .     A
C193   C196    1.453   .     S
C193   O227    1.280   .     A
C194   O226    1.283   .     A
C194   O228    1.287   .     A
C195   C740    1.452   1_554 S
C195   C747    1.417   1_554 S
C197   C201    1.446   .     S
C198   N220    1.157   .     T
C199   H211    1.110   .     S
C199   H219    1.111   .     S
C199   C247    1.514   .     S
C199   H278    1.112   .     S
C200   N221    1.157   .     T
C200   C735    1.452   .     S
C201   N222    1.158   .     T
C202   N223    1.158   .     T
C202   C743    1.447   1_554 S
C203   C204    1.428   .     A
C203   C742    1.447   .     S
C204   C205    1.425   .     A
C204   C746    1.430   .     S
C205   C209    1.410   .     A
C206   C744    1.430   1_554 S
C206   C747    1.424   1_554 S
C207   C208    1.398   .     A
C207   C746    1.424   .     S
C207   C735    1.417   .     S
C208   C209    1.382   .     A
C208   H213    1.083   .     S
C209   H216    1.081   .     S
H212   C369    1.086   .     S
H217   C306    1.088   1_455 S
H218   C319    1.112   1_455 S
O224   Zn237   1.954   .     S
O224   Zn240   1.935   .     S
O224   Zn239   1.946   .     S
O224   Zn238   1.944   .     S
O225   Zn238   1.935   .     S
O226   Zn240   1.940   .     S
O227   Zn239   1.934   .     S
O228   Zn237   1.930   .     S
O229   Zn237   1.926   .     S
O230   Zn240   1.931   .     S
O231   Zn238   1.938   .     S
O232   Zn239   1.943   .     S
O233   Zn240   1.942   .     S
O234   Zn237   1.939   .     S
O235   Zn238   1.931   .     S
O236   Zn239   1.925   .     S
C241   C247    1.430   .     S
C241   O291    1.267   .     A
C241   O293    1.266   .     A
C242   C256    1.387   .     A
C242   H274    1.079   .     S
C242   C266    1.402   .     A
C243   C256    1.405   .     A
C243   C255    1.405   .     A
C243   C258    1.451   .     S
C244   C246    1.456   .     S
C244   O292    1.290   .     A
C244   O294    1.269   .     A
C245   C254    1.487   .     S
C245   C265    1.422   .     A
C245   C257    1.417   .     A
C246   C307    1.352   .     S
C246   H337    1.088   .     S
C248   C251    1.450   .     S
C248   C429    1.331   .     S
C248   H450    1.088   .     S
C249   C250    1.433   .     S
C250   O295    1.276   .     A
C250   O289    1.276   .     A
C251   O290    1.276   .     A
C251   O296    1.275   .     A
C252   C257    1.389   .     A
C252   C263    1.392   .     A
C252   H275    1.086   .     S
C253   O285    1.272   .     A
C253   C256    1.453   .     S
C253   O287    1.280   .     A
C254   O286    1.283   .     A
C254   O288    1.287   .     A
C255   C800    1.452   1_554 S
C255   C807    1.417   1_554 S
C257   C261    1.446   .     S
C258   N280    1.157   .     T
C259   H271    1.110   .     S
C259   H279    1.111   .     S
C259   C307    1.514   .     S
C259   H338    1.112   .     S
C260   N281    1.157   .     T
C260   C795    1.452   .     S
C261   N282    1.158   .     T
C262   N283    1.158   .     T
C262   C803    1.447   1_554 S
C263   C264    1.428   .     A
C263   C802    1.447   .     S
C264   C265    1.425   .     A
C264   C806    1.430   .     S
C265   C269    1.410   .     A
C266   C804    1.430   1_554 S
C266   C807    1.424   1_554 S
C267   C268    1.398   .     A
C267   C806    1.424   .     S
C267   C795    1.417   .     S
C268   C269    1.382   .     A
C268   H273    1.083   .     S
C269   H276    1.081   .     S
H272   C429    1.086   .     S
O284   Zn297   1.954   .     S
O284   Zn300   1.935   .     S
O284   Zn299   1.946   .     S
O284   Zn298   1.944   .     S
O285   Zn298   1.935   .     S
O286   Zn300   1.940   .     S
O287   Zn299   1.934   .     S
O288   Zn297   1.930   .     S
O289   Zn297   1.926   .     S
O290   Zn300   1.931   .     S
O291   Zn298   1.938   .     S
O292   Zn299   1.943   .     S
O293   Zn300   1.942   .     S
O294   Zn297   1.939   .     S
O295   Zn298   1.931   .     S
O296   Zn299   1.925   .     S
C301   C307    1.430   .     S
C301   O351    1.267   .     A
C301   O353    1.266   .     A
C302   C316    1.387   .     A
C302   H334    1.079   .     S
C302   C326    1.402   .     A
C303   C316    1.405   .     A
C303   C315    1.405   .     A
C303   C318    1.451   .     S
C304   C306    1.456   .     S
C304   O352    1.290   .     A
C304   O354    1.269   .     A
C305   C314    1.487   .     S
C305   C325    1.422   .     A
C305   C317    1.417   .     A
C306   C187    1.352   1_655 S
C306   H217    1.088   1_655 S
C308   C311    1.450   .     S
C308   C489    1.331   .     S
C308   H510    1.088   .     S
C309   C310    1.433   .     S
C310   O355    1.276   .     A
C310   O349    1.276   .     A
C311   O350    1.276   .     A
C311   O356    1.275   .     A
C312   C317    1.389   .     A
C312   C323    1.392   .     A
C312   H335    1.086   .     S
C313   O345    1.272   .     A
C313   C316    1.453   .     S
C313   O347    1.280   .     A
C314   O346    1.283   .     A
C314   O348    1.287   .     A
C315   C860    1.452   1_554 S
C315   C867    1.417   1_554 S
C317   C321    1.446   .     S
C318   N340    1.157   .     T
C319   H331    1.110   .     S
C319   H339    1.111   .     S
C319   C187    1.514   1_655 S
C319   H218    1.112   1_655 S
C320   N341    1.157   .     T
C320   C855    1.452   .     S
C321   N342    1.158   .     T
C322   N343    1.158   .     T
C322   C863    1.447   1_554 S
C323   C324    1.428   .     A
C323   C862    1.447   .     S
C324   C325    1.425   .     A
C324   C866    1.430   .     S
C325   C329    1.410   .     A
C326   C864    1.430   1_554 S
C326   C867    1.424   1_554 S
C327   C328    1.398   .     A
C327   C866    1.424   .     S
C327   C855    1.417   .     S
C328   C329    1.382   .     A
C328   H333    1.083   .     S
C329   H336    1.081   .     S
H332   C489    1.086   .     S
O344   Zn357   1.954   .     S
O344   Zn360   1.935   .     S
O344   Zn359   1.946   .     S
O344   Zn358   1.944   .     S
O345   Zn358   1.935   .     S
O346   Zn360   1.940   .     S
O347   Zn359   1.934   .     S
O348   Zn357   1.930   .     S
O349   Zn357   1.926   .     S
O350   Zn360   1.931   .     S
O351   Zn358   1.938   .     S
O352   Zn359   1.943   .     S
O353   Zn360   1.942   .     S
O354   Zn357   1.939   .     S
O355   Zn358   1.931   .     S
O356   Zn359   1.925   .     S
C361   C367    1.430   .     S
C361   O411    1.267   .     A
C361   O413    1.266   .     A
C362   C376    1.387   .     A
C362   H394    1.079   .     S
C362   C386    1.402   .     A
C363   C376    1.405   .     A
C363   C375    1.405   .     A
C363   C378    1.451   .     S
C364   C366    1.456   .     S
C364   O412    1.290   .     A
C364   O414    1.269   .     A
C365   C374    1.487   .     S
C365   C385    1.422   .     A
C365   C377    1.417   .     A
C366   C427    1.352   .     S
C366   H457    1.088   .     S
C367   C486    1.352   1_455 S
C367   C499    1.514   1_455 S
C368   C371    1.450   .     S
C368   C9      1.331   1_565 S
C368   H30     1.088   1_565 S
C369   C370    1.433   .     S
C370   O415    1.276   .     A
C370   O409    1.276   .     A
C371   O410    1.276   .     A
C371   O416    1.275   .     A
C372   C377    1.389   .     A
C372   C383    1.392   .     A
C372   H395    1.086   .     S
C373   O405    1.272   .     A
C373   C376    1.453   .     S
C373   O407    1.280   .     A
C374   O406    1.283   .     A
C374   O408    1.287   .     A
C375   C920    1.452   1_554 S
C375   C927    1.417   1_554 S
C377   C381    1.446   .     S
C378   N400    1.157   .     T
C379   H391    1.110   .     S
C379   H399    1.111   .     S
C379   C427    1.514   .     S
C379   H458    1.112   .     S
C380   N401    1.157   .     T
C380   C915    1.452   .     S
C381   N402    1.158   .     T
C382   N403    1.158   .     T
C382   C923    1.447   1_554 S
C383   C384    1.428   .     A
C383   C922    1.447   .     S
C384   C385    1.425   .     A
C384   C926    1.430   .     S
C385   C389    1.410   .     A
C386   C924    1.430   1_554 S
C386   C927    1.424   1_554 S
C387   C388    1.398   .     A
C387   C926    1.424   .     S
C387   C915    1.417   .     S
C388   C389    1.382   .     A
C388   H393    1.083   .     S
C389   H396    1.081   .     S
H392   C9      1.086   1_565 S
H397   C486    1.088   1_455 S
H398   C499    1.112   1_455 S
O404   Zn417   1.954   .     S
O404   Zn420   1.935   .     S
O404   Zn419   1.946   .     S
O404   Zn418   1.944   .     S
O405   Zn418   1.935   .     S
O406   Zn420   1.940   .     S
O407   Zn419   1.934   .     S
O408   Zn417   1.930   .     S
O409   Zn417   1.926   .     S
O410   Zn420   1.931   .     S
O411   Zn418   1.938   .     S
O412   Zn419   1.943   .     S
O413   Zn420   1.942   .     S
O414   Zn417   1.939   .     S
O415   Zn418   1.931   .     S
O416   Zn419   1.925   .     S
C421   C427    1.430   .     S
C421   O471    1.267   .     A
C421   O473    1.266   .     A
C422   C436    1.387   .     A
C422   H454    1.079   .     S
C422   C446    1.402   .     A
C423   C436    1.405   .     A
C423   C435    1.405   .     A
C423   C438    1.451   .     S
C424   C426    1.456   .     S
C424   O472    1.290   .     A
C424   O474    1.269   .     A
C425   C434    1.487   .     S
C425   C445    1.422   .     A
C425   C437    1.417   .     A
C426   C487    1.352   .     S
C426   H517    1.088   .     S
C428   C431    1.450   .     S
C428   C69     1.331   1_565 S
C428   H90     1.088   1_565 S
C429   C430    1.433   .     S
C430   O475    1.276   .     A
C430   O469    1.276   .     A
C431   O470    1.276   .     A
C431   O476    1.275   .     A
C432   C437    1.389   .     A
C432   C443    1.392   .     A
C432   H455    1.086   .     S
C433   O465    1.272   .     A
C433   C436    1.453   .     S
C433   O467    1.280   .     A
C434   O466    1.283   .     A
C434   O468    1.287   .     A
C435   C980    1.452   1_554 S
C435   C987    1.417   1_554 S
C437   C441    1.446   .     S
C438   N460    1.157   .     T
C439   H451    1.110   .     S
C439   H459    1.111   .     S
C439   C487    1.514   .     S
C439   H518    1.112   .     S
C440   N461    1.157   .     T
C440   C975    1.452   .     S
C441   N462    1.158   .     T
C442   N463    1.158   .     T
C442   C983    1.447   1_554 S
C443   C444    1.428   .     A
C443   C982    1.447   .     S
C444   C445    1.425   .     A
C444   C986    1.430   .     S
C445   C449    1.410   .     A
C446   C984    1.430   1_554 S
C446   C987    1.424   1_554 S
C447   C448    1.398   .     A
C447   C986    1.424   .     S
C447   C975    1.417   .     S
C448   C449    1.382   .     A
C448   H453    1.083   .     S
C449   H456    1.081   .     S
H452   C69     1.086   1_565 S
O464   Zn477   1.954   .     S
O464   Zn480   1.935   .     S
O464   Zn479   1.946   .     S
O464   Zn478   1.944   .     S
O465   Zn478   1.935   .     S
O466   Zn480   1.940   .     S
O467   Zn479   1.934   .     S
O468   Zn477   1.930   .     S
O469   Zn477   1.926   .     S
O470   Zn480   1.931   .     S
O471   Zn478   1.938   .     S
O472   Zn479   1.943   .     S
O473   Zn480   1.942   .     S
O474   Zn477   1.939   .     S
O475   Zn478   1.931   .     S
O476   Zn479   1.925   .     S
C481   C487    1.430   .     S
C481   O531    1.267   .     A
C481   O533    1.266   .     A
C482   C496    1.387   .     A
C482   H514    1.079   .     S
C482   C506    1.402   .     A
C483   C496    1.405   .     A
C483   C495    1.405   .     A
C483   C498    1.451   .     S
C484   C486    1.456   .     S
C484   O532    1.290   .     A
C484   O534    1.269   .     A
C485   C494    1.487   .     S
C485   C505    1.422   .     A
C485   C497    1.417   .     A
C486   C367    1.352   1_655 S
C486   H397    1.088   1_655 S
C488   C491    1.450   .     S
C488   C129    1.331   1_565 S
C488   H150    1.088   1_565 S
C489   C490    1.433   .     S
C490   O535    1.276   .     A
C490   O529    1.276   .     A
C491   O530    1.276   .     A
C491   O536    1.275   .     A
C492   C497    1.389   .     A
C492   C503    1.392   .     A
C492   H515    1.086   .     S
C493   O525    1.272   .     A
C493   C496    1.453   .     S
C493   O527    1.280   .     A
C494   O526    1.283   .     A
C494   O528    1.287   .     A
C495   C1040   1.452   1_554 S
C495   C1047   1.417   1_554 S
C497   C501    1.446   .     S
C498   N520    1.157   .     T
C499   H511    1.110   .     S
C499   H519    1.111   .     S
C499   C367    1.514   1_655 S
C499   H398    1.112   1_655 S
C500   N521    1.157   .     T
C500   C1035   1.452   .     S
C501   N522    1.158   .     T
C502   N523    1.158   .     T
C502   C1043   1.447   1_554 S
C503   C504    1.428   .     A
C503   C1042   1.447   .     S
C504   C505    1.425   .     A
C504   C1046   1.430   .     S
C505   C509    1.410   .     A
C506   C1044   1.430   1_554 S
C506   C1047   1.424   1_554 S
C507   C508    1.398   .     A
C507   C1046   1.424   .     S
C507   C1035   1.417   .     S
C508   C509    1.382   .     A
C508   H513    1.083   .     S
C509   H516    1.081   .     S
H512   C129    1.086   1_565 S
O524   Zn537   1.954   .     S
O524   Zn540   1.935   .     S
O524   Zn539   1.946   .     S
O524   Zn538   1.944   .     S
O525   Zn538   1.935   .     S
O526   Zn540   1.940   .     S
O527   Zn539   1.934   .     S
O528   Zn537   1.930   .     S
O529   Zn537   1.926   .     S
O530   Zn540   1.931   .     S
O531   Zn538   1.938   .     S
O532   Zn539   1.943   .     S
O533   Zn540   1.942   .     S
O534   Zn537   1.939   .     S
O535   Zn538   1.931   .     S
O536   Zn539   1.925   .     S
C541   C547    1.430   .     S
C541   O591    1.267   .     A
C541   O593    1.266   .     A
C542   C556    1.387   .     A
C542   H574    1.079   .     S
C542   C566    1.402   .     A
C543   C556    1.405   .     A
C543   C555    1.405   .     A
C543   C558    1.451   .     S
C544   C546    1.456   .     S
C544   O592    1.290   .     A
C544   O594    1.269   .     A
C545   C554    1.487   .     S
C545   C565    1.422   .     A
C545   C557    1.417   .     A
C546   C607    1.352   .     S
C546   H637    1.088   .     S
C547   C666    1.352   1_455 S
C547   C679    1.514   1_455 S
C548   C551    1.450   .     S
C548   C729    1.331   .     S
C548   H750    1.088   .     S
C549   C550    1.433   .     S
C549   C908    1.331   1_545 S
C549   H932    1.086   1_545 S
C550   O595    1.276   .     A
C550   O589    1.276   .     A
C551   O590    1.276   .     A
C551   O596    1.275   .     A
C552   C557    1.389   .     A
C552   C563    1.392   .     A
C552   H575    1.086   .     S
C553   O585    1.272   .     A
C553   C556    1.453   .     S
C553   O587    1.280   .     A
C554   O586    1.283   .     A
C554   O588    1.287   .     A
C557   C561    1.446   .     S
C558   N580    1.157   .     T
C559   H571    1.110   .     S
C559   H579    1.111   .     S
C559   C607    1.514   .     S
C559   H638    1.112   .     S
C560   N581    1.157   .     T
C560   C15     1.452   1_556 S
C561   N582    1.158   .     T
C562   N583    1.158   .     T
C563   C564    1.428   .     A
C563   C22     1.447   1_556 S
C564   C565    1.425   .     A
C564   C26     1.430   1_556 S
C565   C569    1.410   .     A
C567   C568    1.398   .     A
C567   C26     1.424   1_556 S
C567   C15     1.417   1_556 S
C568   C569    1.382   .     A
C568   H573    1.083   .     S
C569   H576    1.081   .     S
H570   C908    1.088   1_545 S
H572   C729    1.086   .     S
H577   C666    1.088   1_455 S
H578   C679    1.112   1_455 S
O584   Zn597   1.954   .     S
O584   Zn600   1.935   .     S
O584   Zn599   1.946   .     S
O584   Zn598   1.944   .     S
O585   Zn598   1.935   .     S
O586   Zn600   1.940   .     S
O587   Zn599   1.934   .     S
O588   Zn597   1.930   .     S
O589   Zn597   1.926   .     S
O590   Zn600   1.931   .     S
O591   Zn598   1.938   .     S
O592   Zn599   1.943   .     S
O593   Zn600   1.942   .     S
O594   Zn597   1.939   .     S
O595   Zn598   1.931   .     S
O596   Zn599   1.925   .     S
C601   C607    1.430   .     S
C601   O651    1.267   .     A
C601   O653    1.266   .     A
C602   C616    1.387   .     A
C602   H634    1.079   .     S
C602   C626    1.402   .     A
C603   C616    1.405   .     A
C603   C615    1.405   .     A
C603   C618    1.451   .     S
C604   C606    1.456   .     S
C604   O652    1.290   .     A
C604   O654    1.269   .     A
C605   C614    1.487   .     S
C605   C625    1.422   .     A
C605   C617    1.417   .     A
C606   C667    1.352   .     S
C606   H697    1.088   .     S
C608   C611    1.450   .     S
C608   C789    1.331   .     S
C608   H810    1.088   .     S
C609   C610    1.433   .     S
C609   C968    1.331   1_545 S
C609   H992    1.086   1_545 S
C610   O655    1.276   .     A
C610   O649    1.276   .     A
C611   O650    1.276   .     A
C611   O656    1.275   .     A
C612   C617    1.389   .     A
C612   C623    1.392   .     A
C612   H635    1.086   .     S
C613   O645    1.272   .     A
C613   C616    1.453   .     S
C613   O647    1.280   .     A
C614   O646    1.283   .     A
C614   O648    1.287   .     A
C617   C621    1.446   .     S
C618   N640    1.157   .     T
C619   H631    1.110   .     S
C619   H639    1.111   .     S
C619   C667    1.514   .     S
C619   H698    1.112   .     S
C620   N641    1.157   .     T
C620   C75     1.452   1_556 S
C621   N642    1.158   .     T
C622   N643    1.158   .     T
C623   C624    1.428   .     A
C623   C82     1.447   1_556 S
C624   C625    1.425   .     A
C624   C86     1.430   1_556 S
C625   C629    1.410   .     A
C627   C628    1.398   .     A
C627   C86     1.424   1_556 S
C627   C75     1.417   1_556 S
C628   C629    1.382   .     A
C628   H633    1.083   .     S
C629   H636    1.081   .     S
H630   C968    1.088   1_545 S
H632   C789    1.086   .     S
O644   Zn657   1.954   .     S
O644   Zn660   1.935   .     S
O644   Zn659   1.946   .     S
O644   Zn658   1.944   .     S
O645   Zn658   1.935   .     S
O646   Zn660   1.940   .     S
O647   Zn659   1.934   .     S
O648   Zn657   1.930   .     S
O649   Zn657   1.926   .     S
O650   Zn660   1.931   .     S
O651   Zn658   1.938   .     S
O652   Zn659   1.943   .     S
O653   Zn660   1.942   .     S
O654   Zn657   1.939   .     S
O655   Zn658   1.931   .     S
O656   Zn659   1.925   .     S
C661   C667    1.430   .     S
C661   O711    1.267   .     A
C661   O713    1.266   .     A
C662   C676    1.387   .     A
C662   H694    1.079   .     S
C662   C686    1.402   .     A
C663   C676    1.405   .     A
C663   C675    1.405   .     A
C663   C678    1.451   .     S
C664   C666    1.456   .     S
C664   O712    1.290   .     A
C664   O714    1.269   .     A
C665   C674    1.487   .     S
C665   C685    1.422   .     A
C665   C677    1.417   .     A
C666   C547    1.352   1_655 S
C666   H577    1.088   1_655 S
C668   C671    1.450   .     S
C668   C849    1.331   .     S
C668   H870    1.088   .     S
C669   C670    1.433   .     S
C669   C1028   1.331   1_545 S
C669   H1052   1.086   1_545 S
C670   O715    1.276   .     A
C670   O709    1.276   .     A
C671   O710    1.276   .     A
C671   O716    1.275   .     A
C672   C677    1.389   .     A
C672   C683    1.392   .     A
C672   H695    1.086   .     S
C673   O705    1.272   .     A
C673   C676    1.453   .     S
C673   O707    1.280   .     A
C674   O706    1.283   .     A
C674   O708    1.287   .     A
C677   C681    1.446   .     S
C678   N700    1.157   .     T
C679   H691    1.110   .     S
C679   H699    1.111   .     S
C679   C547    1.514   1_655 S
C679   H578    1.112   1_655 S
C680   N701    1.157   .     T
C680   C135    1.452   1_556 S
C681   N702    1.158   .     T
C682   N703    1.158   .     T
C683   C684    1.428   .     A
C683   C142    1.447   1_556 S
C684   C685    1.425   .     A
C684   C146    1.430   1_556 S
C685   C689    1.410   .     A
C687   C688    1.398   .     A
C687   C146    1.424   1_556 S
C687   C135    1.417   1_556 S
C688   C689    1.382   .     A
C688   H693    1.083   .     S
C689   H696    1.081   .     S
H690   C1028   1.088   1_545 S
H692   C849    1.086   .     S
O704   Zn717   1.954   .     S
O704   Zn720   1.935   .     S
O704   Zn719   1.946   .     S
O704   Zn718   1.944   .     S
O705   Zn718   1.935   .     S
O706   Zn720   1.940   .     S
O707   Zn719   1.934   .     S
O708   Zn717   1.930   .     S
O709   Zn717   1.926   .     S
O710   Zn720   1.931   .     S
O711   Zn718   1.938   .     S
O712   Zn719   1.943   .     S
O713   Zn720   1.942   .     S
O714   Zn717   1.939   .     S
O715   Zn718   1.931   .     S
O716   Zn719   1.925   .     S
C721   C727    1.430   .     S
C721   O771    1.267   .     A
C721   O773    1.266   .     A
C722   C736    1.387   .     A
C722   H754    1.079   .     S
C722   C746    1.402   .     A
C723   C736    1.405   .     A
C723   C735    1.405   .     A
C723   C738    1.451   .     S
C724   C726    1.456   .     S
C724   O772    1.290   .     A
C724   O774    1.269   .     A
C725   C734    1.487   .     S
C725   C745    1.422   .     A
C725   C737    1.417   .     A
C726   C787    1.352   .     S
C726   H817    1.088   .     S
C727   C846    1.352   1_455 S
C727   C859    1.514   1_455 S
C728   C731    1.450   .     S
C728   C909    1.331   .     S
C728   H930    1.088   .     S
C729   C730    1.433   .     S
C730   O775    1.276   .     A
C730   O769    1.276   .     A
C731   O770    1.276   .     A
C731   O776    1.275   .     A
C732   C737    1.389   .     A
C732   C743    1.392   .     A
C732   H755    1.086   .     S
C733   O765    1.272   .     A
C733   C736    1.453   .     S
C733   O767    1.280   .     A
C734   O766    1.283   .     A
C734   O768    1.287   .     A
C737   C741    1.446   .     S
C738   N760    1.157   .     T
C739   H751    1.110   .     S
C739   H759    1.111   .     S
C739   C787    1.514   .     S
C739   H818    1.112   .     S
C740   N761    1.157   .     T
C740   C195    1.452   1_556 S
C741   N762    1.158   .     T
C742   N763    1.158   .     T
C743   C744    1.428   .     A
C743   C202    1.447   1_556 S
C744   C745    1.425   .     A
C744   C206    1.430   1_556 S
C745   C749    1.410   .     A
C747   C748    1.398   .     A
C747   C206    1.424   1_556 S
C747   C195    1.417   1_556 S
C748   C749    1.382   .     A
C748   H753    1.083   .     S
C749   H756    1.081   .     S
H752   C909    1.086   .     S
H757   C846    1.088   1_455 S
H758   C859    1.112   1_455 S
O764   Zn777   1.954   .     S
O764   Zn780   1.935   .     S
O764   Zn779   1.946   .     S
O764   Zn778   1.944   .     S
O765   Zn778   1.935   .     S
O766   Zn780   1.940   .     S
O767   Zn779   1.934   .     S
O768   Zn777   1.930   .     S
O769   Zn777   1.926   .     S
O770   Zn780   1.931   .     S
O771   Zn778   1.938   .     S
O772   Zn779   1.943   .     S
O773   Zn780   1.942   .     S
O774   Zn777   1.939   .     S
O775   Zn778   1.931   .     S
O776   Zn779   1.925   .     S
C781   C787    1.430   .     S
C781   O831    1.267   .     A
C781   O833    1.266   .     A
C782   C796    1.387   .     A
C782   H814    1.079   .     S
C782   C806    1.402   .     A
C783   C796    1.405   .     A
C783   C795    1.405   .     A
C783   C798    1.451   .     S
C784   C786    1.456   .     S
C784   O832    1.290   .     A
C784   O834    1.269   .     A
C785   C794    1.487   .     S
C785   C805    1.422   .     A
C785   C797    1.417   .     A
C786   C847    1.352   .     S
C786   H877    1.088   .     S
C788   C791    1.450   .     S
C788   C969    1.331   .     S
C788   H990    1.088   .     S
C789   C790    1.433   .     S
C790   O835    1.276   .     A
C790   O829    1.276   .     A
C791   O830    1.276   .     A
C791   O836    1.275   .     A
C792   C797    1.389   .     A
C792   C803    1.392   .     A
C792   H815    1.086   .     S
C793   O825    1.272   .     A
C793   C796    1.453   .     S
C793   O827    1.280   .     A
C794   O826    1.283   .     A
C794   O828    1.287   .     A
C797   C801    1.446   .     S
C798   N820    1.157   .     T
C799   H811    1.110   .     S
C799   H819    1.111   .     S
C799   C847    1.514   .     S
C799   H878    1.112   .     S
C800   N821    1.157   .     T
C800   C255    1.452   1_556 S
C801   N822    1.158   .     T
C802   N823    1.158   .     T
C803   C804    1.428   .     A
C803   C262    1.447   1_556 S
C804   C805    1.425   .     A
C804   C266    1.430   1_556 S
C805   C809    1.410   .     A
C807   C808    1.398   .     A
C807   C266    1.424   1_556 S
C807   C255    1.417   1_556 S
C808   C809    1.382   .     A
C808   H813    1.083   .     S
C809   H816    1.081   .     S
H812   C969    1.086   .     S
O824   Zn837   1.954   .     S
O824   Zn840   1.935   .     S
O824   Zn839   1.946   .     S
O824   Zn838   1.944   .     S
O825   Zn838   1.935   .     S
O826   Zn840   1.940   .     S
O827   Zn839   1.934   .     S
O828   Zn837   1.930   .     S
O829   Zn837   1.926   .     S
O830   Zn840   1.931   .     S
O831   Zn838   1.938   .     S
O832   Zn839   1.943   .     S
O833   Zn840   1.942   .     S
O834   Zn837   1.939   .     S
O835   Zn838   1.931   .     S
O836   Zn839   1.925   .     S
C841   C847    1.430   .     S
C841   O891    1.267   .     A
C841   O893    1.266   .     A
C842   C856    1.387   .     A
C842   H874    1.079   .     S
C842   C866    1.402   .     A
C843   C856    1.405   .     A
C843   C855    1.405   .     A
C843   C858    1.451   .     S
C844   C846    1.456   .     S
C844   O892    1.290   .     A
C844   O894    1.269   .     A
C845   C854    1.487   .     S
C845   C865    1.422   .     A
C845   C857    1.417   .     A
C846   C727    1.352   1_655 S
C846   H757    1.088   1_655 S
C848   C851    1.450   .     S
C848   C1029   1.331   .     S
C848   H1050   1.088   .     S
C849   C850    1.433   .     S
C850   O895    1.276   .     A
C850   O889    1.276   .     A
C851   O890    1.276   .     A
C851   O896    1.275   .     A
C852   C857    1.389   .     A
C852   C863    1.392   .     A
C852   H875    1.086   .     S
C853   O885    1.272   .     A
C853   C856    1.453   .     S
C853   O887    1.280   .     A
C854   O886    1.283   .     A
C854   O888    1.287   .     A
C857   C861    1.446   .     S
C858   N880    1.157   .     T
C859   H871    1.110   .     S
C859   H879    1.111   .     S
C859   C727    1.514   1_655 S
C859   H758    1.112   1_655 S
C860   N881    1.157   .     T
C860   C315    1.452   1_556 S
C861   N882    1.158   .     T
C862   N883    1.158   .     T
C863   C864    1.428   .     A
C863   C322    1.447   1_556 S
C864   C865    1.425   .     A
C864   C326    1.430   1_556 S
C865   C869    1.410   .     A
C867   C868    1.398   .     A
C867   C326    1.424   1_556 S
C867   C315    1.417   1_556 S
C868   C869    1.382   .     A
C868   H873    1.083   .     S
C869   H876    1.081   .     S
H872   C1029   1.086   .     S
O884   Zn897   1.954   .     S
O884   Zn900   1.935   .     S
O884   Zn899   1.946   .     S
O884   Zn898   1.944   .     S
O885   Zn898   1.935   .     S
O886   Zn900   1.940   .     S
O887   Zn899   1.934   .     S
O888   Zn897   1.930   .     S
O889   Zn897   1.926   .     S
O890   Zn900   1.931   .     S
O891   Zn898   1.938   .     S
O892   Zn899   1.943   .     S
O893   Zn900   1.942   .     S
O894   Zn897   1.939   .     S
O895   Zn898   1.931   .     S
O896   Zn899   1.925   .     S
C901   C907    1.430   .     S
C901   O951    1.267   .     A
C901   O953    1.266   .     A
C902   C916    1.387   .     A
C902   H934    1.079   .     S
C902   C926    1.402   .     A
C903   C916    1.405   .     A
C903   C915    1.405   .     A
C903   C918    1.451   .     S
C904   C906    1.456   .     S
C904   O952    1.290   .     A
C904   O954    1.269   .     A
C905   C914    1.487   .     S
C905   C925    1.422   .     A
C905   C917    1.417   .     A
C906   C967    1.352   .     S
C906   H997    1.088   .     S
C907   C1026   1.352   1_455 S
C907   C1039   1.514   1_455 S
C908   C911    1.450   .     S
C908   C549    1.331   1_565 S
C908   H570    1.088   1_565 S
C909   C910    1.433   .     S
C910   O955    1.276   .     A
C910   O949    1.276   .     A
C911   O950    1.276   .     A
C911   O956    1.275   .     A
C912   C917    1.389   .     A
C912   C923    1.392   .     A
C912   H935    1.086   .     S
C913   O945    1.272   .     A
C913   C916    1.453   .     S
C913   O947    1.280   .     A
C914   O946    1.283   .     A
C914   O948    1.287   .     A
C917   C921    1.446   .     S
C918   N940    1.157   .     T
C919   H931    1.110   .     S
C919   H939    1.111   .     S
C919   C967    1.514   .     S
C919   H998    1.112   .     S
C920   N941    1.157   .     T
C920   C375    1.452   1_556 S
C921   N942    1.158   .     T
C922   N943    1.158   .     T
C923   C924    1.428   .     A
C923   C382    1.447   1_556 S
C924   C925    1.425   .     A
C924   C386    1.430   1_556 S
C925   C929    1.410   .     A
C927   C928    1.398   .     A
C927   C386    1.424   1_556 S
C927   C375    1.417   1_556 S
C928   C929    1.382   .     A
C928   H933    1.083   .     S
C929   H936    1.081   .     S
H932   C549    1.086   1_565 S
H937   C1026   1.088   1_455 S
H938   C1039   1.112   1_455 S
O944   Zn957   1.954   .     S
O944   Zn960   1.935   .     S
O944   Zn959   1.946   .     S
O944   Zn958   1.944   .     S
O945   Zn958   1.935   .     S
O946   Zn960   1.940   .     S
O947   Zn959   1.934   .     S
O948   Zn957   1.930   .     S
O949   Zn957   1.926   .     S
O950   Zn960   1.931   .     S
O951   Zn958   1.938   .     S
O952   Zn959   1.943   .     S
O953   Zn960   1.942   .     S
O954   Zn957   1.939   .     S
O955   Zn958   1.931   .     S
O956   Zn959   1.925   .     S
C961   C967    1.430   .     S
C961   O1011   1.267   .     A
C961   O1013   1.266   .     A
C962   C976    1.387   .     A
C962   H994    1.079   .     S
C962   C986    1.402   .     A
C963   C976    1.405   .     A
C963   C975    1.405   .     A
C963   C978    1.451   .     S
C964   C966    1.456   .     S
C964   O1012   1.290   .     A
C964   O1014   1.269   .     A
C965   C974    1.487   .     S
C965   C985    1.422   .     A
C965   C977    1.417   .     A
C966   C1027   1.352   .     S
C966   H1057   1.088   .     S
C968   C971    1.450   .     S
C968   C609    1.331   1_565 S
C968   H630    1.088   1_565 S
C969   C970    1.433   .     S
C970   O1015   1.276   .     A
C970   O1009   1.276   .     A
C971   O1010   1.276   .     A
C971   O1016   1.275   .     A
C972   C977    1.389   .     A
C972   C983    1.392   .     A
C972   H995    1.086   .     S
C973   O1005   1.272   .     A
C973   C976    1.453   .     S
C973   O1007   1.280   .     A
C974   O1006   1.283   .     A
C974   O1008   1.287   .     A
C977   C981    1.446   .     S
C978   N1000   1.157   .     T
C979   H991    1.110   .     S
C979   H999    1.111   .     S
C979   C1027   1.514   .     S
C979   H1058   1.112   .     S
C980   N1001   1.157   .     T
C980   C435    1.452   1_556 S
C981   N1002   1.158   .     T
C982   N1003   1.158   .     T
C983   C984    1.428   .     A
C983   C442    1.447   1_556 S
C984   C985    1.425   .     A
C984   C446    1.430   1_556 S
C985   C989    1.410   .     A
C987   C988    1.398   .     A
C987   C446    1.424   1_556 S
C987   C435    1.417   1_556 S
C988   C989    1.382   .     A
C988   H993    1.083   .     S
C989   H996    1.081   .     S
H992   C609    1.086   1_565 S
O1004  Zn1017  1.954   .     S
O1004  Zn1020  1.935   .     S
O1004  Zn1019  1.946   .     S
O1004  Zn1018  1.944   .     S
O1005  Zn1018  1.935   .     S
O1006  Zn1020  1.940   .     S
O1007  Zn1019  1.934   .     S
O1008  Zn1017  1.930   .     S
O1009  Zn1017  1.926   .     S
O1010  Zn1020  1.931   .     S
O1011  Zn1018  1.938   .     S
O1012  Zn1019  1.943   .     S
O1013  Zn1020  1.942   .     S
O1014  Zn1017  1.939   .     S
O1015  Zn1018  1.931   .     S
O1016  Zn1019  1.925   .     S
C1021  C1027   1.430   .     S
C1021  O1071   1.267   .     A
C1021  O1073   1.266   .     A
C1022  C1036   1.387   .     A
C1022  H1054   1.079   .     S
C1022  C1046   1.402   .     A
C1023  C1036   1.405   .     A
C1023  C1035   1.405   .     A
C1023  C1038   1.451   .     S
C1024  C1026   1.456   .     S
C1024  O1072   1.290   .     A
C1024  O1074   1.269   .     A
C1025  C1034   1.487   .     S
C1025  C1045   1.422   .     A
C1025  C1037   1.417   .     A
C1026  C907    1.352   1_655 S
C1026  H937    1.088   1_655 S
C1028  C1031   1.450   .     S
C1028  C669    1.331   1_565 S
C1028  H690    1.088   1_565 S
C1029  C1030   1.433   .     S
C1030  O1075   1.276   .     A
C1030  O1069   1.276   .     A
C1031  O1070   1.276   .     A
C1031  O1076   1.275   .     A
C1032  C1037   1.389   .     A
C1032  C1043   1.392   .     A
C1032  H1055   1.086   .     S
C1033  O1065   1.272   .     A
C1033  C1036   1.453   .     S
C1033  O1067   1.280   .     A
C1034  O1066   1.283   .     A
C1034  O1068   1.287   .     A
C1037  C1041   1.446   .     S
C1038  N1060   1.157   .     T
C1039  H1051   1.110   .     S
C1039  H1059   1.111   .     S
C1039  C907    1.514   1_655 S
C1039  H938    1.112   1_655 S
C1040  N1061   1.157   .     T
C1040  C495    1.452   1_556 S
C1041  N1062   1.158   .     T
C1042  N1063   1.158   .     T
C1043  C1044   1.428   .     A
C1043  C502    1.447   1_556 S
C1044  C1045   1.425   .     A
C1044  C506    1.430   1_556 S
C1045  C1049   1.410   .     A
C1047  C1048   1.398   .     A
C1047  C506    1.424   1_556 S
C1047  C495    1.417   1_556 S
C1048  C1049   1.382   .     A
C1048  H1053   1.083   .     S
C1049  H1056   1.081   .     S
H1052  C669    1.086   1_565 S
O1064  Zn1077  1.954   .     S
O1064  Zn1080  1.935   .     S
O1064  Zn1079  1.946   .     S
O1064  Zn1078  1.944   .     S
O1065  Zn1078  1.935   .     S
O1066  Zn1080  1.940   .     S
O1067  Zn1079  1.934   .     S
O1068  Zn1077  1.930   .     S
O1069  Zn1077  1.926   .     S
O1070  Zn1080  1.931   .     S
O1071  Zn1078  1.938   .     S
O1072  Zn1079  1.943   .     S
O1073  Zn1080  1.942   .     S
O1074  Zn1077  1.939   .     S
O1075  Zn1078  1.931   .     S
O1076  Zn1079  1.925   .     S
