data_str_m2_o1_o10_pcu_sym.92
_audit_creation_date              2020-01-03
_audit_creation_method            'Materials Studio'
_symmetry_space_group_name_H-M    'P1'
_symmetry_Int_Tables_number       1
_symmetry_cell_setting            triclinic
loop_
_symmetry_equiv_pos_as_xyz
  x,y,z
_cell_length_a                    26.1933
_cell_length_b                    32.4155
_cell_length_c                    28.6023
_cell_angle_alpha                 89.8946
_cell_angle_beta                  98.0288
_cell_angle_gamma                 90.2260
loop_
_atom_site_label
_atom_site_type_symbol
_atom_site_fract_x
_atom_site_fract_y
_atom_site_fract_z
_atom_site_U_iso_or_equiv
_atom_site_adp_type
_atom_site_occupancy
O1     O     0.16666   0.10655   0.20625   0.00000  Uiso   1.00
O2     O     0.16667   0.22678   0.12709   0.00000  Uiso   1.00
O3     O     0.16666   0.10654   0.12706   0.00000  Uiso   1.00
O4     O     0.16667   0.22679   0.20628   0.00000  Uiso   1.00
C5     C     0.16748   0.08745   0.16682   0.00000  Uiso   1.00
C6     C     0.16585   0.24588   0.16651   0.00000  Uiso   1.00
O7     O     0.09161   0.16667   0.19712   0.00000  Uiso   1.00
O8     O     0.24172   0.16666   0.13621   0.00000  Uiso   1.00
O9     O     0.09161   0.16666   0.11793   0.00000  Uiso   1.00
O10    O     0.24172   0.16667   0.21540   0.00000  Uiso   1.00
C11    C     0.06792   0.16658   0.15456   0.00000  Uiso   1.00
C12    C     0.26542   0.16675   0.17877   0.00000  Uiso   1.00
Cu13   Cu    0.16667   0.16667   0.21355   0.00000  Uiso   1.00
Cu14   Cu    0.16667   0.16666   0.11978   0.00000  Uiso   1.00
N15    N     0.16668   0.16668   0.28403   0.00000  Uiso   1.00
N16    N     0.16665   0.16666   0.04931   0.00000  Uiso   1.00
C17    C     0.01261   0.16659   0.14792   0.00000  Uiso   1.00
C18    C     0.32073   0.16674   0.18542   0.00000  Uiso   1.00
H19    H     0.32589   0.16649   0.11197   0.00000  Uiso   1.00
H20    H     0.00744   0.16684   0.22136   0.00000  Uiso   1.00
C21    C     0.19960   0.02105   0.13941   0.00000  Uiso   1.00
C22    C     0.13373   0.31229   0.19393   0.00000  Uiso   1.00
C23    C     0.19719   0.31148   0.13878   0.00000  Uiso   1.00
C24    C     0.13615   0.02185   0.19456   0.00000  Uiso   1.00
C25    C     0.16487   0.29051   0.16607   0.00000  Uiso   1.00
C26    C     0.16846   0.04283   0.16726   0.00000  Uiso   1.00
C27    C     0.13386   0.14157   0.02055   0.00000  Uiso   1.00
C28    C     0.19947   0.19177   0.31278   0.00000  Uiso   1.00
C29    C     0.13389   0.14162   0.30434   0.00000  Uiso   1.00
C30    C     0.19944   0.19171   0.02900   0.00000  Uiso   1.00
H31    H     0.10767   0.12153   0.28230   0.00000  Uiso   1.00
H32    H     0.22566   0.21180   0.05104   0.00000  Uiso   1.00
N33    N     0.23533   0.04194   0.11353   0.00000  Uiso   1.00
O34    O     0.26593   0.07032   0.13388   0.00000  Uiso   1.00
O35    O     0.24126   0.02970   0.07133   0.00000  Uiso   1.00
N36    N     0.09801   0.29139   0.21980   0.00000  Uiso   1.00
O37    O     0.06741   0.26301   0.19945   0.00000  Uiso   1.00
O38    O     0.09207   0.30363   0.26200   0.00000  Uiso   1.00
F39    F     0.22876   0.29004   0.11378   0.00000  Uiso   1.00
F40    F     0.10457   0.04330   0.21955   0.00000  Uiso   1.00
F41    F     0.10094   0.11620   0.03948   0.00000  Uiso   1.00
F42    F     0.23239   0.21714   0.29386   0.00000  Uiso   1.00
O43    O     0.50000   0.10655   0.20625   0.00000  Uiso   1.00
O44    O     0.50000   0.22678   0.12709   0.00000  Uiso   1.00
O45    O     0.50000   0.10654   0.12706   0.00000  Uiso   1.00
O46    O     0.50000   0.22679   0.20628   0.00000  Uiso   1.00
C47    C     0.50082   0.08745   0.16682   0.00000  Uiso   1.00
C48    C     0.49918   0.24588   0.16651   0.00000  Uiso   1.00
O49    O     0.42495   0.16667   0.19712   0.00000  Uiso   1.00
O50    O     0.57505   0.16666   0.13621   0.00000  Uiso   1.00
O51    O     0.42494   0.16666   0.11793   0.00000  Uiso   1.00
O52    O     0.57506   0.16667   0.21540   0.00000  Uiso   1.00
C53    C     0.40125   0.16658   0.15456   0.00000  Uiso   1.00
C54    C     0.59875   0.16675   0.17877   0.00000  Uiso   1.00
Cu55   Cu    0.50000   0.16667   0.21355   0.00000  Uiso   1.00
Cu56   Cu    0.50000   0.16666   0.11978   0.00000  Uiso   1.00
N57    N     0.50001   0.16668   0.28403   0.00000  Uiso   1.00
N58    N     0.49999   0.16666   0.04931   0.00000  Uiso   1.00
C59    C     0.34594   0.16659   0.14792   0.00000  Uiso   1.00
C60    C     0.65406   0.16674   0.18542   0.00000  Uiso   1.00
H61    H     0.65922   0.16649   0.11197   0.00000  Uiso   1.00
H62    H     0.34078   0.16684   0.22136   0.00000  Uiso   1.00
C63    C     0.53293   0.02105   0.13941   0.00000  Uiso   1.00
C64    C     0.46707   0.31229   0.19393   0.00000  Uiso   1.00
C65    C     0.53052   0.31148   0.13878   0.00000  Uiso   1.00
C66    C     0.46948   0.02185   0.19456   0.00000  Uiso   1.00
C67    C     0.49820   0.29051   0.16607   0.00000  Uiso   1.00
C68    C     0.50179   0.04283   0.16726   0.00000  Uiso   1.00
C69    C     0.46719   0.14157   0.02055   0.00000  Uiso   1.00
C70    C     0.53281   0.19177   0.31278   0.00000  Uiso   1.00
C71    C     0.46723   0.14162   0.30434   0.00000  Uiso   1.00
C72    C     0.53277   0.19171   0.02900   0.00000  Uiso   1.00
H73    H     0.44101   0.12153   0.28230   0.00000  Uiso   1.00
H74    H     0.55899   0.21180   0.05104   0.00000  Uiso   1.00
N75    N     0.56866   0.04194   0.11353   0.00000  Uiso   1.00
O76    O     0.59926   0.07032   0.13388   0.00000  Uiso   1.00
O77    O     0.57459   0.02970   0.07133   0.00000  Uiso   1.00
N78    N     0.43134   0.29139   0.21980   0.00000  Uiso   1.00
O79    O     0.40074   0.26301   0.19945   0.00000  Uiso   1.00
O80    O     0.42541   0.30363   0.26200   0.00000  Uiso   1.00
F81    F     0.56209   0.29004   0.11378   0.00000  Uiso   1.00
F82    F     0.43790   0.04330   0.21955   0.00000  Uiso   1.00
F83    F     0.43428   0.11620   0.03948   0.00000  Uiso   1.00
F84    F     0.56572   0.21714   0.29386   0.00000  Uiso   1.00
O85    O     0.83333   0.10655   0.20625   0.00000  Uiso   1.00
O86    O     0.83334   0.22678   0.12709   0.00000  Uiso   1.00
O87    O     0.83333   0.10654   0.12706   0.00000  Uiso   1.00
O88    O     0.83334   0.22679   0.20628   0.00000  Uiso   1.00
C89    C     0.83415   0.08745   0.16682   0.00000  Uiso   1.00
C90    C     0.83252   0.24588   0.16651   0.00000  Uiso   1.00
O91    O     0.75828   0.16667   0.19712   0.00000  Uiso   1.00
O92    O     0.90839   0.16666   0.13621   0.00000  Uiso   1.00
O93    O     0.75828   0.16666   0.11793   0.00000  Uiso   1.00
O94    O     0.90839   0.16667   0.21540   0.00000  Uiso   1.00
C95    C     0.73458   0.16658   0.15456   0.00000  Uiso   1.00
C96    C     0.93208   0.16675   0.17877   0.00000  Uiso   1.00
Cu97   Cu    0.83333   0.16667   0.21355   0.00000  Uiso   1.00
Cu98   Cu    0.83333   0.16666   0.11978   0.00000  Uiso   1.00
N99    N     0.83335   0.16668   0.28403   0.00000  Uiso   1.00
N100   N     0.83332   0.16666   0.04931   0.00000  Uiso   1.00
C101   C     0.67927   0.16659   0.14792   0.00000  Uiso   1.00
C102   C     0.98739   0.16674   0.18542   0.00000  Uiso   1.00
H103   H     0.99256   0.16649   0.11197   0.00000  Uiso   1.00
H104   H     0.67411   0.16684   0.22136   0.00000  Uiso   1.00
C105   C     0.86627   0.02105   0.13941   0.00000  Uiso   1.00
C106   C     0.80040   0.31229   0.19393   0.00000  Uiso   1.00
C107   C     0.86385   0.31148   0.13878   0.00000  Uiso   1.00
C108   C     0.80281   0.02185   0.19456   0.00000  Uiso   1.00
C109   C     0.83154   0.29051   0.16607   0.00000  Uiso   1.00
C110   C     0.83513   0.04283   0.16726   0.00000  Uiso   1.00
C111   C     0.80053   0.14157   0.02055   0.00000  Uiso   1.00
C112   C     0.86614   0.19177   0.31278   0.00000  Uiso   1.00
C113   C     0.80056   0.14162   0.30434   0.00000  Uiso   1.00
C114   C     0.86611   0.19171   0.02900   0.00000  Uiso   1.00
H115   H     0.77434   0.12153   0.28230   0.00000  Uiso   1.00
H116   H     0.89233   0.21180   0.05104   0.00000  Uiso   1.00
N117   N     0.90199   0.04194   0.11353   0.00000  Uiso   1.00
O118   O     0.93259   0.07032   0.13388   0.00000  Uiso   1.00
O119   O     0.90792   0.02970   0.07133   0.00000  Uiso   1.00
N120   N     0.76467   0.29139   0.21980   0.00000  Uiso   1.00
O121   O     0.73407   0.26301   0.19945   0.00000  Uiso   1.00
O122   O     0.75874   0.30363   0.26200   0.00000  Uiso   1.00
F123   F     0.89543   0.29004   0.11378   0.00000  Uiso   1.00
F124   F     0.77124   0.04330   0.21955   0.00000  Uiso   1.00
F125   F     0.76761   0.11620   0.03948   0.00000  Uiso   1.00
F126   F     0.89906   0.21714   0.29386   0.00000  Uiso   1.00
O127   O     0.16666   0.43989   0.20625   0.00000  Uiso   1.00
O128   O     0.16667   0.56011   0.12709   0.00000  Uiso   1.00
O129   O     0.16666   0.43988   0.12706   0.00000  Uiso   1.00
O130   O     0.16667   0.56012   0.20628   0.00000  Uiso   1.00
C131   C     0.16748   0.42079   0.16682   0.00000  Uiso   1.00
C132   C     0.16585   0.57921   0.16651   0.00000  Uiso   1.00
O133   O     0.09161   0.50000   0.19712   0.00000  Uiso   1.00
O134   O     0.24172   0.50000   0.13621   0.00000  Uiso   1.00
O135   O     0.09161   0.49999   0.11793   0.00000  Uiso   1.00
O136   O     0.24172   0.50001   0.21540   0.00000  Uiso   1.00
C137   C     0.06792   0.49992   0.15456   0.00000  Uiso   1.00
C138   C     0.26542   0.50008   0.17877   0.00000  Uiso   1.00
Cu139  Cu    0.16667   0.50001   0.21355   0.00000  Uiso   1.00
Cu140  Cu    0.16667   0.49999   0.11978   0.00000  Uiso   1.00
N141   N     0.16668   0.50001   0.28403   0.00000  Uiso   1.00
N142   N     0.16665   0.49999   0.04931   0.00000  Uiso   1.00
C143   C     0.01261   0.49993   0.14792   0.00000  Uiso   1.00
C144   C     0.32073   0.50007   0.18542   0.00000  Uiso   1.00
H145   H     0.32589   0.49982   0.11197   0.00000  Uiso   1.00
H146   H     0.00744   0.50018   0.22136   0.00000  Uiso   1.00
C147   C     0.19960   0.35438   0.13941   0.00000  Uiso   1.00
C148   C     0.13373   0.64562   0.19393   0.00000  Uiso   1.00
C149   C     0.19719   0.64481   0.13878   0.00000  Uiso   1.00
C150   C     0.13615   0.35519   0.19456   0.00000  Uiso   1.00
C151   C     0.16487   0.62384   0.16607   0.00000  Uiso   1.00
C152   C     0.16846   0.37616   0.16726   0.00000  Uiso   1.00
C153   C     0.13386   0.47490   0.02055   0.00000  Uiso   1.00
C154   C     0.19947   0.52510   0.31278   0.00000  Uiso   1.00
C155   C     0.13389   0.47496   0.30434   0.00000  Uiso   1.00
C156   C     0.19944   0.52504   0.02900   0.00000  Uiso   1.00
H157   H     0.10767   0.45486   0.28230   0.00000  Uiso   1.00
H158   H     0.22566   0.54514   0.05104   0.00000  Uiso   1.00
N159   N     0.23533   0.37528   0.11353   0.00000  Uiso   1.00
O160   O     0.26593   0.40365   0.13388   0.00000  Uiso   1.00
O161   O     0.24126   0.36303   0.07133   0.00000  Uiso   1.00
N162   N     0.09801   0.62472   0.21980   0.00000  Uiso   1.00
O163   O     0.06741   0.59635   0.19945   0.00000  Uiso   1.00
O164   O     0.09207   0.63697   0.26200   0.00000  Uiso   1.00
F165   F     0.22876   0.62337   0.11378   0.00000  Uiso   1.00
F166   F     0.10457   0.37663   0.21955   0.00000  Uiso   1.00
F167   F     0.10094   0.44953   0.03948   0.00000  Uiso   1.00
F168   F     0.23239   0.55047   0.29386   0.00000  Uiso   1.00
O169   O     0.50000   0.43989   0.20625   0.00000  Uiso   1.00
O170   O     0.50000   0.56011   0.12709   0.00000  Uiso   1.00
O171   O     0.50000   0.43988   0.12706   0.00000  Uiso   1.00
O172   O     0.50000   0.56012   0.20628   0.00000  Uiso   1.00
C173   C     0.50082   0.42079   0.16682   0.00000  Uiso   1.00
C174   C     0.49918   0.57921   0.16651   0.00000  Uiso   1.00
O175   O     0.42495   0.50000   0.19712   0.00000  Uiso   1.00
O176   O     0.57505   0.50000   0.13621   0.00000  Uiso   1.00
O177   O     0.42494   0.49999   0.11793   0.00000  Uiso   1.00
O178   O     0.57506   0.50001   0.21540   0.00000  Uiso   1.00
C179   C     0.40125   0.49992   0.15456   0.00000  Uiso   1.00
C180   C     0.59875   0.50008   0.17877   0.00000  Uiso   1.00
Cu181  Cu    0.50000   0.50001   0.21355   0.00000  Uiso   1.00
Cu182  Cu    0.50000   0.49999   0.11978   0.00000  Uiso   1.00
N183   N     0.50001   0.50001   0.28403   0.00000  Uiso   1.00
N184   N     0.49999   0.49999   0.04931   0.00000  Uiso   1.00
C185   C     0.34594   0.49993   0.14792   0.00000  Uiso   1.00
C186   C     0.65406   0.50007   0.18542   0.00000  Uiso   1.00
H187   H     0.65922   0.49982   0.11197   0.00000  Uiso   1.00
H188   H     0.34078   0.50018   0.22136   0.00000  Uiso   1.00
C189   C     0.53293   0.35438   0.13941   0.00000  Uiso   1.00
C190   C     0.46707   0.64562   0.19393   0.00000  Uiso   1.00
C191   C     0.53052   0.64481   0.13878   0.00000  Uiso   1.00
C192   C     0.46948   0.35519   0.19456   0.00000  Uiso   1.00
C193   C     0.49820   0.62384   0.16607   0.00000  Uiso   1.00
C194   C     0.50179   0.37616   0.16726   0.00000  Uiso   1.00
C195   C     0.46719   0.47490   0.02055   0.00000  Uiso   1.00
C196   C     0.53281   0.52510   0.31278   0.00000  Uiso   1.00
C197   C     0.46723   0.47496   0.30434   0.00000  Uiso   1.00
C198   C     0.53277   0.52504   0.02900   0.00000  Uiso   1.00
H199   H     0.44101   0.45486   0.28230   0.00000  Uiso   1.00
H200   H     0.55899   0.54514   0.05104   0.00000  Uiso   1.00
N201   N     0.56866   0.37528   0.11353   0.00000  Uiso   1.00
O202   O     0.59926   0.40365   0.13388   0.00000  Uiso   1.00
O203   O     0.57459   0.36303   0.07133   0.00000  Uiso   1.00
N204   N     0.43134   0.62472   0.21980   0.00000  Uiso   1.00
O205   O     0.40074   0.59635   0.19945   0.00000  Uiso   1.00
O206   O     0.42541   0.63697   0.26200   0.00000  Uiso   1.00
F207   F     0.56209   0.62337   0.11378   0.00000  Uiso   1.00
F208   F     0.43790   0.37663   0.21955   0.00000  Uiso   1.00
F209   F     0.43428   0.44953   0.03948   0.00000  Uiso   1.00
F210   F     0.56572   0.55047   0.29386   0.00000  Uiso   1.00
O211   O     0.83333   0.43989   0.20625   0.00000  Uiso   1.00
O212   O     0.83334   0.56011   0.12709   0.00000  Uiso   1.00
O213   O     0.83333   0.43988   0.12706   0.00000  Uiso   1.00
O214   O     0.83334   0.56012   0.20628   0.00000  Uiso   1.00
C215   C     0.83415   0.42079   0.16682   0.00000  Uiso   1.00
C216   C     0.83252   0.57921   0.16651   0.00000  Uiso   1.00
O217   O     0.75828   0.50000   0.19712   0.00000  Uiso   1.00
O218   O     0.90839   0.50000   0.13621   0.00000  Uiso   1.00
O219   O     0.75828   0.49999   0.11793   0.00000  Uiso   1.00
O220   O     0.90839   0.50001   0.21540   0.00000  Uiso   1.00
C221   C     0.73458   0.49992   0.15456   0.00000  Uiso   1.00
C222   C     0.93208   0.50008   0.17877   0.00000  Uiso   1.00
Cu223  Cu    0.83333   0.50001   0.21355   0.00000  Uiso   1.00
Cu224  Cu    0.83333   0.49999   0.11978   0.00000  Uiso   1.00
N225   N     0.83335   0.50001   0.28403   0.00000  Uiso   1.00
N226   N     0.83332   0.49999   0.04931   0.00000  Uiso   1.00
C227   C     0.67927   0.49993   0.14792   0.00000  Uiso   1.00
C228   C     0.98739   0.50007   0.18542   0.00000  Uiso   1.00
H229   H     0.99256   0.49982   0.11197   0.00000  Uiso   1.00
H230   H     0.67411   0.50018   0.22136   0.00000  Uiso   1.00
C231   C     0.86627   0.35438   0.13941   0.00000  Uiso   1.00
C232   C     0.80040   0.64562   0.19393   0.00000  Uiso   1.00
C233   C     0.86385   0.64481   0.13878   0.00000  Uiso   1.00
C234   C     0.80281   0.35519   0.19456   0.00000  Uiso   1.00
C235   C     0.83154   0.62384   0.16607   0.00000  Uiso   1.00
C236   C     0.83513   0.37616   0.16726   0.00000  Uiso   1.00
C237   C     0.80053   0.47490   0.02055   0.00000  Uiso   1.00
C238   C     0.86614   0.52510   0.31278   0.00000  Uiso   1.00
C239   C     0.80056   0.47496   0.30434   0.00000  Uiso   1.00
C240   C     0.86611   0.52504   0.02900   0.00000  Uiso   1.00
H241   H     0.77434   0.45486   0.28230   0.00000  Uiso   1.00
H242   H     0.89233   0.54514   0.05104   0.00000  Uiso   1.00
N243   N     0.90199   0.37528   0.11353   0.00000  Uiso   1.00
O244   O     0.93259   0.40365   0.13388   0.00000  Uiso   1.00
O245   O     0.90792   0.36303   0.07133   0.00000  Uiso   1.00
N246   N     0.76467   0.62472   0.21980   0.00000  Uiso   1.00
O247   O     0.73407   0.59635   0.19945   0.00000  Uiso   1.00
O248   O     0.75874   0.63697   0.26200   0.00000  Uiso   1.00
F249   F     0.89543   0.62337   0.11378   0.00000  Uiso   1.00
F250   F     0.77124   0.37663   0.21955   0.00000  Uiso   1.00
F251   F     0.76761   0.44953   0.03948   0.00000  Uiso   1.00
F252   F     0.89906   0.55047   0.29386   0.00000  Uiso   1.00
O253   O     0.16666   0.77322   0.20625   0.00000  Uiso   1.00
O254   O     0.16667   0.89345   0.12709   0.00000  Uiso   1.00
O255   O     0.16666   0.77321   0.12706   0.00000  Uiso   1.00
O256   O     0.16667   0.89346   0.20628   0.00000  Uiso   1.00
C257   C     0.16748   0.75412   0.16682   0.00000  Uiso   1.00
C258   C     0.16585   0.91255   0.16651   0.00000  Uiso   1.00
O259   O     0.09161   0.83334   0.19712   0.00000  Uiso   1.00
O260   O     0.24172   0.83333   0.13621   0.00000  Uiso   1.00
O261   O     0.09161   0.83333   0.11793   0.00000  Uiso   1.00
O262   O     0.24172   0.83334   0.21540   0.00000  Uiso   1.00
C263   C     0.06792   0.83325   0.15456   0.00000  Uiso   1.00
C264   C     0.26542   0.83342   0.17877   0.00000  Uiso   1.00
Cu265  Cu    0.16667   0.83334   0.21355   0.00000  Uiso   1.00
Cu266  Cu    0.16667   0.83333   0.11978   0.00000  Uiso   1.00
N267   N     0.16668   0.83334   0.28403   0.00000  Uiso   1.00
N268   N     0.16665   0.83332   0.04931   0.00000  Uiso   1.00
C269   C     0.01261   0.83326   0.14792   0.00000  Uiso   1.00
C270   C     0.32073   0.83341   0.18542   0.00000  Uiso   1.00
H271   H     0.32589   0.83316   0.11197   0.00000  Uiso   1.00
H272   H     0.00744   0.83351   0.22136   0.00000  Uiso   1.00
C273   C     0.19960   0.68771   0.13941   0.00000  Uiso   1.00
C274   C     0.13373   0.97895   0.19393   0.00000  Uiso   1.00
C275   C     0.19719   0.97815   0.13878   0.00000  Uiso   1.00
C276   C     0.13615   0.68852   0.19456   0.00000  Uiso   1.00
C277   C     0.16487   0.95717   0.16607   0.00000  Uiso   1.00
C278   C     0.16846   0.70949   0.16726   0.00000  Uiso   1.00
C279   C     0.13386   0.80823   0.02055   0.00000  Uiso   1.00
C280   C     0.19947   0.85843   0.31278   0.00000  Uiso   1.00
C281   C     0.13389   0.80829   0.30434   0.00000  Uiso   1.00
C282   C     0.19944   0.85838   0.02900   0.00000  Uiso   1.00
H283   H     0.10767   0.78820   0.28230   0.00000  Uiso   1.00
H284   H     0.22566   0.87847   0.05104   0.00000  Uiso   1.00
N285   N     0.23533   0.70861   0.11353   0.00000  Uiso   1.00
O286   O     0.26593   0.73699   0.13388   0.00000  Uiso   1.00
O287   O     0.24126   0.69637   0.07133   0.00000  Uiso   1.00
N288   N     0.09801   0.95806   0.21980   0.00000  Uiso   1.00
O289   O     0.06741   0.92968   0.19945   0.00000  Uiso   1.00
O290   O     0.09207   0.97030   0.26200   0.00000  Uiso   1.00
F291   F     0.22876   0.95670   0.11378   0.00000  Uiso   1.00
F292   F     0.10457   0.70996   0.21955   0.00000  Uiso   1.00
F293   F     0.10094   0.78286   0.03948   0.00000  Uiso   1.00
F294   F     0.23239   0.88380   0.29386   0.00000  Uiso   1.00
O295   O     0.50000   0.77322   0.20625   0.00000  Uiso   1.00
O296   O     0.50000   0.89345   0.12709   0.00000  Uiso   1.00
O297   O     0.50000   0.77321   0.12706   0.00000  Uiso   1.00
O298   O     0.50000   0.89346   0.20628   0.00000  Uiso   1.00
C299   C     0.50082   0.75412   0.16682   0.00000  Uiso   1.00
C300   C     0.49918   0.91255   0.16651   0.00000  Uiso   1.00
O301   O     0.42495   0.83334   0.19712   0.00000  Uiso   1.00
O302   O     0.57505   0.83333   0.13621   0.00000  Uiso   1.00
O303   O     0.42494   0.83333   0.11793   0.00000  Uiso   1.00
O304   O     0.57506   0.83334   0.21540   0.00000  Uiso   1.00
C305   C     0.40125   0.83325   0.15456   0.00000  Uiso   1.00
C306   C     0.59875   0.83342   0.17877   0.00000  Uiso   1.00
Cu307  Cu    0.50000   0.83334   0.21355   0.00000  Uiso   1.00
Cu308  Cu    0.50000   0.83333   0.11978   0.00000  Uiso   1.00
N309   N     0.50001   0.83334   0.28403   0.00000  Uiso   1.00
N310   N     0.49999   0.83332   0.04931   0.00000  Uiso   1.00
C311   C     0.34594   0.83326   0.14792   0.00000  Uiso   1.00
C312   C     0.65406   0.83341   0.18542   0.00000  Uiso   1.00
H313   H     0.65922   0.83316   0.11197   0.00000  Uiso   1.00
H314   H     0.34078   0.83351   0.22136   0.00000  Uiso   1.00
C315   C     0.53293   0.68771   0.13941   0.00000  Uiso   1.00
C316   C     0.46707   0.97895   0.19393   0.00000  Uiso   1.00
C317   C     0.53052   0.97815   0.13878   0.00000  Uiso   1.00
C318   C     0.46948   0.68852   0.19456   0.00000  Uiso   1.00
C319   C     0.49820   0.95717   0.16607   0.00000  Uiso   1.00
C320   C     0.50179   0.70949   0.16726   0.00000  Uiso   1.00
C321   C     0.46719   0.80823   0.02055   0.00000  Uiso   1.00
C322   C     0.53281   0.85843   0.31278   0.00000  Uiso   1.00
C323   C     0.46723   0.80829   0.30434   0.00000  Uiso   1.00
C324   C     0.53277   0.85838   0.02900   0.00000  Uiso   1.00
H325   H     0.44101   0.78820   0.28230   0.00000  Uiso   1.00
H326   H     0.55899   0.87847   0.05104   0.00000  Uiso   1.00
N327   N     0.56866   0.70861   0.11353   0.00000  Uiso   1.00
O328   O     0.59926   0.73699   0.13388   0.00000  Uiso   1.00
O329   O     0.57459   0.69637   0.07133   0.00000  Uiso   1.00
N330   N     0.43134   0.95806   0.21980   0.00000  Uiso   1.00
O331   O     0.40074   0.92968   0.19945   0.00000  Uiso   1.00
O332   O     0.42541   0.97030   0.26200   0.00000  Uiso   1.00
F333   F     0.56209   0.95670   0.11378   0.00000  Uiso   1.00
F334   F     0.43790   0.70996   0.21955   0.00000  Uiso   1.00
F335   F     0.43428   0.78286   0.03948   0.00000  Uiso   1.00
F336   F     0.56572   0.88380   0.29386   0.00000  Uiso   1.00
O337   O     0.83333   0.77322   0.20625   0.00000  Uiso   1.00
O338   O     0.83334   0.89345   0.12709   0.00000  Uiso   1.00
O339   O     0.83333   0.77321   0.12706   0.00000  Uiso   1.00
O340   O     0.83334   0.89346   0.20628   0.00000  Uiso   1.00
C341   C     0.83415   0.75412   0.16682   0.00000  Uiso   1.00
C342   C     0.83252   0.91255   0.16651   0.00000  Uiso   1.00
O343   O     0.75828   0.83334   0.19712   0.00000  Uiso   1.00
O344   O     0.90839   0.83333   0.13621   0.00000  Uiso   1.00
O345   O     0.75828   0.83333   0.11793   0.00000  Uiso   1.00
O346   O     0.90839   0.83334   0.21540   0.00000  Uiso   1.00
C347   C     0.73458   0.83325   0.15456   0.00000  Uiso   1.00
C348   C     0.93208   0.83342   0.17877   0.00000  Uiso   1.00
Cu349  Cu    0.83333   0.83334   0.21355   0.00000  Uiso   1.00
Cu350  Cu    0.83333   0.83333   0.11978   0.00000  Uiso   1.00
N351   N     0.83335   0.83334   0.28403   0.00000  Uiso   1.00
N352   N     0.83332   0.83332   0.04931   0.00000  Uiso   1.00
C353   C     0.67927   0.83326   0.14792   0.00000  Uiso   1.00
C354   C     0.98739   0.83341   0.18542   0.00000  Uiso   1.00
H355   H     0.99256   0.83316   0.11197   0.00000  Uiso   1.00
H356   H     0.67411   0.83351   0.22136   0.00000  Uiso   1.00
C357   C     0.86627   0.68771   0.13941   0.00000  Uiso   1.00
C358   C     0.80040   0.97895   0.19393   0.00000  Uiso   1.00
C359   C     0.86385   0.97815   0.13878   0.00000  Uiso   1.00
C360   C     0.80281   0.68852   0.19456   0.00000  Uiso   1.00
C361   C     0.83154   0.95717   0.16607   0.00000  Uiso   1.00
C362   C     0.83513   0.70949   0.16726   0.00000  Uiso   1.00
C363   C     0.80053   0.80823   0.02055   0.00000  Uiso   1.00
C364   C     0.86614   0.85843   0.31278   0.00000  Uiso   1.00
C365   C     0.80056   0.80829   0.30434   0.00000  Uiso   1.00
C366   C     0.86611   0.85838   0.02900   0.00000  Uiso   1.00
H367   H     0.77434   0.78820   0.28230   0.00000  Uiso   1.00
H368   H     0.89233   0.87847   0.05104   0.00000  Uiso   1.00
N369   N     0.90199   0.70861   0.11353   0.00000  Uiso   1.00
O370   O     0.93259   0.73699   0.13388   0.00000  Uiso   1.00
O371   O     0.90792   0.69637   0.07133   0.00000  Uiso   1.00
N372   N     0.76467   0.95806   0.21980   0.00000  Uiso   1.00
O373   O     0.73407   0.92968   0.19945   0.00000  Uiso   1.00
O374   O     0.75874   0.97030   0.26200   0.00000  Uiso   1.00
F375   F     0.89543   0.95670   0.11378   0.00000  Uiso   1.00
F376   F     0.77124   0.70996   0.21955   0.00000  Uiso   1.00
F377   F     0.76761   0.78286   0.03948   0.00000  Uiso   1.00
F378   F     0.89906   0.88380   0.29386   0.00000  Uiso   1.00
O379   O     0.16666   0.10655   0.53958   0.00000  Uiso   1.00
O380   O     0.16667   0.22678   0.46042   0.00000  Uiso   1.00
O381   O     0.16666   0.10654   0.46039   0.00000  Uiso   1.00
O382   O     0.16667   0.22679   0.53961   0.00000  Uiso   1.00
C383   C     0.16748   0.08745   0.50016   0.00000  Uiso   1.00
C384   C     0.16585   0.24588   0.49984   0.00000  Uiso   1.00
O385   O     0.09161   0.16667   0.53046   0.00000  Uiso   1.00
O386   O     0.24172   0.16666   0.46954   0.00000  Uiso   1.00
O387   O     0.09161   0.16666   0.45127   0.00000  Uiso   1.00
O388   O     0.24172   0.16667   0.54873   0.00000  Uiso   1.00
C389   C     0.06792   0.16658   0.48789   0.00000  Uiso   1.00
C390   C     0.26542   0.16675   0.51211   0.00000  Uiso   1.00
Cu391  Cu    0.16667   0.16667   0.54689   0.00000  Uiso   1.00
Cu392  Cu    0.16667   0.16666   0.45311   0.00000  Uiso   1.00
N393   N     0.16668   0.16668   0.61736   0.00000  Uiso   1.00
N394   N     0.16665   0.16666   0.38264   0.00000  Uiso   1.00
C395   C     0.01261   0.16659   0.48125   0.00000  Uiso   1.00
C396   C     0.32073   0.16674   0.51875   0.00000  Uiso   1.00
H397   H     0.32589   0.16649   0.44530   0.00000  Uiso   1.00
H398   H     0.00744   0.16684   0.55470   0.00000  Uiso   1.00
C399   C     0.19960   0.02105   0.47274   0.00000  Uiso   1.00
C400   C     0.13373   0.31229   0.52726   0.00000  Uiso   1.00
C401   C     0.19719   0.31148   0.47211   0.00000  Uiso   1.00
C402   C     0.13615   0.02185   0.52789   0.00000  Uiso   1.00
C403   C     0.16487   0.29051   0.49940   0.00000  Uiso   1.00
C404   C     0.16846   0.04283   0.50060   0.00000  Uiso   1.00
C405   C     0.13386   0.14157   0.35389   0.00000  Uiso   1.00
C406   C     0.19947   0.19177   0.64611   0.00000  Uiso   1.00
C407   C     0.13389   0.14162   0.63767   0.00000  Uiso   1.00
C408   C     0.19944   0.19171   0.36233   0.00000  Uiso   1.00
H409   H     0.10767   0.12153   0.61563   0.00000  Uiso   1.00
H410   H     0.22566   0.21180   0.38437   0.00000  Uiso   1.00
N411   N     0.23533   0.04194   0.44686   0.00000  Uiso   1.00
O412   O     0.26593   0.07032   0.46722   0.00000  Uiso   1.00
O413   O     0.24126   0.02970   0.40466   0.00000  Uiso   1.00
N414   N     0.09801   0.29139   0.55314   0.00000  Uiso   1.00
O415   O     0.06741   0.26301   0.53278   0.00000  Uiso   1.00
O416   O     0.09207   0.30363   0.59534   0.00000  Uiso   1.00
F417   F     0.22876   0.29004   0.44711   0.00000  Uiso   1.00
F418   F     0.10457   0.04330   0.55289   0.00000  Uiso   1.00
F419   F     0.10094   0.11620   0.37281   0.00000  Uiso   1.00
F420   F     0.23239   0.21714   0.62719   0.00000  Uiso   1.00
O421   O     0.50000   0.10655   0.53958   0.00000  Uiso   1.00
O422   O     0.50000   0.22678   0.46042   0.00000  Uiso   1.00
O423   O     0.50000   0.10654   0.46039   0.00000  Uiso   1.00
O424   O     0.50000   0.22679   0.53961   0.00000  Uiso   1.00
C425   C     0.50082   0.08745   0.50016   0.00000  Uiso   1.00
C426   C     0.49918   0.24588   0.49984   0.00000  Uiso   1.00
O427   O     0.42495   0.16667   0.53046   0.00000  Uiso   1.00
O428   O     0.57505   0.16666   0.46954   0.00000  Uiso   1.00
O429   O     0.42494   0.16666   0.45127   0.00000  Uiso   1.00
O430   O     0.57506   0.16667   0.54873   0.00000  Uiso   1.00
C431   C     0.40125   0.16658   0.48789   0.00000  Uiso   1.00
C432   C     0.59875   0.16675   0.51211   0.00000  Uiso   1.00
Cu433  Cu    0.50000   0.16667   0.54689   0.00000  Uiso   1.00
Cu434  Cu    0.50000   0.16666   0.45311   0.00000  Uiso   1.00
N435   N     0.50001   0.16668   0.61736   0.00000  Uiso   1.00
N436   N     0.49999   0.16666   0.38264   0.00000  Uiso   1.00
C437   C     0.34594   0.16659   0.48125   0.00000  Uiso   1.00
C438   C     0.65406   0.16674   0.51875   0.00000  Uiso   1.00
H439   H     0.65922   0.16649   0.44530   0.00000  Uiso   1.00
H440   H     0.34078   0.16684   0.55470   0.00000  Uiso   1.00
C441   C     0.53293   0.02105   0.47274   0.00000  Uiso   1.00
C442   C     0.46707   0.31229   0.52726   0.00000  Uiso   1.00
C443   C     0.53052   0.31148   0.47211   0.00000  Uiso   1.00
C444   C     0.46948   0.02185   0.52789   0.00000  Uiso   1.00
C445   C     0.49820   0.29051   0.49940   0.00000  Uiso   1.00
C446   C     0.50179   0.04283   0.50060   0.00000  Uiso   1.00
C447   C     0.46719   0.14157   0.35389   0.00000  Uiso   1.00
C448   C     0.53281   0.19177   0.64611   0.00000  Uiso   1.00
C449   C     0.46723   0.14162   0.63767   0.00000  Uiso   1.00
C450   C     0.53277   0.19171   0.36233   0.00000  Uiso   1.00
H451   H     0.44101   0.12153   0.61563   0.00000  Uiso   1.00
H452   H     0.55899   0.21180   0.38437   0.00000  Uiso   1.00
N453   N     0.56866   0.04194   0.44686   0.00000  Uiso   1.00
O454   O     0.59926   0.07032   0.46722   0.00000  Uiso   1.00
O455   O     0.57459   0.02970   0.40466   0.00000  Uiso   1.00
N456   N     0.43134   0.29139   0.55314   0.00000  Uiso   1.00
O457   O     0.40074   0.26301   0.53278   0.00000  Uiso   1.00
O458   O     0.42541   0.30363   0.59534   0.00000  Uiso   1.00
F459   F     0.56209   0.29004   0.44711   0.00000  Uiso   1.00
F460   F     0.43790   0.04330   0.55289   0.00000  Uiso   1.00
F461   F     0.43428   0.11620   0.37281   0.00000  Uiso   1.00
F462   F     0.56572   0.21714   0.62719   0.00000  Uiso   1.00
O463   O     0.83333   0.10655   0.53958   0.00000  Uiso   1.00
O464   O     0.83334   0.22678   0.46042   0.00000  Uiso   1.00
O465   O     0.83333   0.10654   0.46039   0.00000  Uiso   1.00
O466   O     0.83334   0.22679   0.53961   0.00000  Uiso   1.00
C467   C     0.83415   0.08745   0.50016   0.00000  Uiso   1.00
C468   C     0.83252   0.24588   0.49984   0.00000  Uiso   1.00
O469   O     0.75828   0.16667   0.53046   0.00000  Uiso   1.00
O470   O     0.90839   0.16666   0.46954   0.00000  Uiso   1.00
O471   O     0.75828   0.16666   0.45127   0.00000  Uiso   1.00
O472   O     0.90839   0.16667   0.54873   0.00000  Uiso   1.00
C473   C     0.73458   0.16658   0.48789   0.00000  Uiso   1.00
C474   C     0.93208   0.16675   0.51211   0.00000  Uiso   1.00
Cu475  Cu    0.83333   0.16667   0.54689   0.00000  Uiso   1.00
Cu476  Cu    0.83333   0.16666   0.45311   0.00000  Uiso   1.00
N477   N     0.83335   0.16668   0.61736   0.00000  Uiso   1.00
N478   N     0.83332   0.16666   0.38264   0.00000  Uiso   1.00
C479   C     0.67927   0.16659   0.48125   0.00000  Uiso   1.00
C480   C     0.98739   0.16674   0.51875   0.00000  Uiso   1.00
H481   H     0.99256   0.16649   0.44530   0.00000  Uiso   1.00
H482   H     0.67411   0.16684   0.55470   0.00000  Uiso   1.00
C483   C     0.86627   0.02105   0.47274   0.00000  Uiso   1.00
C484   C     0.80040   0.31229   0.52726   0.00000  Uiso   1.00
C485   C     0.86385   0.31148   0.47211   0.00000  Uiso   1.00
C486   C     0.80281   0.02185   0.52789   0.00000  Uiso   1.00
C487   C     0.83154   0.29051   0.49940   0.00000  Uiso   1.00
C488   C     0.83513   0.04283   0.50060   0.00000  Uiso   1.00
C489   C     0.80053   0.14157   0.35389   0.00000  Uiso   1.00
C490   C     0.86614   0.19177   0.64611   0.00000  Uiso   1.00
C491   C     0.80056   0.14162   0.63767   0.00000  Uiso   1.00
C492   C     0.86611   0.19171   0.36233   0.00000  Uiso   1.00
H493   H     0.77434   0.12153   0.61563   0.00000  Uiso   1.00
H494   H     0.89233   0.21180   0.38437   0.00000  Uiso   1.00
N495   N     0.90199   0.04194   0.44686   0.00000  Uiso   1.00
O496   O     0.93259   0.07032   0.46722   0.00000  Uiso   1.00
O497   O     0.90792   0.02970   0.40466   0.00000  Uiso   1.00
N498   N     0.76467   0.29139   0.55314   0.00000  Uiso   1.00
O499   O     0.73407   0.26301   0.53278   0.00000  Uiso   1.00
O500   O     0.75874   0.30363   0.59534   0.00000  Uiso   1.00
F501   F     0.89543   0.29004   0.44711   0.00000  Uiso   1.00
F502   F     0.77124   0.04330   0.55289   0.00000  Uiso   1.00
F503   F     0.76761   0.11620   0.37281   0.00000  Uiso   1.00
F504   F     0.89906   0.21714   0.62719   0.00000  Uiso   1.00
O505   O     0.16666   0.43989   0.53958   0.00000  Uiso   1.00
O506   O     0.16667   0.56011   0.46042   0.00000  Uiso   1.00
O507   O     0.16666   0.43988   0.46039   0.00000  Uiso   1.00
O508   O     0.16667   0.56012   0.53961   0.00000  Uiso   1.00
C509   C     0.16748   0.42079   0.50016   0.00000  Uiso   1.00
C510   C     0.16585   0.57921   0.49984   0.00000  Uiso   1.00
O511   O     0.09161   0.50000   0.53046   0.00000  Uiso   1.00
O512   O     0.24172   0.50000   0.46954   0.00000  Uiso   1.00
O513   O     0.09161   0.49999   0.45127   0.00000  Uiso   1.00
O514   O     0.24172   0.50001   0.54873   0.00000  Uiso   1.00
C515   C     0.06792   0.49992   0.48789   0.00000  Uiso   1.00
C516   C     0.26542   0.50008   0.51211   0.00000  Uiso   1.00
Cu517  Cu    0.16667   0.50001   0.54689   0.00000  Uiso   1.00
Cu518  Cu    0.16667   0.49999   0.45311   0.00000  Uiso   1.00
N519   N     0.16668   0.50001   0.61736   0.00000  Uiso   1.00
N520   N     0.16665   0.49999   0.38264   0.00000  Uiso   1.00
C521   C     0.01261   0.49993   0.48125   0.00000  Uiso   1.00
C522   C     0.32073   0.50007   0.51875   0.00000  Uiso   1.00
H523   H     0.32589   0.49982   0.44530   0.00000  Uiso   1.00
H524   H     0.00744   0.50018   0.55470   0.00000  Uiso   1.00
C525   C     0.19960   0.35438   0.47274   0.00000  Uiso   1.00
C526   C     0.13373   0.64562   0.52726   0.00000  Uiso   1.00
C527   C     0.19719   0.64481   0.47211   0.00000  Uiso   1.00
C528   C     0.13615   0.35519   0.52789   0.00000  Uiso   1.00
C529   C     0.16487   0.62384   0.49940   0.00000  Uiso   1.00
C530   C     0.16846   0.37616   0.50060   0.00000  Uiso   1.00
C531   C     0.13386   0.47490   0.35389   0.00000  Uiso   1.00
C532   C     0.19947   0.52510   0.64611   0.00000  Uiso   1.00
C533   C     0.13389   0.47496   0.63767   0.00000  Uiso   1.00
C534   C     0.19944   0.52504   0.36233   0.00000  Uiso   1.00
H535   H     0.10767   0.45486   0.61563   0.00000  Uiso   1.00
H536   H     0.22566   0.54514   0.38437   0.00000  Uiso   1.00
N537   N     0.23533   0.37528   0.44686   0.00000  Uiso   1.00
O538   O     0.26593   0.40365   0.46722   0.00000  Uiso   1.00
O539   O     0.24126   0.36303   0.40466   0.00000  Uiso   1.00
N540   N     0.09801   0.62472   0.55314   0.00000  Uiso   1.00
O541   O     0.06741   0.59635   0.53278   0.00000  Uiso   1.00
O542   O     0.09207   0.63697   0.59534   0.00000  Uiso   1.00
F543   F     0.22876   0.62337   0.44711   0.00000  Uiso   1.00
F544   F     0.10457   0.37663   0.55289   0.00000  Uiso   1.00
F545   F     0.10094   0.44953   0.37281   0.00000  Uiso   1.00
F546   F     0.23239   0.55047   0.62719   0.00000  Uiso   1.00
O547   O     0.50000   0.43989   0.53958   0.00000  Uiso   1.00
O548   O     0.50000   0.56011   0.46042   0.00000  Uiso   1.00
O549   O     0.50000   0.43988   0.46039   0.00000  Uiso   1.00
O550   O     0.50000   0.56012   0.53961   0.00000  Uiso   1.00
C551   C     0.50082   0.42079   0.50016   0.00000  Uiso   1.00
C552   C     0.49918   0.57921   0.49984   0.00000  Uiso   1.00
O553   O     0.42495   0.50000   0.53046   0.00000  Uiso   1.00
O554   O     0.57505   0.50000   0.46954   0.00000  Uiso   1.00
O555   O     0.42494   0.49999   0.45127   0.00000  Uiso   1.00
O556   O     0.57506   0.50001   0.54873   0.00000  Uiso   1.00
C557   C     0.40125   0.49992   0.48789   0.00000  Uiso   1.00
C558   C     0.59875   0.50008   0.51211   0.00000  Uiso   1.00
Cu559  Cu    0.50000   0.50001   0.54689   0.00000  Uiso   1.00
Cu560  Cu    0.50000   0.49999   0.45311   0.00000  Uiso   1.00
N561   N     0.50001   0.50001   0.61736   0.00000  Uiso   1.00
N562   N     0.49999   0.49999   0.38264   0.00000  Uiso   1.00
C563   C     0.34594   0.49993   0.48125   0.00000  Uiso   1.00
C564   C     0.65406   0.50007   0.51875   0.00000  Uiso   1.00
H565   H     0.65922   0.49982   0.44530   0.00000  Uiso   1.00
H566   H     0.34078   0.50018   0.55470   0.00000  Uiso   1.00
C567   C     0.53293   0.35438   0.47274   0.00000  Uiso   1.00
C568   C     0.46707   0.64562   0.52726   0.00000  Uiso   1.00
C569   C     0.53052   0.64481   0.47211   0.00000  Uiso   1.00
C570   C     0.46948   0.35519   0.52789   0.00000  Uiso   1.00
C571   C     0.49820   0.62384   0.49940   0.00000  Uiso   1.00
C572   C     0.50179   0.37616   0.50060   0.00000  Uiso   1.00
C573   C     0.46719   0.47490   0.35389   0.00000  Uiso   1.00
C574   C     0.53281   0.52510   0.64611   0.00000  Uiso   1.00
C575   C     0.46723   0.47496   0.63767   0.00000  Uiso   1.00
C576   C     0.53277   0.52504   0.36233   0.00000  Uiso   1.00
H577   H     0.44101   0.45486   0.61563   0.00000  Uiso   1.00
H578   H     0.55899   0.54514   0.38437   0.00000  Uiso   1.00
N579   N     0.56866   0.37528   0.44686   0.00000  Uiso   1.00
O580   O     0.59926   0.40365   0.46722   0.00000  Uiso   1.00
O581   O     0.57459   0.36303   0.40466   0.00000  Uiso   1.00
N582   N     0.43134   0.62472   0.55314   0.00000  Uiso   1.00
O583   O     0.40074   0.59635   0.53278   0.00000  Uiso   1.00
O584   O     0.42541   0.63697   0.59534   0.00000  Uiso   1.00
F585   F     0.56209   0.62337   0.44711   0.00000  Uiso   1.00
F586   F     0.43790   0.37663   0.55289   0.00000  Uiso   1.00
F587   F     0.43428   0.44953   0.37281   0.00000  Uiso   1.00
F588   F     0.56572   0.55047   0.62719   0.00000  Uiso   1.00
O589   O     0.83333   0.43989   0.53958   0.00000  Uiso   1.00
O590   O     0.83334   0.56011   0.46042   0.00000  Uiso   1.00
O591   O     0.83333   0.43988   0.46039   0.00000  Uiso   1.00
O592   O     0.83334   0.56012   0.53961   0.00000  Uiso   1.00
C593   C     0.83415   0.42079   0.50016   0.00000  Uiso   1.00
C594   C     0.83252   0.57921   0.49984   0.00000  Uiso   1.00
O595   O     0.75828   0.50000   0.53046   0.00000  Uiso   1.00
O596   O     0.90839   0.50000   0.46954   0.00000  Uiso   1.00
O597   O     0.75828   0.49999   0.45127   0.00000  Uiso   1.00
O598   O     0.90839   0.50001   0.54873   0.00000  Uiso   1.00
C599   C     0.73458   0.49992   0.48789   0.00000  Uiso   1.00
C600   C     0.93208   0.50008   0.51211   0.00000  Uiso   1.00
Cu601  Cu    0.83333   0.50001   0.54689   0.00000  Uiso   1.00
Cu602  Cu    0.83333   0.49999   0.45311   0.00000  Uiso   1.00
N603   N     0.83335   0.50001   0.61736   0.00000  Uiso   1.00
N604   N     0.83332   0.49999   0.38264   0.00000  Uiso   1.00
C605   C     0.67927   0.49993   0.48125   0.00000  Uiso   1.00
C606   C     0.98739   0.50007   0.51875   0.00000  Uiso   1.00
H607   H     0.99256   0.49982   0.44530   0.00000  Uiso   1.00
H608   H     0.67411   0.50018   0.55470   0.00000  Uiso   1.00
C609   C     0.86627   0.35438   0.47274   0.00000  Uiso   1.00
C610   C     0.80040   0.64562   0.52726   0.00000  Uiso   1.00
C611   C     0.86385   0.64481   0.47211   0.00000  Uiso   1.00
C612   C     0.80281   0.35519   0.52789   0.00000  Uiso   1.00
C613   C     0.83154   0.62384   0.49940   0.00000  Uiso   1.00
C614   C     0.83513   0.37616   0.50060   0.00000  Uiso   1.00
C615   C     0.80053   0.47490   0.35389   0.00000  Uiso   1.00
C616   C     0.86614   0.52510   0.64611   0.00000  Uiso   1.00
C617   C     0.80056   0.47496   0.63767   0.00000  Uiso   1.00
C618   C     0.86611   0.52504   0.36233   0.00000  Uiso   1.00
H619   H     0.77434   0.45486   0.61563   0.00000  Uiso   1.00
H620   H     0.89233   0.54514   0.38437   0.00000  Uiso   1.00
N621   N     0.90199   0.37528   0.44686   0.00000  Uiso   1.00
O622   O     0.93259   0.40365   0.46722   0.00000  Uiso   1.00
O623   O     0.90792   0.36303   0.40466   0.00000  Uiso   1.00
N624   N     0.76467   0.62472   0.55314   0.00000  Uiso   1.00
O625   O     0.73407   0.59635   0.53278   0.00000  Uiso   1.00
O626   O     0.75874   0.63697   0.59534   0.00000  Uiso   1.00
F627   F     0.89543   0.62337   0.44711   0.00000  Uiso   1.00
F628   F     0.77124   0.37663   0.55289   0.00000  Uiso   1.00
F629   F     0.76761   0.44953   0.37281   0.00000  Uiso   1.00
F630   F     0.89906   0.55047   0.62719   0.00000  Uiso   1.00
O631   O     0.16666   0.77322   0.53958   0.00000  Uiso   1.00
O632   O     0.16667   0.89345   0.46042   0.00000  Uiso   1.00
O633   O     0.16666   0.77321   0.46039   0.00000  Uiso   1.00
O634   O     0.16667   0.89346   0.53961   0.00000  Uiso   1.00
C635   C     0.16748   0.75412   0.50016   0.00000  Uiso   1.00
C636   C     0.16585   0.91255   0.49984   0.00000  Uiso   1.00
O637   O     0.09161   0.83334   0.53046   0.00000  Uiso   1.00
O638   O     0.24172   0.83333   0.46954   0.00000  Uiso   1.00
O639   O     0.09161   0.83333   0.45127   0.00000  Uiso   1.00
O640   O     0.24172   0.83334   0.54873   0.00000  Uiso   1.00
C641   C     0.06792   0.83325   0.48789   0.00000  Uiso   1.00
C642   C     0.26542   0.83342   0.51211   0.00000  Uiso   1.00
Cu643  Cu    0.16667   0.83334   0.54689   0.00000  Uiso   1.00
Cu644  Cu    0.16667   0.83333   0.45311   0.00000  Uiso   1.00
N645   N     0.16668   0.83334   0.61736   0.00000  Uiso   1.00
N646   N     0.16665   0.83332   0.38264   0.00000  Uiso   1.00
C647   C     0.01261   0.83326   0.48125   0.00000  Uiso   1.00
C648   C     0.32073   0.83341   0.51875   0.00000  Uiso   1.00
H649   H     0.32589   0.83316   0.44530   0.00000  Uiso   1.00
H650   H     0.00744   0.83351   0.55470   0.00000  Uiso   1.00
C651   C     0.19960   0.68771   0.47274   0.00000  Uiso   1.00
C652   C     0.13373   0.97895   0.52726   0.00000  Uiso   1.00
C653   C     0.19719   0.97815   0.47211   0.00000  Uiso   1.00
C654   C     0.13615   0.68852   0.52789   0.00000  Uiso   1.00
C655   C     0.16487   0.95717   0.49940   0.00000  Uiso   1.00
C656   C     0.16846   0.70949   0.50060   0.00000  Uiso   1.00
C657   C     0.13386   0.80823   0.35389   0.00000  Uiso   1.00
C658   C     0.19947   0.85843   0.64611   0.00000  Uiso   1.00
C659   C     0.13389   0.80829   0.63767   0.00000  Uiso   1.00
C660   C     0.19944   0.85838   0.36233   0.00000  Uiso   1.00
H661   H     0.10767   0.78820   0.61563   0.00000  Uiso   1.00
H662   H     0.22566   0.87847   0.38437   0.00000  Uiso   1.00
N663   N     0.23533   0.70861   0.44686   0.00000  Uiso   1.00
O664   O     0.26593   0.73699   0.46722   0.00000  Uiso   1.00
O665   O     0.24126   0.69637   0.40466   0.00000  Uiso   1.00
N666   N     0.09801   0.95806   0.55314   0.00000  Uiso   1.00
O667   O     0.06741   0.92968   0.53278   0.00000  Uiso   1.00
O668   O     0.09207   0.97030   0.59534   0.00000  Uiso   1.00
F669   F     0.22876   0.95670   0.44711   0.00000  Uiso   1.00
F670   F     0.10457   0.70996   0.55289   0.00000  Uiso   1.00
F671   F     0.10094   0.78286   0.37281   0.00000  Uiso   1.00
F672   F     0.23239   0.88380   0.62719   0.00000  Uiso   1.00
O673   O     0.50000   0.77322   0.53958   0.00000  Uiso   1.00
O674   O     0.50000   0.89345   0.46042   0.00000  Uiso   1.00
O675   O     0.50000   0.77321   0.46039   0.00000  Uiso   1.00
O676   O     0.50000   0.89346   0.53961   0.00000  Uiso   1.00
C677   C     0.50082   0.75412   0.50016   0.00000  Uiso   1.00
C678   C     0.49918   0.91255   0.49984   0.00000  Uiso   1.00
O679   O     0.42495   0.83334   0.53046   0.00000  Uiso   1.00
O680   O     0.57505   0.83333   0.46954   0.00000  Uiso   1.00
O681   O     0.42494   0.83333   0.45127   0.00000  Uiso   1.00
O682   O     0.57506   0.83334   0.54873   0.00000  Uiso   1.00
C683   C     0.40125   0.83325   0.48789   0.00000  Uiso   1.00
C684   C     0.59875   0.83342   0.51211   0.00000  Uiso   1.00
Cu685  Cu    0.50000   0.83334   0.54689   0.00000  Uiso   1.00
Cu686  Cu    0.50000   0.83333   0.45311   0.00000  Uiso   1.00
N687   N     0.50001   0.83334   0.61736   0.00000  Uiso   1.00
N688   N     0.49999   0.83332   0.38264   0.00000  Uiso   1.00
C689   C     0.34594   0.83326   0.48125   0.00000  Uiso   1.00
C690   C     0.65406   0.83341   0.51875   0.00000  Uiso   1.00
H691   H     0.65922   0.83316   0.44530   0.00000  Uiso   1.00
H692   H     0.34078   0.83351   0.55470   0.00000  Uiso   1.00
C693   C     0.53293   0.68771   0.47274   0.00000  Uiso   1.00
C694   C     0.46707   0.97895   0.52726   0.00000  Uiso   1.00
C695   C     0.53052   0.97815   0.47211   0.00000  Uiso   1.00
C696   C     0.46948   0.68852   0.52789   0.00000  Uiso   1.00
C697   C     0.49820   0.95717   0.49940   0.00000  Uiso   1.00
C698   C     0.50179   0.70949   0.50060   0.00000  Uiso   1.00
C699   C     0.46719   0.80823   0.35389   0.00000  Uiso   1.00
C700   C     0.53281   0.85843   0.64611   0.00000  Uiso   1.00
C701   C     0.46723   0.80829   0.63767   0.00000  Uiso   1.00
C702   C     0.53277   0.85838   0.36233   0.00000  Uiso   1.00
H703   H     0.44101   0.78820   0.61563   0.00000  Uiso   1.00
H704   H     0.55899   0.87847   0.38437   0.00000  Uiso   1.00
N705   N     0.56866   0.70861   0.44686   0.00000  Uiso   1.00
O706   O     0.59926   0.73699   0.46722   0.00000  Uiso   1.00
O707   O     0.57459   0.69637   0.40466   0.00000  Uiso   1.00
N708   N     0.43134   0.95806   0.55314   0.00000  Uiso   1.00
O709   O     0.40074   0.92968   0.53278   0.00000  Uiso   1.00
O710   O     0.42541   0.97030   0.59534   0.00000  Uiso   1.00
F711   F     0.56209   0.95670   0.44711   0.00000  Uiso   1.00
F712   F     0.43790   0.70996   0.55289   0.00000  Uiso   1.00
F713   F     0.43428   0.78286   0.37281   0.00000  Uiso   1.00
F714   F     0.56572   0.88380   0.62719   0.00000  Uiso   1.00
O715   O     0.83333   0.77322   0.53958   0.00000  Uiso   1.00
O716   O     0.83334   0.89345   0.46042   0.00000  Uiso   1.00
O717   O     0.83333   0.77321   0.46039   0.00000  Uiso   1.00
O718   O     0.83334   0.89346   0.53961   0.00000  Uiso   1.00
C719   C     0.83415   0.75412   0.50016   0.00000  Uiso   1.00
C720   C     0.83252   0.91255   0.49984   0.00000  Uiso   1.00
O721   O     0.75828   0.83334   0.53046   0.00000  Uiso   1.00
O722   O     0.90839   0.83333   0.46954   0.00000  Uiso   1.00
O723   O     0.75828   0.83333   0.45127   0.00000  Uiso   1.00
O724   O     0.90839   0.83334   0.54873   0.00000  Uiso   1.00
C725   C     0.73458   0.83325   0.48789   0.00000  Uiso   1.00
C726   C     0.93208   0.83342   0.51211   0.00000  Uiso   1.00
Cu727  Cu    0.83333   0.83334   0.54689   0.00000  Uiso   1.00
Cu728  Cu    0.83333   0.83333   0.45311   0.00000  Uiso   1.00
N729   N     0.83335   0.83334   0.61736   0.00000  Uiso   1.00
N730   N     0.83332   0.83332   0.38264   0.00000  Uiso   1.00
C731   C     0.67927   0.83326   0.48125   0.00000  Uiso   1.00
C732   C     0.98739   0.83341   0.51875   0.00000  Uiso   1.00
H733   H     0.99256   0.83316   0.44530   0.00000  Uiso   1.00
H734   H     0.67411   0.83351   0.55470   0.00000  Uiso   1.00
C735   C     0.86627   0.68771   0.47274   0.00000  Uiso   1.00
C736   C     0.80040   0.97895   0.52726   0.00000  Uiso   1.00
C737   C     0.86385   0.97815   0.47211   0.00000  Uiso   1.00
C738   C     0.80281   0.68852   0.52789   0.00000  Uiso   1.00
C739   C     0.83154   0.95717   0.49940   0.00000  Uiso   1.00
C740   C     0.83513   0.70949   0.50060   0.00000  Uiso   1.00
C741   C     0.80053   0.80823   0.35389   0.00000  Uiso   1.00
C742   C     0.86614   0.85843   0.64611   0.00000  Uiso   1.00
C743   C     0.80056   0.80829   0.63767   0.00000  Uiso   1.00
C744   C     0.86611   0.85838   0.36233   0.00000  Uiso   1.00
H745   H     0.77434   0.78820   0.61563   0.00000  Uiso   1.00
H746   H     0.89233   0.87847   0.38437   0.00000  Uiso   1.00
N747   N     0.90199   0.70861   0.44686   0.00000  Uiso   1.00
O748   O     0.93259   0.73699   0.46722   0.00000  Uiso   1.00
O749   O     0.90792   0.69637   0.40466   0.00000  Uiso   1.00
N750   N     0.76467   0.95806   0.55314   0.00000  Uiso   1.00
O751   O     0.73407   0.92968   0.53278   0.00000  Uiso   1.00
O752   O     0.75874   0.97030   0.59534   0.00000  Uiso   1.00
F753   F     0.89543   0.95670   0.44711   0.00000  Uiso   1.00
F754   F     0.77124   0.70996   0.55289   0.00000  Uiso   1.00
F755   F     0.76761   0.78286   0.37281   0.00000  Uiso   1.00
F756   F     0.89906   0.88380   0.62719   0.00000  Uiso   1.00
O757   O     0.16666   0.10655   0.87291   0.00000  Uiso   1.00
O758   O     0.16667   0.22678   0.79375   0.00000  Uiso   1.00
O759   O     0.16666   0.10654   0.79372   0.00000  Uiso   1.00
O760   O     0.16667   0.22679   0.87294   0.00000  Uiso   1.00
C761   C     0.16748   0.08745   0.83349   0.00000  Uiso   1.00
C762   C     0.16585   0.24588   0.83318   0.00000  Uiso   1.00
O763   O     0.09161   0.16667   0.86379   0.00000  Uiso   1.00
O764   O     0.24172   0.16666   0.80288   0.00000  Uiso   1.00
O765   O     0.09161   0.16666   0.78460   0.00000  Uiso   1.00
O766   O     0.24172   0.16667   0.88207   0.00000  Uiso   1.00
C767   C     0.06792   0.16658   0.82123   0.00000  Uiso   1.00
C768   C     0.26542   0.16675   0.84544   0.00000  Uiso   1.00
Cu769  Cu    0.16667   0.16667   0.88022   0.00000  Uiso   1.00
Cu770  Cu    0.16667   0.16666   0.78645   0.00000  Uiso   1.00
N771   N     0.16668   0.16668   0.95069   0.00000  Uiso   1.00
N772   N     0.16665   0.16666   0.71597   0.00000  Uiso   1.00
C773   C     0.01261   0.16659   0.81458   0.00000  Uiso   1.00
C774   C     0.32073   0.16674   0.85208   0.00000  Uiso   1.00
H775   H     0.32589   0.16649   0.77864   0.00000  Uiso   1.00
H776   H     0.00744   0.16684   0.88803   0.00000  Uiso   1.00
C777   C     0.19960   0.02105   0.80607   0.00000  Uiso   1.00
C778   C     0.13373   0.31229   0.86059   0.00000  Uiso   1.00
C779   C     0.19719   0.31148   0.80544   0.00000  Uiso   1.00
C780   C     0.13615   0.02185   0.86122   0.00000  Uiso   1.00
C781   C     0.16487   0.29051   0.83274   0.00000  Uiso   1.00
C782   C     0.16846   0.04283   0.83393   0.00000  Uiso   1.00
C783   C     0.13386   0.14157   0.68722   0.00000  Uiso   1.00
C784   C     0.19947   0.19177   0.97945   0.00000  Uiso   1.00
C785   C     0.13389   0.14162   0.97100   0.00000  Uiso   1.00
C786   C     0.19944   0.19171   0.69566   0.00000  Uiso   1.00
H787   H     0.10767   0.12153   0.94896   0.00000  Uiso   1.00
H788   H     0.22566   0.21180   0.71770   0.00000  Uiso   1.00
N789   N     0.23533   0.04194   0.78020   0.00000  Uiso   1.00
O790   O     0.26593   0.07032   0.80055   0.00000  Uiso   1.00
O791   O     0.24126   0.02970   0.73799   0.00000  Uiso   1.00
N792   N     0.09801   0.29139   0.88647   0.00000  Uiso   1.00
O793   O     0.06741   0.26301   0.86612   0.00000  Uiso   1.00
O794   O     0.09207   0.30363   0.92867   0.00000  Uiso   1.00
F795   F     0.22876   0.29004   0.78045   0.00000  Uiso   1.00
F796   F     0.10457   0.04330   0.88622   0.00000  Uiso   1.00
F797   F     0.10094   0.11620   0.70614   0.00000  Uiso   1.00
F798   F     0.23239   0.21714   0.96052   0.00000  Uiso   1.00
O799   O     0.50000   0.10655   0.87291   0.00000  Uiso   1.00
O800   O     0.50000   0.22678   0.79375   0.00000  Uiso   1.00
O801   O     0.50000   0.10654   0.79372   0.00000  Uiso   1.00
O802   O     0.50000   0.22679   0.87294   0.00000  Uiso   1.00
C803   C     0.50082   0.08745   0.83349   0.00000  Uiso   1.00
C804   C     0.49918   0.24588   0.83318   0.00000  Uiso   1.00
O805   O     0.42495   0.16667   0.86379   0.00000  Uiso   1.00
O806   O     0.57505   0.16666   0.80288   0.00000  Uiso   1.00
O807   O     0.42494   0.16666   0.78460   0.00000  Uiso   1.00
O808   O     0.57506   0.16667   0.88207   0.00000  Uiso   1.00
C809   C     0.40125   0.16658   0.82123   0.00000  Uiso   1.00
C810   C     0.59875   0.16675   0.84544   0.00000  Uiso   1.00
Cu811  Cu    0.50000   0.16667   0.88022   0.00000  Uiso   1.00
Cu812  Cu    0.50000   0.16666   0.78645   0.00000  Uiso   1.00
N813   N     0.50001   0.16668   0.95069   0.00000  Uiso   1.00
N814   N     0.49999   0.16666   0.71597   0.00000  Uiso   1.00
C815   C     0.34594   0.16659   0.81458   0.00000  Uiso   1.00
C816   C     0.65406   0.16674   0.85208   0.00000  Uiso   1.00
H817   H     0.65922   0.16649   0.77864   0.00000  Uiso   1.00
H818   H     0.34078   0.16684   0.88803   0.00000  Uiso   1.00
C819   C     0.53293   0.02105   0.80607   0.00000  Uiso   1.00
C820   C     0.46707   0.31229   0.86059   0.00000  Uiso   1.00
C821   C     0.53052   0.31148   0.80544   0.00000  Uiso   1.00
C822   C     0.46948   0.02185   0.86122   0.00000  Uiso   1.00
C823   C     0.49820   0.29051   0.83274   0.00000  Uiso   1.00
C824   C     0.50179   0.04283   0.83393   0.00000  Uiso   1.00
C825   C     0.46719   0.14157   0.68722   0.00000  Uiso   1.00
C826   C     0.53281   0.19177   0.97945   0.00000  Uiso   1.00
C827   C     0.46723   0.14162   0.97100   0.00000  Uiso   1.00
C828   C     0.53277   0.19171   0.69566   0.00000  Uiso   1.00
H829   H     0.44101   0.12153   0.94896   0.00000  Uiso   1.00
H830   H     0.55899   0.21180   0.71770   0.00000  Uiso   1.00
N831   N     0.56866   0.04194   0.78020   0.00000  Uiso   1.00
O832   O     0.59926   0.07032   0.80055   0.00000  Uiso   1.00
O833   O     0.57459   0.02970   0.73799   0.00000  Uiso   1.00
N834   N     0.43134   0.29139   0.88647   0.00000  Uiso   1.00
O835   O     0.40074   0.26301   0.86612   0.00000  Uiso   1.00
O836   O     0.42541   0.30363   0.92867   0.00000  Uiso   1.00
F837   F     0.56209   0.29004   0.78045   0.00000  Uiso   1.00
F838   F     0.43790   0.04330   0.88622   0.00000  Uiso   1.00
F839   F     0.43428   0.11620   0.70614   0.00000  Uiso   1.00
F840   F     0.56572   0.21714   0.96052   0.00000  Uiso   1.00
O841   O     0.83333   0.10655   0.87291   0.00000  Uiso   1.00
O842   O     0.83334   0.22678   0.79375   0.00000  Uiso   1.00
O843   O     0.83333   0.10654   0.79372   0.00000  Uiso   1.00
O844   O     0.83334   0.22679   0.87294   0.00000  Uiso   1.00
C845   C     0.83415   0.08745   0.83349   0.00000  Uiso   1.00
C846   C     0.83252   0.24588   0.83318   0.00000  Uiso   1.00
O847   O     0.75828   0.16667   0.86379   0.00000  Uiso   1.00
O848   O     0.90839   0.16666   0.80288   0.00000  Uiso   1.00
O849   O     0.75828   0.16666   0.78460   0.00000  Uiso   1.00
O850   O     0.90839   0.16667   0.88207   0.00000  Uiso   1.00
C851   C     0.73458   0.16658   0.82123   0.00000  Uiso   1.00
C852   C     0.93208   0.16675   0.84544   0.00000  Uiso   1.00
Cu853  Cu    0.83333   0.16667   0.88022   0.00000  Uiso   1.00
Cu854  Cu    0.83333   0.16666   0.78645   0.00000  Uiso   1.00
N855   N     0.83335   0.16668   0.95069   0.00000  Uiso   1.00
N856   N     0.83332   0.16666   0.71597   0.00000  Uiso   1.00
C857   C     0.67927   0.16659   0.81458   0.00000  Uiso   1.00
C858   C     0.98739   0.16674   0.85208   0.00000  Uiso   1.00
H859   H     0.99256   0.16649   0.77864   0.00000  Uiso   1.00
H860   H     0.67411   0.16684   0.88803   0.00000  Uiso   1.00
C861   C     0.86627   0.02105   0.80607   0.00000  Uiso   1.00
C862   C     0.80040   0.31229   0.86059   0.00000  Uiso   1.00
C863   C     0.86385   0.31148   0.80544   0.00000  Uiso   1.00
C864   C     0.80281   0.02185   0.86122   0.00000  Uiso   1.00
C865   C     0.83154   0.29051   0.83274   0.00000  Uiso   1.00
C866   C     0.83513   0.04283   0.83393   0.00000  Uiso   1.00
C867   C     0.80053   0.14157   0.68722   0.00000  Uiso   1.00
C868   C     0.86614   0.19177   0.97945   0.00000  Uiso   1.00
C869   C     0.80056   0.14162   0.97100   0.00000  Uiso   1.00
C870   C     0.86611   0.19171   0.69566   0.00000  Uiso   1.00
H871   H     0.77434   0.12153   0.94896   0.00000  Uiso   1.00
H872   H     0.89233   0.21180   0.71770   0.00000  Uiso   1.00
N873   N     0.90199   0.04194   0.78020   0.00000  Uiso   1.00
O874   O     0.93259   0.07032   0.80055   0.00000  Uiso   1.00
O875   O     0.90792   0.02970   0.73799   0.00000  Uiso   1.00
N876   N     0.76467   0.29139   0.88647   0.00000  Uiso   1.00
O877   O     0.73407   0.26301   0.86612   0.00000  Uiso   1.00
O878   O     0.75874   0.30363   0.92867   0.00000  Uiso   1.00
F879   F     0.89543   0.29004   0.78045   0.00000  Uiso   1.00
F880   F     0.77124   0.04330   0.88622   0.00000  Uiso   1.00
F881   F     0.76761   0.11620   0.70614   0.00000  Uiso   1.00
F882   F     0.89906   0.21714   0.96052   0.00000  Uiso   1.00
O883   O     0.16666   0.43989   0.87291   0.00000  Uiso   1.00
O884   O     0.16667   0.56011   0.79375   0.00000  Uiso   1.00
O885   O     0.16666   0.43988   0.79372   0.00000  Uiso   1.00
O886   O     0.16667   0.56012   0.87294   0.00000  Uiso   1.00
C887   C     0.16748   0.42079   0.83349   0.00000  Uiso   1.00
C888   C     0.16585   0.57921   0.83318   0.00000  Uiso   1.00
O889   O     0.09161   0.50000   0.86379   0.00000  Uiso   1.00
O890   O     0.24172   0.50000   0.80288   0.00000  Uiso   1.00
O891   O     0.09161   0.49999   0.78460   0.00000  Uiso   1.00
O892   O     0.24172   0.50001   0.88207   0.00000  Uiso   1.00
C893   C     0.06792   0.49992   0.82123   0.00000  Uiso   1.00
C894   C     0.26542   0.50008   0.84544   0.00000  Uiso   1.00
Cu895  Cu    0.16667   0.50001   0.88022   0.00000  Uiso   1.00
Cu896  Cu    0.16667   0.49999   0.78645   0.00000  Uiso   1.00
N897   N     0.16668   0.50001   0.95069   0.00000  Uiso   1.00
N898   N     0.16665   0.49999   0.71597   0.00000  Uiso   1.00
C899   C     0.01261   0.49993   0.81458   0.00000  Uiso   1.00
C900   C     0.32073   0.50007   0.85208   0.00000  Uiso   1.00
H901   H     0.32589   0.49982   0.77864   0.00000  Uiso   1.00
H902   H     0.00744   0.50018   0.88803   0.00000  Uiso   1.00
C903   C     0.19960   0.35438   0.80607   0.00000  Uiso   1.00
C904   C     0.13373   0.64562   0.86059   0.00000  Uiso   1.00
C905   C     0.19719   0.64481   0.80544   0.00000  Uiso   1.00
C906   C     0.13615   0.35519   0.86122   0.00000  Uiso   1.00
C907   C     0.16487   0.62384   0.83274   0.00000  Uiso   1.00
C908   C     0.16846   0.37616   0.83393   0.00000  Uiso   1.00
C909   C     0.13386   0.47490   0.68722   0.00000  Uiso   1.00
C910   C     0.19947   0.52510   0.97945   0.00000  Uiso   1.00
C911   C     0.13389   0.47496   0.97100   0.00000  Uiso   1.00
C912   C     0.19944   0.52504   0.69566   0.00000  Uiso   1.00
H913   H     0.10767   0.45486   0.94896   0.00000  Uiso   1.00
H914   H     0.22566   0.54514   0.71770   0.00000  Uiso   1.00
N915   N     0.23533   0.37528   0.78020   0.00000  Uiso   1.00
O916   O     0.26593   0.40365   0.80055   0.00000  Uiso   1.00
O917   O     0.24126   0.36303   0.73799   0.00000  Uiso   1.00
N918   N     0.09801   0.62472   0.88647   0.00000  Uiso   1.00
O919   O     0.06741   0.59635   0.86612   0.00000  Uiso   1.00
O920   O     0.09207   0.63697   0.92867   0.00000  Uiso   1.00
F921   F     0.22876   0.62337   0.78045   0.00000  Uiso   1.00
F922   F     0.10457   0.37663   0.88622   0.00000  Uiso   1.00
F923   F     0.10094   0.44953   0.70614   0.00000  Uiso   1.00
F924   F     0.23239   0.55047   0.96052   0.00000  Uiso   1.00
O925   O     0.50000   0.43989   0.87291   0.00000  Uiso   1.00
O926   O     0.50000   0.56011   0.79375   0.00000  Uiso   1.00
O927   O     0.50000   0.43988   0.79372   0.00000  Uiso   1.00
O928   O     0.50000   0.56012   0.87294   0.00000  Uiso   1.00
C929   C     0.50082   0.42079   0.83349   0.00000  Uiso   1.00
C930   C     0.49918   0.57921   0.83318   0.00000  Uiso   1.00
O931   O     0.42495   0.50000   0.86379   0.00000  Uiso   1.00
O932   O     0.57505   0.50000   0.80288   0.00000  Uiso   1.00
O933   O     0.42494   0.49999   0.78460   0.00000  Uiso   1.00
O934   O     0.57506   0.50001   0.88207   0.00000  Uiso   1.00
C935   C     0.40125   0.49992   0.82123   0.00000  Uiso   1.00
C936   C     0.59875   0.50008   0.84544   0.00000  Uiso   1.00
Cu937  Cu    0.50000   0.50001   0.88022   0.00000  Uiso   1.00
Cu938  Cu    0.50000   0.49999   0.78645   0.00000  Uiso   1.00
N939   N     0.50001   0.50001   0.95069   0.00000  Uiso   1.00
N940   N     0.49999   0.49999   0.71597   0.00000  Uiso   1.00
C941   C     0.34594   0.49993   0.81458   0.00000  Uiso   1.00
C942   C     0.65406   0.50007   0.85208   0.00000  Uiso   1.00
H943   H     0.65922   0.49982   0.77864   0.00000  Uiso   1.00
H944   H     0.34078   0.50018   0.88803   0.00000  Uiso   1.00
C945   C     0.53293   0.35438   0.80607   0.00000  Uiso   1.00
C946   C     0.46707   0.64562   0.86059   0.00000  Uiso   1.00
C947   C     0.53052   0.64481   0.80544   0.00000  Uiso   1.00
C948   C     0.46948   0.35519   0.86122   0.00000  Uiso   1.00
C949   C     0.49820   0.62384   0.83274   0.00000  Uiso   1.00
C950   C     0.50179   0.37616   0.83393   0.00000  Uiso   1.00
C951   C     0.46719   0.47490   0.68722   0.00000  Uiso   1.00
C952   C     0.53281   0.52510   0.97945   0.00000  Uiso   1.00
C953   C     0.46723   0.47496   0.97100   0.00000  Uiso   1.00
C954   C     0.53277   0.52504   0.69566   0.00000  Uiso   1.00
H955   H     0.44101   0.45486   0.94896   0.00000  Uiso   1.00
H956   H     0.55899   0.54514   0.71770   0.00000  Uiso   1.00
N957   N     0.56866   0.37528   0.78020   0.00000  Uiso   1.00
O958   O     0.59926   0.40365   0.80055   0.00000  Uiso   1.00
O959   O     0.57459   0.36303   0.73799   0.00000  Uiso   1.00
N960   N     0.43134   0.62472   0.88647   0.00000  Uiso   1.00
O961   O     0.40074   0.59635   0.86612   0.00000  Uiso   1.00
O962   O     0.42541   0.63697   0.92867   0.00000  Uiso   1.00
F963   F     0.56209   0.62337   0.78045   0.00000  Uiso   1.00
F964   F     0.43790   0.37663   0.88622   0.00000  Uiso   1.00
F965   F     0.43428   0.44953   0.70614   0.00000  Uiso   1.00
F966   F     0.56572   0.55047   0.96052   0.00000  Uiso   1.00
O967   O     0.83333   0.43989   0.87291   0.00000  Uiso   1.00
O968   O     0.83334   0.56011   0.79375   0.00000  Uiso   1.00
O969   O     0.83333   0.43988   0.79372   0.00000  Uiso   1.00
O970   O     0.83334   0.56012   0.87294   0.00000  Uiso   1.00
C971   C     0.83415   0.42079   0.83349   0.00000  Uiso   1.00
C972   C     0.83252   0.57921   0.83318   0.00000  Uiso   1.00
O973   O     0.75828   0.50000   0.86379   0.00000  Uiso   1.00
O974   O     0.90839   0.50000   0.80288   0.00000  Uiso   1.00
O975   O     0.75828   0.49999   0.78460   0.00000  Uiso   1.00
O976   O     0.90839   0.50001   0.88207   0.00000  Uiso   1.00
C977   C     0.73458   0.49992   0.82123   0.00000  Uiso   1.00
C978   C     0.93208   0.50008   0.84544   0.00000  Uiso   1.00
Cu979  Cu    0.83333   0.50001   0.88022   0.00000  Uiso   1.00
Cu980  Cu    0.83333   0.49999   0.78645   0.00000  Uiso   1.00
N981   N     0.83335   0.50001   0.95069   0.00000  Uiso   1.00
N982   N     0.83332   0.49999   0.71597   0.00000  Uiso   1.00
C983   C     0.67927   0.49993   0.81458   0.00000  Uiso   1.00
C984   C     0.98739   0.50007   0.85208   0.00000  Uiso   1.00
H985   H     0.99256   0.49982   0.77864   0.00000  Uiso   1.00
H986   H     0.67411   0.50018   0.88803   0.00000  Uiso   1.00
C987   C     0.86627   0.35438   0.80607   0.00000  Uiso   1.00
C988   C     0.80040   0.64562   0.86059   0.00000  Uiso   1.00
C989   C     0.86385   0.64481   0.80544   0.00000  Uiso   1.00
C990   C     0.80281   0.35519   0.86122   0.00000  Uiso   1.00
C991   C     0.83154   0.62384   0.83274   0.00000  Uiso   1.00
C992   C     0.83513   0.37616   0.83393   0.00000  Uiso   1.00
C993   C     0.80053   0.47490   0.68722   0.00000  Uiso   1.00
C994   C     0.86614   0.52510   0.97945   0.00000  Uiso   1.00
C995   C     0.80056   0.47496   0.97100   0.00000  Uiso   1.00
C996   C     0.86611   0.52504   0.69566   0.00000  Uiso   1.00
H997   H     0.77434   0.45486   0.94896   0.00000  Uiso   1.00
H998   H     0.89233   0.54514   0.71770   0.00000  Uiso   1.00
N999   N     0.90199   0.37528   0.78020   0.00000  Uiso   1.00
O1000  O     0.93259   0.40365   0.80055   0.00000  Uiso   1.00
O1001  O     0.90792   0.36303   0.73799   0.00000  Uiso   1.00
N1002  N     0.76467   0.62472   0.88647   0.00000  Uiso   1.00
O1003  O     0.73407   0.59635   0.86612   0.00000  Uiso   1.00
O1004  O     0.75874   0.63697   0.92867   0.00000  Uiso   1.00
F1005  F     0.89543   0.62337   0.78045   0.00000  Uiso   1.00
F1006  F     0.77124   0.37663   0.88622   0.00000  Uiso   1.00
F1007  F     0.76761   0.44953   0.70614   0.00000  Uiso   1.00
F1008  F     0.89906   0.55047   0.96052   0.00000  Uiso   1.00
O1009  O     0.16666   0.77322   0.87291   0.00000  Uiso   1.00
O1010  O     0.16667   0.89345   0.79375   0.00000  Uiso   1.00
O1011  O     0.16666   0.77321   0.79372   0.00000  Uiso   1.00
O1012  O     0.16667   0.89346   0.87294   0.00000  Uiso   1.00
C1013  C     0.16748   0.75412   0.83349   0.00000  Uiso   1.00
C1014  C     0.16585   0.91255   0.83318   0.00000  Uiso   1.00
O1015  O     0.09161   0.83334   0.86379   0.00000  Uiso   1.00
O1016  O     0.24172   0.83333   0.80288   0.00000  Uiso   1.00
O1017  O     0.09161   0.83333   0.78460   0.00000  Uiso   1.00
O1018  O     0.24172   0.83334   0.88207   0.00000  Uiso   1.00
C1019  C     0.06792   0.83325   0.82123   0.00000  Uiso   1.00
C1020  C     0.26542   0.83342   0.84544   0.00000  Uiso   1.00
Cu1021 Cu    0.16667   0.83334   0.88022   0.00000  Uiso   1.00
Cu1022 Cu    0.16667   0.83333   0.78645   0.00000  Uiso   1.00
N1023  N     0.16668   0.83334   0.95069   0.00000  Uiso   1.00
N1024  N     0.16665   0.83332   0.71597   0.00000  Uiso   1.00
C1025  C     0.01261   0.83326   0.81458   0.00000  Uiso   1.00
C1026  C     0.32073   0.83341   0.85208   0.00000  Uiso   1.00
H1027  H     0.32589   0.83316   0.77864   0.00000  Uiso   1.00
H1028  H     0.00744   0.83351   0.88803   0.00000  Uiso   1.00
C1029  C     0.19960   0.68771   0.80607   0.00000  Uiso   1.00
C1030  C     0.13373   0.97895   0.86059   0.00000  Uiso   1.00
C1031  C     0.19719   0.97815   0.80544   0.00000  Uiso   1.00
C1032  C     0.13615   0.68852   0.86122   0.00000  Uiso   1.00
C1033  C     0.16487   0.95717   0.83274   0.00000  Uiso   1.00
C1034  C     0.16846   0.70949   0.83393   0.00000  Uiso   1.00
C1035  C     0.13386   0.80823   0.68722   0.00000  Uiso   1.00
C1036  C     0.19947   0.85843   0.97945   0.00000  Uiso   1.00
C1037  C     0.13389   0.80829   0.97100   0.00000  Uiso   1.00
C1038  C     0.19944   0.85838   0.69566   0.00000  Uiso   1.00
H1039  H     0.10767   0.78820   0.94896   0.00000  Uiso   1.00
H1040  H     0.22566   0.87847   0.71770   0.00000  Uiso   1.00
N1041  N     0.23533   0.70861   0.78020   0.00000  Uiso   1.00
O1042  O     0.26593   0.73699   0.80055   0.00000  Uiso   1.00
O1043  O     0.24126   0.69637   0.73799   0.00000  Uiso   1.00
N1044  N     0.09801   0.95806   0.88647   0.00000  Uiso   1.00
O1045  O     0.06741   0.92968   0.86612   0.00000  Uiso   1.00
O1046  O     0.09207   0.97030   0.92867   0.00000  Uiso   1.00
F1047  F     0.22876   0.95670   0.78045   0.00000  Uiso   1.00
F1048  F     0.10457   0.70996   0.88622   0.00000  Uiso   1.00
F1049  F     0.10094   0.78286   0.70614   0.00000  Uiso   1.00
F1050  F     0.23239   0.88380   0.96052   0.00000  Uiso   1.00
O1051  O     0.50000   0.77322   0.87291   0.00000  Uiso   1.00
O1052  O     0.50000   0.89345   0.79375   0.00000  Uiso   1.00
O1053  O     0.50000   0.77321   0.79372   0.00000  Uiso   1.00
O1054  O     0.50000   0.89346   0.87294   0.00000  Uiso   1.00
C1055  C     0.50082   0.75412   0.83349   0.00000  Uiso   1.00
C1056  C     0.49918   0.91255   0.83318   0.00000  Uiso   1.00
O1057  O     0.42495   0.83334   0.86379   0.00000  Uiso   1.00
O1058  O     0.57505   0.83333   0.80288   0.00000  Uiso   1.00
O1059  O     0.42494   0.83333   0.78460   0.00000  Uiso   1.00
O1060  O     0.57506   0.83334   0.88207   0.00000  Uiso   1.00
C1061  C     0.40125   0.83325   0.82123   0.00000  Uiso   1.00
C1062  C     0.59875   0.83342   0.84544   0.00000  Uiso   1.00
Cu1063 Cu    0.50000   0.83334   0.88022   0.00000  Uiso   1.00
Cu1064 Cu    0.50000   0.83333   0.78645   0.00000  Uiso   1.00
N1065  N     0.50001   0.83334   0.95069   0.00000  Uiso   1.00
N1066  N     0.49999   0.83332   0.71597   0.00000  Uiso   1.00
C1067  C     0.34594   0.83326   0.81458   0.00000  Uiso   1.00
C1068  C     0.65406   0.83341   0.85208   0.00000  Uiso   1.00
H1069  H     0.65922   0.83316   0.77864   0.00000  Uiso   1.00
H1070  H     0.34078   0.83351   0.88803   0.00000  Uiso   1.00
C1071  C     0.53293   0.68771   0.80607   0.00000  Uiso   1.00
C1072  C     0.46707   0.97895   0.86059   0.00000  Uiso   1.00
C1073  C     0.53052   0.97815   0.80544   0.00000  Uiso   1.00
C1074  C     0.46948   0.68852   0.86122   0.00000  Uiso   1.00
C1075  C     0.49820   0.95717   0.83274   0.00000  Uiso   1.00
C1076  C     0.50179   0.70949   0.83393   0.00000  Uiso   1.00
C1077  C     0.46719   0.80823   0.68722   0.00000  Uiso   1.00
C1078  C     0.53281   0.85843   0.97945   0.00000  Uiso   1.00
C1079  C     0.46723   0.80829   0.97100   0.00000  Uiso   1.00
C1080  C     0.53277   0.85838   0.69566   0.00000  Uiso   1.00
H1081  H     0.44101   0.78820   0.94896   0.00000  Uiso   1.00
H1082  H     0.55899   0.87847   0.71770   0.00000  Uiso   1.00
N1083  N     0.56866   0.70861   0.78020   0.00000  Uiso   1.00
O1084  O     0.59926   0.73699   0.80055   0.00000  Uiso   1.00
O1085  O     0.57459   0.69637   0.73799   0.00000  Uiso   1.00
N1086  N     0.43134   0.95806   0.88647   0.00000  Uiso   1.00
O1087  O     0.40074   0.92968   0.86612   0.00000  Uiso   1.00
O1088  O     0.42541   0.97030   0.92867   0.00000  Uiso   1.00
F1089  F     0.56209   0.95670   0.78045   0.00000  Uiso   1.00
F1090  F     0.43790   0.70996   0.88622   0.00000  Uiso   1.00
F1091  F     0.43428   0.78286   0.70614   0.00000  Uiso   1.00
F1092  F     0.56572   0.88380   0.96052   0.00000  Uiso   1.00
O1093  O     0.83333   0.77322   0.87291   0.00000  Uiso   1.00
O1094  O     0.83334   0.89345   0.79375   0.00000  Uiso   1.00
O1095  O     0.83333   0.77321   0.79372   0.00000  Uiso   1.00
O1096  O     0.83334   0.89346   0.87294   0.00000  Uiso   1.00
C1097  C     0.83415   0.75412   0.83349   0.00000  Uiso   1.00
C1098  C     0.83252   0.91255   0.83318   0.00000  Uiso   1.00
O1099  O     0.75828   0.83334   0.86379   0.00000  Uiso   1.00
O1100  O     0.90839   0.83333   0.80288   0.00000  Uiso   1.00
O1101  O     0.75828   0.83333   0.78460   0.00000  Uiso   1.00
O1102  O     0.90839   0.83334   0.88207   0.00000  Uiso   1.00
C1103  C     0.73458   0.83325   0.82123   0.00000  Uiso   1.00
C1104  C     0.93208   0.83342   0.84544   0.00000  Uiso   1.00
Cu1105 Cu    0.83333   0.83334   0.88022   0.00000  Uiso   1.00
Cu1106 Cu    0.83333   0.83333   0.78645   0.00000  Uiso   1.00
N1107  N     0.83335   0.83334   0.95069   0.00000  Uiso   1.00
N1108  N     0.83332   0.83332   0.71597   0.00000  Uiso   1.00
C1109  C     0.67927   0.83326   0.81458   0.00000  Uiso   1.00
C1110  C     0.98739   0.83341   0.85208   0.00000  Uiso   1.00
H1111  H     0.99256   0.83316   0.77864   0.00000  Uiso   1.00
H1112  H     0.67411   0.83351   0.88803   0.00000  Uiso   1.00
C1113  C     0.86627   0.68771   0.80607   0.00000  Uiso   1.00
C1114  C     0.80040   0.97895   0.86059   0.00000  Uiso   1.00
C1115  C     0.86385   0.97815   0.80544   0.00000  Uiso   1.00
C1116  C     0.80281   0.68852   0.86122   0.00000  Uiso   1.00
C1117  C     0.83154   0.95717   0.83274   0.00000  Uiso   1.00
C1118  C     0.83513   0.70949   0.83393   0.00000  Uiso   1.00
C1119  C     0.80053   0.80823   0.68722   0.00000  Uiso   1.00
C1120  C     0.86614   0.85843   0.97945   0.00000  Uiso   1.00
C1121  C     0.80056   0.80829   0.97100   0.00000  Uiso   1.00
C1122  C     0.86611   0.85838   0.69566   0.00000  Uiso   1.00
H1123  H     0.77434   0.78820   0.94896   0.00000  Uiso   1.00
H1124  H     0.89233   0.87847   0.71770   0.00000  Uiso   1.00
N1125  N     0.90199   0.70861   0.78020   0.00000  Uiso   1.00
O1126  O     0.93259   0.73699   0.80055   0.00000  Uiso   1.00
O1127  O     0.90792   0.69637   0.73799   0.00000  Uiso   1.00
N1128  N     0.76467   0.95806   0.88647   0.00000  Uiso   1.00
O1129  O     0.73407   0.92968   0.86612   0.00000  Uiso   1.00
O1130  O     0.75874   0.97030   0.92867   0.00000  Uiso   1.00
F1131  F     0.89543   0.95670   0.78045   0.00000  Uiso   1.00
F1132  F     0.77124   0.70996   0.88622   0.00000  Uiso   1.00
F1133  F     0.76761   0.78286   0.70614   0.00000  Uiso   1.00
F1134  F     0.89906   0.88380   0.96052   0.00000  Uiso   1.00
loop_
_geom_bond_atom_site_label_1
_geom_bond_atom_site_label_2
_geom_bond_distance
_geom_bond_site_symmetry_2
_ccdc_geom_bond_type
O1     C5      1.290   .     A
O1     Cu13    1.960   .     S
O2     C6      1.290   .     A
O2     Cu14    1.960   .     S
O3     Cu14    1.959   .     S
O3     C5      1.291   .     A
O4     C6      1.291   .     A
O4     Cu13    1.959   .     S
C5     C26     1.447   .     S
C6     C25     1.447   .     S
O7     C11     1.287   .     A
O7     Cu13    1.956   .     S
O8     C12     1.287   .     A
O8     Cu14    1.956   .     S
O9     Cu14    1.959   .     S
O9     C11     1.290   .     A
O10    C12     1.290   .     A
O10    Cu13    1.959   .     S
C11    C17     1.435   .     S
C12    C18     1.435   .     S
Cu13   Cu14    2.682   .     S
Cu13   N15     2.016   .     S
Cu14   N16     2.016   .     S
N15    C28     1.369   .     A
N15    C29     1.366   .     A
N16    C27     1.369   .     A
N16    C30     1.366   .     A
C17    C102    1.336   1_455 S
C17    H103    1.087   1_455 S
C18    C59     1.336   .     S
C18    H62     1.087   .     S
H19    C59     1.087   .     S
H20    C102    1.087   1_455 S
C21    C26     1.409   .     A
C21    N33     1.438   .     S
C21    C275    1.392   1_545 S
C22    N36     1.438   .     S
C22    C25     1.409   .     A
C22    C150    1.392   .     S
C23    F39     1.360   .     S
C23    C25     1.402   .     A
C23    C147    1.392   .     S
C24    F40     1.360   .     S
C24    C26     1.402   .     A
C24    C274    1.392   1_545 S
C27    F41     1.355   .     S
C27    C785    1.417   1_554 S
C28    F42     1.355   .     S
C28    C408    1.417   .     S
C29    H31     1.082   .     S
C29    C405    1.417   .     S
C30    H32     1.082   .     S
C30    C784    1.417   1_554 S
N33    O34     1.301   .     A
N33    O35     1.301   .     A
N36    O38     1.301   .     A
N36    O37     1.301   .     A
O43    C47     1.290   .     A
O43    Cu55    1.960   .     S
O44    C48     1.290   .     A
O44    Cu56    1.960   .     S
O45    Cu56    1.959   .     S
O45    C47     1.291   .     A
O46    C48     1.291   .     A
O46    Cu55    1.959   .     S
C47    C68     1.447   .     S
C48    C67     1.447   .     S
O49    C53     1.287   .     A
O49    Cu55    1.956   .     S
O50    C54     1.287   .     A
O50    Cu56    1.956   .     S
O51    Cu56    1.959   .     S
O51    C53     1.290   .     A
O52    C54     1.290   .     A
O52    Cu55    1.959   .     S
C53    C59     1.435   .     S
C54    C60     1.435   .     S
Cu55   Cu56    2.682   .     S
Cu55   N57     2.016   .     S
Cu56   N58     2.016   .     S
N57    C70     1.369   .     A
N57    C71     1.366   .     A
N58    C69     1.369   .     A
N58    C72     1.366   .     A
C60    C101    1.336   .     S
C60    H104    1.087   .     S
H61    C101    1.087   .     S
C63    C68     1.409   .     A
C63    N75     1.438   .     S
C63    C317    1.392   1_545 S
C64    N78     1.438   .     S
C64    C67     1.409   .     A
C64    C192    1.392   .     S
C65    F81     1.360   .     S
C65    C67     1.402   .     A
C65    C189    1.392   .     S
C66    F82     1.360   .     S
C66    C68     1.402   .     A
C66    C316    1.392   1_545 S
C69    F83     1.355   .     S
C69    C827    1.417   1_554 S
C70    F84     1.355   .     S
C70    C450    1.417   .     S
C71    H73     1.082   .     S
C71    C447    1.417   .     S
C72    H74     1.082   .     S
C72    C826    1.417   1_554 S
N75    O76     1.301   .     A
N75    O77     1.301   .     A
N78    O80     1.301   .     A
N78    O79     1.301   .     A
O85    C89     1.290   .     A
O85    Cu97    1.960   .     S
O86    C90     1.290   .     A
O86    Cu98    1.960   .     S
O87    Cu98    1.959   .     S
O87    C89     1.291   .     A
O88    C90     1.291   .     A
O88    Cu97    1.959   .     S
C89    C110    1.447   .     S
C90    C109    1.447   .     S
O91    C95     1.287   .     A
O91    Cu97    1.956   .     S
O92    C96     1.287   .     A
O92    Cu98    1.956   .     S
O93    Cu98    1.959   .     S
O93    C95     1.290   .     A
O94    C96     1.290   .     A
O94    Cu97    1.959   .     S
C95    C101    1.435   .     S
C96    C102    1.435   .     S
Cu97   Cu98    2.682   .     S
Cu97   N99     2.016   .     S
Cu98   N100    2.016   .     S
N99    C112    1.369   .     A
N99    C113    1.366   .     A
N100   C111    1.369   .     A
N100   C114    1.366   .     A
C102   C17     1.336   1_655 S
C102   H20     1.087   1_655 S
H103   C17     1.087   1_655 S
C105   C110    1.409   .     A
C105   N117    1.438   .     S
C105   C359    1.392   1_545 S
C106   N120    1.438   .     S
C106   C109    1.409   .     A
C106   C234    1.392   .     S
C107   F123    1.360   .     S
C107   C109    1.402   .     A
C107   C231    1.392   .     S
C108   F124    1.360   .     S
C108   C110    1.402   .     A
C108   C358    1.392   1_545 S
C111   F125    1.355   .     S
C111   C869    1.417   1_554 S
C112   F126    1.355   .     S
C112   C492    1.417   .     S
C113   H115    1.082   .     S
C113   C489    1.417   .     S
C114   H116    1.082   .     S
C114   C868    1.417   1_554 S
N117   O118    1.301   .     A
N117   O119    1.301   .     A
N120   O122    1.301   .     A
N120   O121    1.301   .     A
O127   C131    1.290   .     A
O127   Cu139   1.960   .     S
O128   C132    1.290   .     A
O128   Cu140   1.960   .     S
O129   Cu140   1.959   .     S
O129   C131    1.291   .     A
O130   C132    1.291   .     A
O130   Cu139   1.959   .     S
C131   C152    1.447   .     S
C132   C151    1.447   .     S
O133   C137    1.287   .     A
O133   Cu139   1.956   .     S
O134   C138    1.287   .     A
O134   Cu140   1.956   .     S
O135   Cu140   1.959   .     S
O135   C137    1.290   .     A
O136   C138    1.290   .     A
O136   Cu139   1.959   .     S
C137   C143    1.435   .     S
C138   C144    1.435   .     S
Cu139  Cu140   2.682   .     S
Cu139  N141    2.016   .     S
Cu140  N142    2.016   .     S
N141   C154    1.369   .     A
N141   C155    1.366   .     A
N142   C153    1.369   .     A
N142   C156    1.366   .     A
C143   C228    1.336   1_455 S
C143   H229    1.087   1_455 S
C144   C185    1.336   .     S
C144   H188    1.087   .     S
H145   C185    1.087   .     S
H146   C228    1.087   1_455 S
C147   C152    1.409   .     A
C147   N159    1.438   .     S
C148   N162    1.438   .     S
C148   C151    1.409   .     A
C148   C276    1.392   .     S
C149   F165    1.360   .     S
C149   C151    1.402   .     A
C149   C273    1.392   .     S
C150   F166    1.360   .     S
C150   C152    1.402   .     A
C153   F167    1.355   .     S
C153   C911    1.417   1_554 S
C154   F168    1.355   .     S
C154   C534    1.417   .     S
C155   H157    1.082   .     S
C155   C531    1.417   .     S
C156   H158    1.082   .     S
C156   C910    1.417   1_554 S
N159   O160    1.301   .     A
N159   O161    1.301   .     A
N162   O164    1.301   .     A
N162   O163    1.301   .     A
O169   C173    1.290   .     A
O169   Cu181   1.960   .     S
O170   C174    1.290   .     A
O170   Cu182   1.960   .     S
O171   Cu182   1.959   .     S
O171   C173    1.291   .     A
O172   C174    1.291   .     A
O172   Cu181   1.959   .     S
C173   C194    1.447   .     S
C174   C193    1.447   .     S
O175   C179    1.287   .     A
O175   Cu181   1.956   .     S
O176   C180    1.287   .     A
O176   Cu182   1.956   .     S
O177   Cu182   1.959   .     S
O177   C179    1.290   .     A
O178   C180    1.290   .     A
O178   Cu181   1.959   .     S
C179   C185    1.435   .     S
C180   C186    1.435   .     S
Cu181  Cu182   2.682   .     S
Cu181  N183    2.016   .     S
Cu182  N184    2.016   .     S
N183   C196    1.369   .     A
N183   C197    1.366   .     A
N184   C195    1.369   .     A
N184   C198    1.366   .     A
C186   C227    1.336   .     S
C186   H230    1.087   .     S
H187   C227    1.087   .     S
C189   C194    1.409   .     A
C189   N201    1.438   .     S
C190   N204    1.438   .     S
C190   C193    1.409   .     A
C190   C318    1.392   .     S
C191   F207    1.360   .     S
C191   C193    1.402   .     A
C191   C315    1.392   .     S
C192   F208    1.360   .     S
C192   C194    1.402   .     A
C195   F209    1.355   .     S
C195   C953    1.417   1_554 S
C196   F210    1.355   .     S
C196   C576    1.417   .     S
C197   H199    1.082   .     S
C197   C573    1.417   .     S
C198   H200    1.082   .     S
C198   C952    1.417   1_554 S
N201   O202    1.301   .     A
N201   O203    1.301   .     A
N204   O206    1.301   .     A
N204   O205    1.301   .     A
O211   C215    1.290   .     A
O211   Cu223   1.960   .     S
O212   C216    1.290   .     A
O212   Cu224   1.960   .     S
O213   Cu224   1.959   .     S
O213   C215    1.291   .     A
O214   C216    1.291   .     A
O214   Cu223   1.959   .     S
C215   C236    1.447   .     S
C216   C235    1.447   .     S
O217   C221    1.287   .     A
O217   Cu223   1.956   .     S
O218   C222    1.287   .     A
O218   Cu224   1.956   .     S
O219   Cu224   1.959   .     S
O219   C221    1.290   .     A
O220   C222    1.290   .     A
O220   Cu223   1.959   .     S
C221   C227    1.435   .     S
C222   C228    1.435   .     S
Cu223  Cu224   2.682   .     S
Cu223  N225    2.016   .     S
Cu224  N226    2.016   .     S
N225   C238    1.369   .     A
N225   C239    1.366   .     A
N226   C237    1.369   .     A
N226   C240    1.366   .     A
C228   C143    1.336   1_655 S
C228   H146    1.087   1_655 S
H229   C143    1.087   1_655 S
C231   C236    1.409   .     A
C231   N243    1.438   .     S
C232   N246    1.438   .     S
C232   C235    1.409   .     A
C232   C360    1.392   .     S
C233   F249    1.360   .     S
C233   C235    1.402   .     A
C233   C357    1.392   .     S
C234   F250    1.360   .     S
C234   C236    1.402   .     A
C237   F251    1.355   .     S
C237   C995    1.417   1_554 S
C238   F252    1.355   .     S
C238   C618    1.417   .     S
C239   H241    1.082   .     S
C239   C615    1.417   .     S
C240   H242    1.082   .     S
C240   C994    1.417   1_554 S
N243   O244    1.301   .     A
N243   O245    1.301   .     A
N246   O248    1.301   .     A
N246   O247    1.301   .     A
O253   C257    1.290   .     A
O253   Cu265   1.960   .     S
O254   C258    1.290   .     A
O254   Cu266   1.960   .     S
O255   Cu266   1.959   .     S
O255   C257    1.291   .     A
O256   C258    1.291   .     A
O256   Cu265   1.959   .     S
C257   C278    1.447   .     S
C258   C277    1.447   .     S
O259   C263    1.287   .     A
O259   Cu265   1.956   .     S
O260   C264    1.287   .     A
O260   Cu266   1.956   .     S
O261   Cu266   1.959   .     S
O261   C263    1.290   .     A
O262   C264    1.290   .     A
O262   Cu265   1.959   .     S
C263   C269    1.435   .     S
C264   C270    1.435   .     S
Cu265  Cu266   2.682   .     S
Cu265  N267    2.016   .     S
Cu266  N268    2.016   .     S
N267   C280    1.369   .     A
N267   C281    1.366   .     A
N268   C279    1.369   .     A
N268   C282    1.366   .     A
C269   C354    1.336   1_455 S
C269   H355    1.087   1_455 S
C270   C311    1.336   .     S
C270   H314    1.087   .     S
H271   C311    1.087   .     S
H272   C354    1.087   1_455 S
C273   C278    1.409   .     A
C273   N285    1.438   .     S
C274   N288    1.438   .     S
C274   C277    1.409   .     A
C274   C24     1.392   1_565 S
C275   F291    1.360   .     S
C275   C277    1.402   .     A
C275   C21     1.392   1_565 S
C276   F292    1.360   .     S
C276   C278    1.402   .     A
C279   F293    1.355   .     S
C279   C1037   1.417   1_554 S
C280   F294    1.355   .     S
C280   C660    1.417   .     S
C281   H283    1.082   .     S
C281   C657    1.417   .     S
C282   H284    1.082   .     S
C282   C1036   1.417   1_554 S
N285   O286    1.301   .     A
N285   O287    1.301   .     A
N288   O290    1.301   .     A
N288   O289    1.301   .     A
O295   C299    1.290   .     A
O295   Cu307   1.960   .     S
O296   C300    1.290   .     A
O296   Cu308   1.960   .     S
O297   Cu308   1.959   .     S
O297   C299    1.291   .     A
O298   C300    1.291   .     A
O298   Cu307   1.959   .     S
C299   C320    1.447   .     S
C300   C319    1.447   .     S
O301   C305    1.287   .     A
O301   Cu307   1.956   .     S
O302   C306    1.287   .     A
O302   Cu308   1.956   .     S
O303   Cu308   1.959   .     S
O303   C305    1.290   .     A
O304   C306    1.290   .     A
O304   Cu307   1.959   .     S
C305   C311    1.435   .     S
C306   C312    1.435   .     S
Cu307  Cu308   2.682   .     S
Cu307  N309    2.016   .     S
Cu308  N310    2.016   .     S
N309   C322    1.369   .     A
N309   C323    1.366   .     A
N310   C321    1.369   .     A
N310   C324    1.366   .     A
C312   C353    1.336   .     S
C312   H356    1.087   .     S
H313   C353    1.087   .     S
C315   C320    1.409   .     A
C315   N327    1.438   .     S
C316   N330    1.438   .     S
C316   C319    1.409   .     A
C316   C66     1.392   1_565 S
C317   F333    1.360   .     S
C317   C319    1.402   .     A
C317   C63     1.392   1_565 S
C318   F334    1.360   .     S
C318   C320    1.402   .     A
C321   F335    1.355   .     S
C321   C1079   1.417   1_554 S
C322   F336    1.355   .     S
C322   C702    1.417   .     S
C323   H325    1.082   .     S
C323   C699    1.417   .     S
C324   H326    1.082   .     S
C324   C1078   1.417   1_554 S
N327   O328    1.301   .     A
N327   O329    1.301   .     A
N330   O332    1.301   .     A
N330   O331    1.301   .     A
O337   C341    1.290   .     A
O337   Cu349   1.960   .     S
O338   C342    1.290   .     A
O338   Cu350   1.960   .     S
O339   Cu350   1.959   .     S
O339   C341    1.291   .     A
O340   C342    1.291   .     A
O340   Cu349   1.959   .     S
C341   C362    1.447   .     S
C342   C361    1.447   .     S
O343   C347    1.287   .     A
O343   Cu349   1.956   .     S
O344   C348    1.287   .     A
O344   Cu350   1.956   .     S
O345   Cu350   1.959   .     S
O345   C347    1.290   .     A
O346   C348    1.290   .     A
O346   Cu349   1.959   .     S
C347   C353    1.435   .     S
C348   C354    1.435   .     S
Cu349  Cu350   2.682   .     S
Cu349  N351    2.016   .     S
Cu350  N352    2.016   .     S
N351   C364    1.369   .     A
N351   C365    1.366   .     A
N352   C363    1.369   .     A
N352   C366    1.366   .     A
C354   C269    1.336   1_655 S
C354   H272    1.087   1_655 S
H355   C269    1.087   1_655 S
C357   C362    1.409   .     A
C357   N369    1.438   .     S
C358   N372    1.438   .     S
C358   C361    1.409   .     A
C358   C108    1.392   1_565 S
C359   F375    1.360   .     S
C359   C361    1.402   .     A
C359   C105    1.392   1_565 S
C360   F376    1.360   .     S
C360   C362    1.402   .     A
C363   F377    1.355   .     S
C363   C1121   1.417   1_554 S
C364   F378    1.355   .     S
C364   C744    1.417   .     S
C365   H367    1.082   .     S
C365   C741    1.417   .     S
C366   H368    1.082   .     S
C366   C1120   1.417   1_554 S
N369   O370    1.301   .     A
N369   O371    1.301   .     A
N372   O374    1.301   .     A
N372   O373    1.301   .     A
O379   C383    1.290   .     A
O379   Cu391   1.960   .     S
O380   C384    1.290   .     A
O380   Cu392   1.960   .     S
O381   Cu392   1.959   .     S
O381   C383    1.291   .     A
O382   C384    1.291   .     A
O382   Cu391   1.959   .     S
C383   C404    1.447   .     S
C384   C403    1.447   .     S
O385   C389    1.287   .     A
O385   Cu391   1.956   .     S
O386   C390    1.287   .     A
O386   Cu392   1.956   .     S
O387   Cu392   1.959   .     S
O387   C389    1.290   .     A
O388   C390    1.290   .     A
O388   Cu391   1.959   .     S
C389   C395    1.435   .     S
C390   C396    1.435   .     S
Cu391  Cu392   2.682   .     S
Cu391  N393    2.016   .     S
Cu392  N394    2.016   .     S
N393   C406    1.369   .     A
N393   C407    1.366   .     A
N394   C405    1.369   .     A
N394   C408    1.366   .     A
C395   C480    1.336   1_455 S
C395   H481    1.087   1_455 S
C396   C437    1.336   .     S
C396   H440    1.087   .     S
H397   C437    1.087   .     S
H398   C480    1.087   1_455 S
C399   C404    1.409   .     A
C399   N411    1.438   .     S
C399   C653    1.392   1_545 S
C400   N414    1.438   .     S
C400   C403    1.409   .     A
C400   C528    1.392   .     S
C401   F417    1.360   .     S
C401   C403    1.402   .     A
C401   C525    1.392   .     S
C402   F418    1.360   .     S
C402   C404    1.402   .     A
C402   C652    1.392   1_545 S
C405   F419    1.355   .     S
C406   F420    1.355   .     S
C406   C786    1.417   .     S
C407   H409    1.082   .     S
C407   C783    1.417   .     S
C408   H410    1.082   .     S
N411   O412    1.301   .     A
N411   O413    1.301   .     A
N414   O416    1.301   .     A
N414   O415    1.301   .     A
O421   C425    1.290   .     A
O421   Cu433   1.960   .     S
O422   C426    1.290   .     A
O422   Cu434   1.960   .     S
O423   Cu434   1.959   .     S
O423   C425    1.291   .     A
O424   C426    1.291   .     A
O424   Cu433   1.959   .     S
C425   C446    1.447   .     S
C426   C445    1.447   .     S
O427   C431    1.287   .     A
O427   Cu433   1.956   .     S
O428   C432    1.287   .     A
O428   Cu434   1.956   .     S
O429   Cu434   1.959   .     S
O429   C431    1.290   .     A
O430   C432    1.290   .     A
O430   Cu433   1.959   .     S
C431   C437    1.435   .     S
C432   C438    1.435   .     S
Cu433  Cu434   2.682   .     S
Cu433  N435    2.016   .     S
Cu434  N436    2.016   .     S
N435   C448    1.369   .     A
N435   C449    1.366   .     A
N436   C447    1.369   .     A
N436   C450    1.366   .     A
C438   C479    1.336   .     S
C438   H482    1.087   .     S
H439   C479    1.087   .     S
C441   C446    1.409   .     A
C441   N453    1.438   .     S
C441   C695    1.392   1_545 S
C442   N456    1.438   .     S
C442   C445    1.409   .     A
C442   C570    1.392   .     S
C443   F459    1.360   .     S
C443   C445    1.402   .     A
C443   C567    1.392   .     S
C444   F460    1.360   .     S
C444   C446    1.402   .     A
C444   C694    1.392   1_545 S
C447   F461    1.355   .     S
C448   F462    1.355   .     S
C448   C828    1.417   .     S
C449   H451    1.082   .     S
C449   C825    1.417   .     S
C450   H452    1.082   .     S
N453   O454    1.301   .     A
N453   O455    1.301   .     A
N456   O458    1.301   .     A
N456   O457    1.301   .     A
O463   C467    1.290   .     A
O463   Cu475   1.960   .     S
O464   C468    1.290   .     A
O464   Cu476   1.960   .     S
O465   Cu476   1.959   .     S
O465   C467    1.291   .     A
O466   C468    1.291   .     A
O466   Cu475   1.959   .     S
C467   C488    1.447   .     S
C468   C487    1.447   .     S
O469   C473    1.287   .     A
O469   Cu475   1.956   .     S
O470   C474    1.287   .     A
O470   Cu476   1.956   .     S
O471   Cu476   1.959   .     S
O471   C473    1.290   .     A
O472   C474    1.290   .     A
O472   Cu475   1.959   .     S
C473   C479    1.435   .     S
C474   C480    1.435   .     S
Cu475  Cu476   2.682   .     S
Cu475  N477    2.016   .     S
Cu476  N478    2.016   .     S
N477   C490    1.369   .     A
N477   C491    1.366   .     A
N478   C489    1.369   .     A
N478   C492    1.366   .     A
C480   C395    1.336   1_655 S
C480   H398    1.087   1_655 S
H481   C395    1.087   1_655 S
C483   C488    1.409   .     A
C483   N495    1.438   .     S
C483   C737    1.392   1_545 S
C484   N498    1.438   .     S
C484   C487    1.409   .     A
C484   C612    1.392   .     S
C485   F501    1.360   .     S
C485   C487    1.402   .     A
C485   C609    1.392   .     S
C486   F502    1.360   .     S
C486   C488    1.402   .     A
C486   C736    1.392   1_545 S
C489   F503    1.355   .     S
C490   F504    1.355   .     S
C490   C870    1.417   .     S
C491   H493    1.082   .     S
C491   C867    1.417   .     S
C492   H494    1.082   .     S
N495   O496    1.301   .     A
N495   O497    1.301   .     A
N498   O500    1.301   .     A
N498   O499    1.301   .     A
O505   C509    1.290   .     A
O505   Cu517   1.960   .     S
O506   C510    1.290   .     A
O506   Cu518   1.960   .     S
O507   Cu518   1.959   .     S
O507   C509    1.291   .     A
O508   C510    1.291   .     A
O508   Cu517   1.959   .     S
C509   C530    1.447   .     S
C510   C529    1.447   .     S
O511   C515    1.287   .     A
O511   Cu517   1.956   .     S
O512   C516    1.287   .     A
O512   Cu518   1.956   .     S
O513   Cu518   1.959   .     S
O513   C515    1.290   .     A
O514   C516    1.290   .     A
O514   Cu517   1.959   .     S
C515   C521    1.435   .     S
C516   C522    1.435   .     S
Cu517  Cu518   2.682   .     S
Cu517  N519    2.016   .     S
Cu518  N520    2.016   .     S
N519   C532    1.369   .     A
N519   C533    1.366   .     A
N520   C531    1.369   .     A
N520   C534    1.366   .     A
C521   C606    1.336   1_455 S
C521   H607    1.087   1_455 S
C522   C563    1.336   .     S
C522   H566    1.087   .     S
H523   C563    1.087   .     S
H524   C606    1.087   1_455 S
C525   C530    1.409   .     A
C525   N537    1.438   .     S
C526   N540    1.438   .     S
C526   C529    1.409   .     A
C526   C654    1.392   .     S
C527   F543    1.360   .     S
C527   C529    1.402   .     A
C527   C651    1.392   .     S
C528   F544    1.360   .     S
C528   C530    1.402   .     A
C531   F545    1.355   .     S
C532   F546    1.355   .     S
C532   C912    1.417   .     S
C533   H535    1.082   .     S
C533   C909    1.417   .     S
C534   H536    1.082   .     S
N537   O538    1.301   .     A
N537   O539    1.301   .     A
N540   O542    1.301   .     A
N540   O541    1.301   .     A
O547   C551    1.290   .     A
O547   Cu559   1.960   .     S
O548   C552    1.290   .     A
O548   Cu560   1.960   .     S
O549   Cu560   1.959   .     S
O549   C551    1.291   .     A
O550   C552    1.291   .     A
O550   Cu559   1.959   .     S
C551   C572    1.447   .     S
C552   C571    1.447   .     S
O553   C557    1.287   .     A
O553   Cu559   1.956   .     S
O554   C558    1.287   .     A
O554   Cu560   1.956   .     S
O555   Cu560   1.959   .     S
O555   C557    1.290   .     A
O556   C558    1.290   .     A
O556   Cu559   1.959   .     S
C557   C563    1.435   .     S
C558   C564    1.435   .     S
Cu559  Cu560   2.682   .     S
Cu559  N561    2.016   .     S
Cu560  N562    2.016   .     S
N561   C574    1.369   .     A
N561   C575    1.366   .     A
N562   C573    1.369   .     A
N562   C576    1.366   .     A
C564   C605    1.336   .     S
C564   H608    1.087   .     S
H565   C605    1.087   .     S
C567   C572    1.409   .     A
C567   N579    1.438   .     S
C568   N582    1.438   .     S
C568   C571    1.409   .     A
C568   C696    1.392   .     S
C569   F585    1.360   .     S
C569   C571    1.402   .     A
C569   C693    1.392   .     S
C570   F586    1.360   .     S
C570   C572    1.402   .     A
C573   F587    1.355   .     S
C574   F588    1.355   .     S
C574   C954    1.417   .     S
C575   H577    1.082   .     S
C575   C951    1.417   .     S
C576   H578    1.082   .     S
N579   O580    1.301   .     A
N579   O581    1.301   .     A
N582   O584    1.301   .     A
N582   O583    1.301   .     A
O589   C593    1.290   .     A
O589   Cu601   1.960   .     S
O590   C594    1.290   .     A
O590   Cu602   1.960   .     S
O591   Cu602   1.959   .     S
O591   C593    1.291   .     A
O592   C594    1.291   .     A
O592   Cu601   1.959   .     S
C593   C614    1.447   .     S
C594   C613    1.447   .     S
O595   C599    1.287   .     A
O595   Cu601   1.956   .     S
O596   C600    1.287   .     A
O596   Cu602   1.956   .     S
O597   Cu602   1.959   .     S
O597   C599    1.290   .     A
O598   C600    1.290   .     A
O598   Cu601   1.959   .     S
C599   C605    1.435   .     S
C600   C606    1.435   .     S
Cu601  Cu602   2.682   .     S
Cu601  N603    2.016   .     S
Cu602  N604    2.016   .     S
N603   C616    1.369   .     A
N603   C617    1.366   .     A
N604   C615    1.369   .     A
N604   C618    1.366   .     A
C606   C521    1.336   1_655 S
C606   H524    1.087   1_655 S
H607   C521    1.087   1_655 S
C609   C614    1.409   .     A
C609   N621    1.438   .     S
C610   N624    1.438   .     S
C610   C613    1.409   .     A
C610   C738    1.392   .     S
C611   F627    1.360   .     S
C611   C613    1.402   .     A
C611   C735    1.392   .     S
C612   F628    1.360   .     S
C612   C614    1.402   .     A
C615   F629    1.355   .     S
C616   F630    1.355   .     S
C616   C996    1.417   .     S
C617   H619    1.082   .     S
C617   C993    1.417   .     S
C618   H620    1.082   .     S
N621   O622    1.301   .     A
N621   O623    1.301   .     A
N624   O626    1.301   .     A
N624   O625    1.301   .     A
O631   C635    1.290   .     A
O631   Cu643   1.960   .     S
O632   C636    1.290   .     A
O632   Cu644   1.960   .     S
O633   Cu644   1.959   .     S
O633   C635    1.291   .     A
O634   C636    1.291   .     A
O634   Cu643   1.959   .     S
C635   C656    1.447   .     S
C636   C655    1.447   .     S
O637   C641    1.287   .     A
O637   Cu643   1.956   .     S
O638   C642    1.287   .     A
O638   Cu644   1.956   .     S
O639   Cu644   1.959   .     S
O639   C641    1.290   .     A
O640   C642    1.290   .     A
O640   Cu643   1.959   .     S
C641   C647    1.435   .     S
C642   C648    1.435   .     S
Cu643  Cu644   2.682   .     S
Cu643  N645    2.016   .     S
Cu644  N646    2.016   .     S
N645   C658    1.369   .     A
N645   C659    1.366   .     A
N646   C657    1.369   .     A
N646   C660    1.366   .     A
C647   C732    1.336   1_455 S
C647   H733    1.087   1_455 S
C648   C689    1.336   .     S
C648   H692    1.087   .     S
H649   C689    1.087   .     S
H650   C732    1.087   1_455 S
C651   C656    1.409   .     A
C651   N663    1.438   .     S
C652   N666    1.438   .     S
C652   C655    1.409   .     A
C652   C402    1.392   1_565 S
C653   F669    1.360   .     S
C653   C655    1.402   .     A
C653   C399    1.392   1_565 S
C654   F670    1.360   .     S
C654   C656    1.402   .     A
C657   F671    1.355   .     S
C658   F672    1.355   .     S
C658   C1038   1.417   .     S
C659   H661    1.082   .     S
C659   C1035   1.417   .     S
C660   H662    1.082   .     S
N663   O664    1.301   .     A
N663   O665    1.301   .     A
N666   O668    1.301   .     A
N666   O667    1.301   .     A
O673   C677    1.290   .     A
O673   Cu685   1.960   .     S
O674   C678    1.290   .     A
O674   Cu686   1.960   .     S
O675   Cu686   1.959   .     S
O675   C677    1.291   .     A
O676   C678    1.291   .     A
O676   Cu685   1.959   .     S
C677   C698    1.447   .     S
C678   C697    1.447   .     S
O679   C683    1.287   .     A
O679   Cu685   1.956   .     S
O680   C684    1.287   .     A
O680   Cu686   1.956   .     S
O681   Cu686   1.959   .     S
O681   C683    1.290   .     A
O682   C684    1.290   .     A
O682   Cu685   1.959   .     S
C683   C689    1.435   .     S
C684   C690    1.435   .     S
Cu685  Cu686   2.682   .     S
Cu685  N687    2.016   .     S
Cu686  N688    2.016   .     S
N687   C700    1.369   .     A
N687   C701    1.366   .     A
N688   C699    1.369   .     A
N688   C702    1.366   .     A
C690   C731    1.336   .     S
C690   H734    1.087   .     S
H691   C731    1.087   .     S
C693   C698    1.409   .     A
C693   N705    1.438   .     S
C694   N708    1.438   .     S
C694   C697    1.409   .     A
C694   C444    1.392   1_565 S
C695   F711    1.360   .     S
C695   C697    1.402   .     A
C695   C441    1.392   1_565 S
C696   F712    1.360   .     S
C696   C698    1.402   .     A
C699   F713    1.355   .     S
C700   F714    1.355   .     S
C700   C1080   1.417   .     S
C701   H703    1.082   .     S
C701   C1077   1.417   .     S
C702   H704    1.082   .     S
N705   O706    1.301   .     A
N705   O707    1.301   .     A
N708   O710    1.301   .     A
N708   O709    1.301   .     A
O715   C719    1.290   .     A
O715   Cu727   1.960   .     S
O716   C720    1.290   .     A
O716   Cu728   1.960   .     S
O717   Cu728   1.959   .     S
O717   C719    1.291   .     A
O718   C720    1.291   .     A
O718   Cu727   1.959   .     S
C719   C740    1.447   .     S
C720   C739    1.447   .     S
O721   C725    1.287   .     A
O721   Cu727   1.956   .     S
O722   C726    1.287   .     A
O722   Cu728   1.956   .     S
O723   Cu728   1.959   .     S
O723   C725    1.290   .     A
O724   C726    1.290   .     A
O724   Cu727   1.959   .     S
C725   C731    1.435   .     S
C726   C732    1.435   .     S
Cu727  Cu728   2.682   .     S
Cu727  N729    2.016   .     S
Cu728  N730    2.016   .     S
N729   C742    1.369   .     A
N729   C743    1.366   .     A
N730   C741    1.369   .     A
N730   C744    1.366   .     A
C732   C647    1.336   1_655 S
C732   H650    1.087   1_655 S
H733   C647    1.087   1_655 S
C735   C740    1.409   .     A
C735   N747    1.438   .     S
C736   N750    1.438   .     S
C736   C739    1.409   .     A
C736   C486    1.392   1_565 S
C737   F753    1.360   .     S
C737   C739    1.402   .     A
C737   C483    1.392   1_565 S
C738   F754    1.360   .     S
C738   C740    1.402   .     A
C741   F755    1.355   .     S
C742   F756    1.355   .     S
C742   C1122   1.417   .     S
C743   H745    1.082   .     S
C743   C1119   1.417   .     S
C744   H746    1.082   .     S
N747   O748    1.301   .     A
N747   O749    1.301   .     A
N750   O752    1.301   .     A
N750   O751    1.301   .     A
O757   C761    1.290   .     A
O757   Cu769   1.960   .     S
O758   C762    1.290   .     A
O758   Cu770   1.960   .     S
O759   Cu770   1.959   .     S
O759   C761    1.291   .     A
O760   C762    1.291   .     A
O760   Cu769   1.959   .     S
C761   C782    1.447   .     S
C762   C781    1.447   .     S
O763   C767    1.287   .     A
O763   Cu769   1.956   .     S
O764   C768    1.287   .     A
O764   Cu770   1.956   .     S
O765   Cu770   1.959   .     S
O765   C767    1.290   .     A
O766   C768    1.290   .     A
O766   Cu769   1.959   .     S
C767   C773    1.435   .     S
C768   C774    1.435   .     S
Cu769  Cu770   2.682   .     S
Cu769  N771    2.016   .     S
Cu770  N772    2.016   .     S
N771   C784    1.369   .     A
N771   C785    1.366   .     A
N772   C783    1.369   .     A
N772   C786    1.366   .     A
C773   C858    1.336   1_455 S
C773   H859    1.087   1_455 S
C774   C815    1.336   .     S
C774   H818    1.087   .     S
H775   C815    1.087   .     S
H776   C858    1.087   1_455 S
C777   C782    1.409   .     A
C777   N789    1.438   .     S
C777   C1031   1.392   1_545 S
C778   N792    1.438   .     S
C778   C781    1.409   .     A
C778   C906    1.392   .     S
C779   F795    1.360   .     S
C779   C781    1.402   .     A
C779   C903    1.392   .     S
C780   F796    1.360   .     S
C780   C782    1.402   .     A
C780   C1030   1.392   1_545 S
C783   F797    1.355   .     S
C784   F798    1.355   .     S
C784   C30     1.417   1_556 S
C785   H787    1.082   .     S
C785   C27     1.417   1_556 S
C786   H788    1.082   .     S
N789   O790    1.301   .     A
N789   O791    1.301   .     A
N792   O794    1.301   .     A
N792   O793    1.301   .     A
O799   C803    1.290   .     A
O799   Cu811   1.960   .     S
O800   C804    1.290   .     A
O800   Cu812   1.960   .     S
O801   Cu812   1.959   .     S
O801   C803    1.291   .     A
O802   C804    1.291   .     A
O802   Cu811   1.959   .     S
C803   C824    1.447   .     S
C804   C823    1.447   .     S
O805   C809    1.287   .     A
O805   Cu811   1.956   .     S
O806   C810    1.287   .     A
O806   Cu812   1.956   .     S
O807   Cu812   1.959   .     S
O807   C809    1.290   .     A
O808   C810    1.290   .     A
O808   Cu811   1.959   .     S
C809   C815    1.435   .     S
C810   C816    1.435   .     S
Cu811  Cu812   2.682   .     S
Cu811  N813    2.016   .     S
Cu812  N814    2.016   .     S
N813   C826    1.369   .     A
N813   C827    1.366   .     A
N814   C825    1.369   .     A
N814   C828    1.366   .     A
C816   C857    1.336   .     S
C816   H860    1.087   .     S
H817   C857    1.087   .     S
C819   C824    1.409   .     A
C819   N831    1.438   .     S
C819   C1073   1.392   1_545 S
C820   N834    1.438   .     S
C820   C823    1.409   .     A
C820   C948    1.392   .     S
C821   F837    1.360   .     S
C821   C823    1.402   .     A
C821   C945    1.392   .     S
C822   F838    1.360   .     S
C822   C824    1.402   .     A
C822   C1072   1.392   1_545 S
C825   F839    1.355   .     S
C826   F840    1.355   .     S
C826   C72     1.417   1_556 S
C827   H829    1.082   .     S
C827   C69     1.417   1_556 S
C828   H830    1.082   .     S
N831   O832    1.301   .     A
N831   O833    1.301   .     A
N834   O836    1.301   .     A
N834   O835    1.301   .     A
O841   C845    1.290   .     A
O841   Cu853   1.960   .     S
O842   C846    1.290   .     A
O842   Cu854   1.960   .     S
O843   Cu854   1.959   .     S
O843   C845    1.291   .     A
O844   C846    1.291   .     A
O844   Cu853   1.959   .     S
C845   C866    1.447   .     S
C846   C865    1.447   .     S
O847   C851    1.287   .     A
O847   Cu853   1.956   .     S
O848   C852    1.287   .     A
O848   Cu854   1.956   .     S
O849   Cu854   1.959   .     S
O849   C851    1.290   .     A
O850   C852    1.290   .     A
O850   Cu853   1.959   .     S
C851   C857    1.435   .     S
C852   C858    1.435   .     S
Cu853  Cu854   2.682   .     S
Cu853  N855    2.016   .     S
Cu854  N856    2.016   .     S
N855   C868    1.369   .     A
N855   C869    1.366   .     A
N856   C867    1.369   .     A
N856   C870    1.366   .     A
C858   C773    1.336   1_655 S
C858   H776    1.087   1_655 S
H859   C773    1.087   1_655 S
C861   C866    1.409   .     A
C861   N873    1.438   .     S
C861   C1115   1.392   1_545 S
C862   N876    1.438   .     S
C862   C865    1.409   .     A
C862   C990    1.392   .     S
C863   F879    1.360   .     S
C863   C865    1.402   .     A
C863   C987    1.392   .     S
C864   F880    1.360   .     S
C864   C866    1.402   .     A
C864   C1114   1.392   1_545 S
C867   F881    1.355   .     S
C868   F882    1.355   .     S
C868   C114    1.417   1_556 S
C869   H871    1.082   .     S
C869   C111    1.417   1_556 S
C870   H872    1.082   .     S
N873   O874    1.301   .     A
N873   O875    1.301   .     A
N876   O878    1.301   .     A
N876   O877    1.301   .     A
O883   C887    1.290   .     A
O883   Cu895   1.960   .     S
O884   C888    1.290   .     A
O884   Cu896   1.960   .     S
O885   Cu896   1.959   .     S
O885   C887    1.291   .     A
O886   C888    1.291   .     A
O886   Cu895   1.959   .     S
C887   C908    1.447   .     S
C888   C907    1.447   .     S
O889   C893    1.287   .     A
O889   Cu895   1.956   .     S
O890   C894    1.287   .     A
O890   Cu896   1.956   .     S
O891   Cu896   1.959   .     S
O891   C893    1.290   .     A
O892   C894    1.290   .     A
O892   Cu895   1.959   .     S
C893   C899    1.435   .     S
C894   C900    1.435   .     S
Cu895  Cu896   2.682   .     S
Cu895  N897    2.016   .     S
Cu896  N898    2.016   .     S
N897   C910    1.369   .     A
N897   C911    1.366   .     A
N898   C909    1.369   .     A
N898   C912    1.366   .     A
C899   C984    1.336   1_455 S
C899   H985    1.087   1_455 S
C900   C941    1.336   .     S
C900   H944    1.087   .     S
H901   C941    1.087   .     S
H902   C984    1.087   1_455 S
C903   C908    1.409   .     A
C903   N915    1.438   .     S
C904   N918    1.438   .     S
C904   C907    1.409   .     A
C904   C1032   1.392   .     S
C905   F921    1.360   .     S
C905   C907    1.402   .     A
C905   C1029   1.392   .     S
C906   F922    1.360   .     S
C906   C908    1.402   .     A
C909   F923    1.355   .     S
C910   F924    1.355   .     S
C910   C156    1.417   1_556 S
C911   H913    1.082   .     S
C911   C153    1.417   1_556 S
C912   H914    1.082   .     S
N915   O916    1.301   .     A
N915   O917    1.301   .     A
N918   O920    1.301   .     A
N918   O919    1.301   .     A
O925   C929    1.290   .     A
O925   Cu937   1.960   .     S
O926   C930    1.290   .     A
O926   Cu938   1.960   .     S
O927   Cu938   1.959   .     S
O927   C929    1.291   .     A
O928   C930    1.291   .     A
O928   Cu937   1.959   .     S
C929   C950    1.447   .     S
C930   C949    1.447   .     S
O931   C935    1.287   .     A
O931   Cu937   1.956   .     S
O932   C936    1.287   .     A
O932   Cu938   1.956   .     S
O933   Cu938   1.959   .     S
O933   C935    1.290   .     A
O934   C936    1.290   .     A
O934   Cu937   1.959   .     S
C935   C941    1.435   .     S
C936   C942    1.435   .     S
Cu937  Cu938   2.682   .     S
Cu937  N939    2.016   .     S
Cu938  N940    2.016   .     S
N939   C952    1.369   .     A
N939   C953    1.366   .     A
N940   C951    1.369   .     A
N940   C954    1.366   .     A
C942   C983    1.336   .     S
C942   H986    1.087   .     S
H943   C983    1.087   .     S
C945   C950    1.409   .     A
C945   N957    1.438   .     S
C946   N960    1.438   .     S
C946   C949    1.409   .     A
C946   C1074   1.392   .     S
C947   F963    1.360   .     S
C947   C949    1.402   .     A
C947   C1071   1.392   .     S
C948   F964    1.360   .     S
C948   C950    1.402   .     A
C951   F965    1.355   .     S
C952   F966    1.355   .     S
C952   C198    1.417   1_556 S
C953   H955    1.082   .     S
C953   C195    1.417   1_556 S
C954   H956    1.082   .     S
N957   O958    1.301   .     A
N957   O959    1.301   .     A
N960   O962    1.301   .     A
N960   O961    1.301   .     A
O967   C971    1.290   .     A
O967   Cu979   1.960   .     S
O968   C972    1.290   .     A
O968   Cu980   1.960   .     S
O969   Cu980   1.959   .     S
O969   C971    1.291   .     A
O970   C972    1.291   .     A
O970   Cu979   1.959   .     S
C971   C992    1.447   .     S
C972   C991    1.447   .     S
O973   C977    1.287   .     A
O973   Cu979   1.956   .     S
O974   C978    1.287   .     A
O974   Cu980   1.956   .     S
O975   Cu980   1.959   .     S
O975   C977    1.290   .     A
O976   C978    1.290   .     A
O976   Cu979   1.959   .     S
C977   C983    1.435   .     S
C978   C984    1.435   .     S
Cu979  Cu980   2.682   .     S
Cu979  N981    2.016   .     S
Cu980  N982    2.016   .     S
N981   C994    1.369   .     A
N981   C995    1.366   .     A
N982   C993    1.369   .     A
N982   C996    1.366   .     A
C984   C899    1.336   1_655 S
C984   H902    1.087   1_655 S
H985   C899    1.087   1_655 S
C987   C992    1.409   .     A
C987   N999    1.438   .     S
C988   N1002   1.438   .     S
C988   C991    1.409   .     A
C988   C1116   1.392   .     S
C989   F1005   1.360   .     S
C989   C991    1.402   .     A
C989   C1113   1.392   .     S
C990   F1006   1.360   .     S
C990   C992    1.402   .     A
C993   F1007   1.355   .     S
C994   F1008   1.355   .     S
C994   C240    1.417   1_556 S
C995   H997    1.082   .     S
C995   C237    1.417   1_556 S
C996   H998    1.082   .     S
N999   O1000   1.301   .     A
N999   O1001   1.301   .     A
N1002  O1004   1.301   .     A
N1002  O1003   1.301   .     A
O1009  C1013   1.290   .     A
O1009  Cu1021  1.960   .     S
O1010  C1014   1.290   .     A
O1010  Cu1022  1.960   .     S
O1011  Cu1022  1.959   .     S
O1011  C1013   1.291   .     A
O1012  C1014   1.291   .     A
O1012  Cu1021  1.959   .     S
C1013  C1034   1.447   .     S
C1014  C1033   1.447   .     S
O1015  C1019   1.287   .     A
O1015  Cu1021  1.956   .     S
O1016  C1020   1.287   .     A
O1016  Cu1022  1.956   .     S
O1017  Cu1022  1.959   .     S
O1017  C1019   1.290   .     A
O1018  C1020   1.290   .     A
O1018  Cu1021  1.959   .     S
C1019  C1025   1.435   .     S
C1020  C1026   1.435   .     S
Cu1021 Cu1022  2.682   .     S
Cu1021 N1023   2.016   .     S
Cu1022 N1024   2.016   .     S
N1023  C1036   1.369   .     A
N1023  C1037   1.366   .     A
N1024  C1035   1.369   .     A
N1024  C1038   1.366   .     A
C1025  C1110   1.336   1_455 S
C1025  H1111   1.087   1_455 S
C1026  C1067   1.336   .     S
C1026  H1070   1.087   .     S
H1027  C1067   1.087   .     S
H1028  C1110   1.087   1_455 S
C1029  C1034   1.409   .     A
C1029  N1041   1.438   .     S
C1030  N1044   1.438   .     S
C1030  C1033   1.409   .     A
C1030  C780    1.392   1_565 S
C1031  F1047   1.360   .     S
C1031  C1033   1.402   .     A
C1031  C777    1.392   1_565 S
C1032  F1048   1.360   .     S
C1032  C1034   1.402   .     A
C1035  F1049   1.355   .     S
C1036  F1050   1.355   .     S
C1036  C282    1.417   1_556 S
C1037  H1039   1.082   .     S
C1037  C279    1.417   1_556 S
C1038  H1040   1.082   .     S
N1041  O1042   1.301   .     A
N1041  O1043   1.301   .     A
N1044  O1046   1.301   .     A
N1044  O1045   1.301   .     A
O1051  C1055   1.290   .     A
O1051  Cu1063  1.960   .     S
O1052  C1056   1.290   .     A
O1052  Cu1064  1.960   .     S
O1053  Cu1064  1.959   .     S
O1053  C1055   1.291   .     A
O1054  C1056   1.291   .     A
O1054  Cu1063  1.959   .     S
C1055  C1076   1.447   .     S
C1056  C1075   1.447   .     S
O1057  C1061   1.287   .     A
O1057  Cu1063  1.956   .     S
O1058  C1062   1.287   .     A
O1058  Cu1064  1.956   .     S
O1059  Cu1064  1.959   .     S
O1059  C1061   1.290   .     A
O1060  C1062   1.290   .     A
O1060  Cu1063  1.959   .     S
C1061  C1067   1.435   .     S
C1062  C1068   1.435   .     S
Cu1063 Cu1064  2.682   .     S
Cu1063 N1065   2.016   .     S
Cu1064 N1066   2.016   .     S
N1065  C1078   1.369   .     A
N1065  C1079   1.366   .     A
N1066  C1077   1.369   .     A
N1066  C1080   1.366   .     A
C1068  C1109   1.336   .     S
C1068  H1112   1.087   .     S
H1069  C1109   1.087   .     S
C1071  C1076   1.409   .     A
C1071  N1083   1.438   .     S
C1072  N1086   1.438   .     S
C1072  C1075   1.409   .     A
C1072  C822    1.392   1_565 S
C1073  F1089   1.360   .     S
C1073  C1075   1.402   .     A
C1073  C819    1.392   1_565 S
C1074  F1090   1.360   .     S
C1074  C1076   1.402   .     A
C1077  F1091   1.355   .     S
C1078  F1092   1.355   .     S
C1078  C324    1.417   1_556 S
C1079  H1081   1.082   .     S
C1079  C321    1.417   1_556 S
C1080  H1082   1.082   .     S
N1083  O1084   1.301   .     A
N1083  O1085   1.301   .     A
N1086  O1088   1.301   .     A
N1086  O1087   1.301   .     A
O1093  C1097   1.290   .     A
O1093  Cu1105  1.960   .     S
O1094  C1098   1.290   .     A
O1094  Cu1106  1.960   .     S
O1095  Cu1106  1.959   .     S
O1095  C1097   1.291   .     A
O1096  C1098   1.291   .     A
O1096  Cu1105  1.959   .     S
C1097  C1118   1.447   .     S
C1098  C1117   1.447   .     S
O1099  C1103   1.287   .     A
O1099  Cu1105  1.956   .     S
O1100  C1104   1.287   .     A
O1100  Cu1106  1.956   .     S
O1101  Cu1106  1.959   .     S
O1101  C1103   1.290   .     A
O1102  C1104   1.290   .     A
O1102  Cu1105  1.959   .     S
C1103  C1109   1.435   .     S
C1104  C1110   1.435   .     S
Cu1105 Cu1106  2.682   .     S
Cu1105 N1107   2.016   .     S
Cu1106 N1108   2.016   .     S
N1107  C1120   1.369   .     A
N1107  C1121   1.366   .     A
N1108  C1119   1.369   .     A
N1108  C1122   1.366   .     A
C1110  C1025   1.336   1_655 S
C1110  H1028   1.087   1_655 S
H1111  C1025   1.087   1_655 S
C1113  C1118   1.409   .     A
C1113  N1125   1.438   .     S
C1114  N1128   1.438   .     S
C1114  C1117   1.409   .     A
C1114  C864    1.392   1_565 S
C1115  F1131   1.360   .     S
C1115  C1117   1.402   .     A
C1115  C861    1.392   1_565 S
C1116  F1132   1.360   .     S
C1116  C1118   1.402   .     A
C1119  F1133   1.355   .     S
C1120  F1134   1.355   .     S
C1120  C366    1.417   1_556 S
C1121  H1123   1.082   .     S
C1121  C363    1.417   1_556 S
C1122  H1124   1.082   .     S
N1125  O1126   1.301   .     A
N1125  O1127   1.301   .     A
N1128  O1130   1.301   .     A
N1128  O1129   1.301   .     A
