data_str_m1_o10_o16_pcu_sym.244
_audit_creation_date              2020-01-03
_audit_creation_method            'Materials Studio'
_symmetry_space_group_name_H-M    'P1'
_symmetry_Int_Tables_number       1
_symmetry_cell_setting            triclinic
loop_
_symmetry_equiv_pos_as_xyz
  x,y,z
_cell_length_a                    32.5556
_cell_length_b                    32.5301
_cell_length_c                    31.1240
_cell_angle_alpha                 96.7518
_cell_angle_beta                  74.7337
_cell_angle_gamma                 98.6510
loop_
_atom_site_label
_atom_site_type_symbol
_atom_site_fract_x
_atom_site_fract_y
_atom_site_fract_z
_atom_site_U_iso_or_equiv
_atom_site_adp_type
_atom_site_occupancy
C1     C     0.05272   0.15960   0.26001   0.00000  Uiso   1.00
C2     C     0.17357   0.16705   0.05977   0.00000  Uiso   1.00
C3     C     0.20435   0.10305   0.05952   0.00000  Uiso   1.00
C4     C     0.28076   0.17382   0.23996   0.00000  Uiso   1.00
C5     C     0.14430   0.19601   0.41885   0.00000  Uiso   1.00
C6     C     0.32668   0.17656   0.23575   0.00000  Uiso   1.00
C7     C     0.00748   0.15728   0.26366   0.00000  Uiso   1.00
C8     C     0.18049   0.32245   0.23637   0.00000  Uiso   1.00
C9     C     0.15180   0.01174   0.26360   0.00000  Uiso   1.00
C10    C     0.15596   0.05589   0.26025   0.00000  Uiso   1.00
C11    C     0.17656   0.27789   0.24015   0.00000  Uiso   1.00
C12    C     0.15444   0.25413   0.47306   0.00000  Uiso   1.00
C13    C     0.18531   0.14785   0.12947   0.00000  Uiso   1.00
C14    C     0.14823   0.18450   0.37090   0.00000  Uiso   1.00
C15    C     0.19800   0.09022   0.01735   0.00000  Uiso   1.00
C16    C     0.19050   0.14061   0.08148   0.00000  Uiso   1.00
C17    C     0.14291   0.23852   0.43384   0.00000  Uiso   1.00
C18    C     0.16670   0.22770   0.49799   0.00000  Uiso   1.00
C19    C     0.16252   0.18413   0.48755   0.00000  Uiso   1.00
C20    C     0.15107   0.16780   0.44717   0.00000  Uiso   1.00
C21    C     0.17275   0.15664   0.01441   0.00000  Uiso   1.00
C22    C     0.18039   0.11578   0.49569   0.00000  Uiso   1.00
C23    C     0.16694   0.09953   0.45751   0.00000  Uiso   1.00
C24    C     0.14840   0.12403   0.43602   0.00000  Uiso   1.00
Cl25   Cl    0.22523   0.06907   0.08614   0.00000  Uiso   1.00
Cl26   Cl    0.14287   0.20527   0.09376   0.00000  Uiso   1.00
Cl27   Cl    0.15750   0.30789   0.48914   0.00000  Uiso   1.00
Cl28   Cl    0.11740   0.09692   0.40028   0.00000  Uiso   1.00
F29    F     0.21362   0.00728   0.20496   0.00000  Uiso   1.00
F30    F     0.13505   0.26589   0.40805   0.00000  Uiso   1.00
F31    F     0.02136   0.19873   0.20338   0.00000  Uiso   1.00
H32    H     0.31904   0.13961   0.28984   0.00000  Uiso   1.00
H33    H     0.12500   0.33125   0.28873   0.00000  Uiso   1.00
H34    H     0.16781   0.06674   0.44636   0.00000  Uiso   1.00
H35    H     0.20556   0.05968   0.00211   0.00000  Uiso   1.00
H36    H     0.18127   0.24210   0.02432   0.00000  Uiso   1.00
O37    O     0.16667   0.16667   0.25000   0.00000  Uiso   1.00
O38    O     0.15451   0.12637   0.15459   0.00000  Uiso   1.00
O39    O     0.12940   0.20391   0.34968   0.00000  Uiso   1.00
O40    O     0.20824   0.17759   0.14606   0.00000  Uiso   1.00
O41    O     0.17451   0.15880   0.34968   0.00000  Uiso   1.00
O42    O     0.17930   0.08019   0.28214   0.00000  Uiso   1.00
O43    O     0.14632   0.26085   0.27014   0.00000  Uiso   1.00
O44    O     0.07412   0.13291   0.23413   0.00000  Uiso   1.00
O45    O     0.26693   0.19272   0.21361   0.00000  Uiso   1.00
O46    O     0.07071   0.18878   0.28213   0.00000  Uiso   1.00
O47    O     0.25491   0.15226   0.27014   0.00000  Uiso   1.00
O48    O     0.13760   0.06944   0.23413   0.00000  Uiso   1.00
O49    O     0.20345   0.25620   0.21361   0.00000  Uiso   1.00
Zn50   Zn    0.19338   0.13994   0.28734   0.00000  Uiso   1.00
Zn51   Zn    0.13379   0.12458   0.21876   0.00000  Uiso   1.00
Zn52   Zn    0.21056   0.19775   0.20657   0.00000  Uiso   1.00
Zn53   Zn    0.12893   0.20439   0.28734   0.00000  Uiso   1.00
C54    C     0.38605   0.15960   0.26001   0.00000  Uiso   1.00
C55    C     0.50690   0.16705   0.05977   0.00000  Uiso   1.00
C56    C     0.53769   0.10305   0.05952   0.00000  Uiso   1.00
C57    C     0.61409   0.17382   0.23996   0.00000  Uiso   1.00
C58    C     0.47763   0.19601   0.41885   0.00000  Uiso   1.00
C59    C     0.66001   0.17656   0.23575   0.00000  Uiso   1.00
C60    C     0.34081   0.15728   0.26366   0.00000  Uiso   1.00
C61    C     0.51383   0.32245   0.23637   0.00000  Uiso   1.00
C62    C     0.48513   0.01174   0.26360   0.00000  Uiso   1.00
C63    C     0.48929   0.05589   0.26025   0.00000  Uiso   1.00
C64    C     0.50989   0.27789   0.24015   0.00000  Uiso   1.00
C65    C     0.48777   0.25413   0.47306   0.00000  Uiso   1.00
C66    C     0.51864   0.14785   0.12947   0.00000  Uiso   1.00
C67    C     0.48156   0.18450   0.37090   0.00000  Uiso   1.00
C68    C     0.53133   0.09022   0.01735   0.00000  Uiso   1.00
C69    C     0.52383   0.14061   0.08148   0.00000  Uiso   1.00
C70    C     0.47624   0.23852   0.43384   0.00000  Uiso   1.00
C71    C     0.50003   0.22770   0.49799   0.00000  Uiso   1.00
C72    C     0.49585   0.18413   0.48755   0.00000  Uiso   1.00
C73    C     0.48440   0.16780   0.44717   0.00000  Uiso   1.00
C74    C     0.50609   0.15664   0.01441   0.00000  Uiso   1.00
C75    C     0.51372   0.11578   0.49569   0.00000  Uiso   1.00
C76    C     0.50027   0.09953   0.45751   0.00000  Uiso   1.00
C77    C     0.48174   0.12403   0.43602   0.00000  Uiso   1.00
Cl78   Cl    0.55856   0.06907   0.08614   0.00000  Uiso   1.00
Cl79   Cl    0.47620   0.20527   0.09376   0.00000  Uiso   1.00
Cl80   Cl    0.49083   0.30789   0.48914   0.00000  Uiso   1.00
Cl81   Cl    0.45074   0.09692   0.40028   0.00000  Uiso   1.00
F82    F     0.54695   0.00728   0.20496   0.00000  Uiso   1.00
F83    F     0.46838   0.26589   0.40805   0.00000  Uiso   1.00
F84    F     0.35470   0.19873   0.20338   0.00000  Uiso   1.00
H85    H     0.65237   0.13961   0.28984   0.00000  Uiso   1.00
H86    H     0.45834   0.33125   0.28873   0.00000  Uiso   1.00
H87    H     0.50114   0.06674   0.44636   0.00000  Uiso   1.00
H88    H     0.53889   0.05968   0.00211   0.00000  Uiso   1.00
H89    H     0.51460   0.24210   0.02432   0.00000  Uiso   1.00
O90    O     0.50000   0.16667   0.25000   0.00000  Uiso   1.00
O91    O     0.48784   0.12637   0.15459   0.00000  Uiso   1.00
O92    O     0.46274   0.20391   0.34968   0.00000  Uiso   1.00
O93    O     0.54157   0.17759   0.14606   0.00000  Uiso   1.00
O94    O     0.50785   0.15880   0.34968   0.00000  Uiso   1.00
O95    O     0.51264   0.08019   0.28214   0.00000  Uiso   1.00
O96    O     0.47965   0.26085   0.27014   0.00000  Uiso   1.00
O97    O     0.40745   0.13291   0.23413   0.00000  Uiso   1.00
O98    O     0.60026   0.19272   0.21361   0.00000  Uiso   1.00
O99    O     0.40405   0.18878   0.28213   0.00000  Uiso   1.00
O100   O     0.58824   0.15226   0.27014   0.00000  Uiso   1.00
O101   O     0.47093   0.06944   0.23413   0.00000  Uiso   1.00
O102   O     0.53678   0.25620   0.21361   0.00000  Uiso   1.00
Zn103  Zn    0.52672   0.13994   0.28734   0.00000  Uiso   1.00
Zn104  Zn    0.46713   0.12458   0.21876   0.00000  Uiso   1.00
Zn105  Zn    0.54389   0.19775   0.20657   0.00000  Uiso   1.00
Zn106  Zn    0.46226   0.20439   0.28734   0.00000  Uiso   1.00
C107   C     0.71939   0.15960   0.26001   0.00000  Uiso   1.00
C108   C     0.84024   0.16705   0.05977   0.00000  Uiso   1.00
C109   C     0.87102   0.10305   0.05952   0.00000  Uiso   1.00
C110   C     0.94743   0.17382   0.23996   0.00000  Uiso   1.00
C111   C     0.81097   0.19601   0.41885   0.00000  Uiso   1.00
C112   C     0.99335   0.17656   0.23575   0.00000  Uiso   1.00
C113   C     0.67415   0.15728   0.26366   0.00000  Uiso   1.00
C114   C     0.84716   0.32245   0.23637   0.00000  Uiso   1.00
C115   C     0.81846   0.01174   0.26360   0.00000  Uiso   1.00
C116   C     0.82263   0.05589   0.26025   0.00000  Uiso   1.00
C117   C     0.84322   0.27789   0.24015   0.00000  Uiso   1.00
C118   C     0.82110   0.25413   0.47306   0.00000  Uiso   1.00
C119   C     0.85198   0.14785   0.12947   0.00000  Uiso   1.00
C120   C     0.81489   0.18450   0.37090   0.00000  Uiso   1.00
C121   C     0.86466   0.09022   0.01735   0.00000  Uiso   1.00
C122   C     0.85716   0.14061   0.08148   0.00000  Uiso   1.00
C123   C     0.80958   0.23852   0.43384   0.00000  Uiso   1.00
C124   C     0.83336   0.22770   0.49799   0.00000  Uiso   1.00
C125   C     0.82918   0.18413   0.48755   0.00000  Uiso   1.00
C126   C     0.81774   0.16780   0.44717   0.00000  Uiso   1.00
C127   C     0.83942   0.15664   0.01441   0.00000  Uiso   1.00
C128   C     0.84706   0.11578   0.49569   0.00000  Uiso   1.00
C129   C     0.83361   0.09953   0.45751   0.00000  Uiso   1.00
C130   C     0.81507   0.12403   0.43602   0.00000  Uiso   1.00
Cl131  Cl    0.89190   0.06907   0.08614   0.00000  Uiso   1.00
Cl132  Cl    0.80954   0.20527   0.09376   0.00000  Uiso   1.00
Cl133  Cl    0.82417   0.30789   0.48914   0.00000  Uiso   1.00
Cl134  Cl    0.78407   0.09692   0.40028   0.00000  Uiso   1.00
F135   F     0.88029   0.00728   0.20496   0.00000  Uiso   1.00
F136   F     0.80171   0.26589   0.40805   0.00000  Uiso   1.00
F137   F     0.68803   0.19873   0.20338   0.00000  Uiso   1.00
H138   H     0.98571   0.13961   0.28984   0.00000  Uiso   1.00
H139   H     0.79167   0.33125   0.28873   0.00000  Uiso   1.00
H140   H     0.83447   0.06674   0.44636   0.00000  Uiso   1.00
H141   H     0.87223   0.05968   0.00211   0.00000  Uiso   1.00
H142   H     0.84793   0.24210   0.02432   0.00000  Uiso   1.00
O143   O     0.83333   0.16667   0.25000   0.00000  Uiso   1.00
O144   O     0.82118   0.12637   0.15459   0.00000  Uiso   1.00
O145   O     0.79607   0.20391   0.34968   0.00000  Uiso   1.00
O146   O     0.87491   0.17759   0.14606   0.00000  Uiso   1.00
O147   O     0.84118   0.15880   0.34968   0.00000  Uiso   1.00
O148   O     0.84597   0.08019   0.28214   0.00000  Uiso   1.00
O149   O     0.81298   0.26085   0.27014   0.00000  Uiso   1.00
O150   O     0.74078   0.13291   0.23413   0.00000  Uiso   1.00
O151   O     0.93360   0.19272   0.21361   0.00000  Uiso   1.00
O152   O     0.73738   0.18878   0.28213   0.00000  Uiso   1.00
O153   O     0.92158   0.15226   0.27014   0.00000  Uiso   1.00
O154   O     0.80426   0.06944   0.23413   0.00000  Uiso   1.00
O155   O     0.87012   0.25620   0.21361   0.00000  Uiso   1.00
Zn156  Zn    0.86005   0.13994   0.28734   0.00000  Uiso   1.00
Zn157  Zn    0.80046   0.12458   0.21876   0.00000  Uiso   1.00
Zn158  Zn    0.87723   0.19775   0.20657   0.00000  Uiso   1.00
Zn159  Zn    0.79560   0.20439   0.28734   0.00000  Uiso   1.00
C160   C     0.05272   0.49294   0.26001   0.00000  Uiso   1.00
C161   C     0.17357   0.50039   0.05977   0.00000  Uiso   1.00
C162   C     0.20435   0.43638   0.05952   0.00000  Uiso   1.00
C163   C     0.28076   0.50715   0.23996   0.00000  Uiso   1.00
C164   C     0.14430   0.52934   0.41885   0.00000  Uiso   1.00
C165   C     0.32668   0.50989   0.23575   0.00000  Uiso   1.00
C166   C     0.00748   0.49061   0.26366   0.00000  Uiso   1.00
C167   C     0.18049   0.65578   0.23637   0.00000  Uiso   1.00
C168   C     0.15180   0.34507   0.26360   0.00000  Uiso   1.00
C169   C     0.15596   0.38923   0.26025   0.00000  Uiso   1.00
C170   C     0.17656   0.61123   0.24015   0.00000  Uiso   1.00
C171   C     0.15444   0.58747   0.47306   0.00000  Uiso   1.00
C172   C     0.18531   0.48118   0.12947   0.00000  Uiso   1.00
C173   C     0.14823   0.51784   0.37090   0.00000  Uiso   1.00
C174   C     0.19800   0.42355   0.01735   0.00000  Uiso   1.00
C175   C     0.19050   0.47394   0.08148   0.00000  Uiso   1.00
C176   C     0.14291   0.57185   0.43384   0.00000  Uiso   1.00
C177   C     0.16670   0.56103   0.49799   0.00000  Uiso   1.00
C178   C     0.16252   0.51746   0.48755   0.00000  Uiso   1.00
C179   C     0.15107   0.50114   0.44717   0.00000  Uiso   1.00
C180   C     0.17275   0.48998   0.01441   0.00000  Uiso   1.00
C181   C     0.18039   0.44911   0.49569   0.00000  Uiso   1.00
C182   C     0.16694   0.43286   0.45751   0.00000  Uiso   1.00
C183   C     0.14840   0.45736   0.43602   0.00000  Uiso   1.00
Cl184  Cl    0.22523   0.40241   0.08614   0.00000  Uiso   1.00
Cl185  Cl    0.14287   0.53860   0.09376   0.00000  Uiso   1.00
Cl186  Cl    0.15750   0.64122   0.48914   0.00000  Uiso   1.00
Cl187  Cl    0.11740   0.43025   0.40028   0.00000  Uiso   1.00
F188   F     0.21362   0.34062   0.20496   0.00000  Uiso   1.00
F189   F     0.13505   0.59922   0.40805   0.00000  Uiso   1.00
F190   F     0.02136   0.53206   0.20338   0.00000  Uiso   1.00
H191   H     0.31904   0.47294   0.28984   0.00000  Uiso   1.00
H192   H     0.12500   0.66458   0.28873   0.00000  Uiso   1.00
H193   H     0.16781   0.40007   0.44636   0.00000  Uiso   1.00
H194   H     0.20556   0.39301   0.00211   0.00000  Uiso   1.00
H195   H     0.18127   0.57543   0.02432   0.00000  Uiso   1.00
O196   O     0.16667   0.50000   0.25000   0.00000  Uiso   1.00
O197   O     0.15451   0.45970   0.15459   0.00000  Uiso   1.00
O198   O     0.12940   0.53724   0.34968   0.00000  Uiso   1.00
O199   O     0.20824   0.51092   0.14606   0.00000  Uiso   1.00
O200   O     0.17451   0.49213   0.34968   0.00000  Uiso   1.00
O201   O     0.17930   0.41352   0.28214   0.00000  Uiso   1.00
O202   O     0.14632   0.59418   0.27014   0.00000  Uiso   1.00
O203   O     0.07412   0.46625   0.23413   0.00000  Uiso   1.00
O204   O     0.26693   0.52605   0.21361   0.00000  Uiso   1.00
O205   O     0.07071   0.52211   0.28213   0.00000  Uiso   1.00
O206   O     0.25491   0.48559   0.27014   0.00000  Uiso   1.00
O207   O     0.13760   0.40277   0.23413   0.00000  Uiso   1.00
O208   O     0.20345   0.58953   0.21361   0.00000  Uiso   1.00
Zn209  Zn    0.19338   0.47327   0.28734   0.00000  Uiso   1.00
Zn210  Zn    0.13379   0.45791   0.21876   0.00000  Uiso   1.00
Zn211  Zn    0.21056   0.53109   0.20657   0.00000  Uiso   1.00
Zn212  Zn    0.12893   0.53773   0.28734   0.00000  Uiso   1.00
C213   C     0.38605   0.49294   0.26001   0.00000  Uiso   1.00
C214   C     0.50690   0.50039   0.05977   0.00000  Uiso   1.00
C215   C     0.53769   0.43638   0.05952   0.00000  Uiso   1.00
C216   C     0.61409   0.50715   0.23996   0.00000  Uiso   1.00
C217   C     0.47763   0.52934   0.41885   0.00000  Uiso   1.00
C218   C     0.66001   0.50989   0.23575   0.00000  Uiso   1.00
C219   C     0.34081   0.49061   0.26366   0.00000  Uiso   1.00
C220   C     0.51383   0.65578   0.23637   0.00000  Uiso   1.00
C221   C     0.48513   0.34507   0.26360   0.00000  Uiso   1.00
C222   C     0.48929   0.38923   0.26025   0.00000  Uiso   1.00
C223   C     0.50989   0.61123   0.24015   0.00000  Uiso   1.00
C224   C     0.48777   0.58747   0.47306   0.00000  Uiso   1.00
C225   C     0.51864   0.48118   0.12947   0.00000  Uiso   1.00
C226   C     0.48156   0.51784   0.37090   0.00000  Uiso   1.00
C227   C     0.53133   0.42355   0.01735   0.00000  Uiso   1.00
C228   C     0.52383   0.47394   0.08148   0.00000  Uiso   1.00
C229   C     0.47624   0.57185   0.43384   0.00000  Uiso   1.00
C230   C     0.50003   0.56103   0.49799   0.00000  Uiso   1.00
C231   C     0.49585   0.51746   0.48755   0.00000  Uiso   1.00
C232   C     0.48440   0.50114   0.44717   0.00000  Uiso   1.00
C233   C     0.50609   0.48998   0.01441   0.00000  Uiso   1.00
C234   C     0.51372   0.44911   0.49569   0.00000  Uiso   1.00
C235   C     0.50027   0.43286   0.45751   0.00000  Uiso   1.00
C236   C     0.48174   0.45736   0.43602   0.00000  Uiso   1.00
Cl237  Cl    0.55856   0.40241   0.08614   0.00000  Uiso   1.00
Cl238  Cl    0.47620   0.53860   0.09376   0.00000  Uiso   1.00
Cl239  Cl    0.49083   0.64122   0.48914   0.00000  Uiso   1.00
Cl240  Cl    0.45074   0.43025   0.40028   0.00000  Uiso   1.00
F241   F     0.54695   0.34062   0.20496   0.00000  Uiso   1.00
F242   F     0.46838   0.59922   0.40805   0.00000  Uiso   1.00
F243   F     0.35470   0.53206   0.20338   0.00000  Uiso   1.00
H244   H     0.65237   0.47294   0.28984   0.00000  Uiso   1.00
H245   H     0.45834   0.66458   0.28873   0.00000  Uiso   1.00
H246   H     0.50114   0.40007   0.44636   0.00000  Uiso   1.00
H247   H     0.53889   0.39301   0.00211   0.00000  Uiso   1.00
H248   H     0.51460   0.57543   0.02432   0.00000  Uiso   1.00
O249   O     0.50000   0.50000   0.25000   0.00000  Uiso   1.00
O250   O     0.48784   0.45970   0.15459   0.00000  Uiso   1.00
O251   O     0.46274   0.53724   0.34968   0.00000  Uiso   1.00
O252   O     0.54157   0.51092   0.14606   0.00000  Uiso   1.00
O253   O     0.50785   0.49213   0.34968   0.00000  Uiso   1.00
O254   O     0.51264   0.41352   0.28214   0.00000  Uiso   1.00
O255   O     0.47965   0.59418   0.27014   0.00000  Uiso   1.00
O256   O     0.40745   0.46625   0.23413   0.00000  Uiso   1.00
O257   O     0.60026   0.52605   0.21361   0.00000  Uiso   1.00
O258   O     0.40405   0.52211   0.28213   0.00000  Uiso   1.00
O259   O     0.58824   0.48559   0.27014   0.00000  Uiso   1.00
O260   O     0.47093   0.40277   0.23413   0.00000  Uiso   1.00
O261   O     0.53678   0.58953   0.21361   0.00000  Uiso   1.00
Zn262  Zn    0.52672   0.47327   0.28734   0.00000  Uiso   1.00
Zn263  Zn    0.46713   0.45791   0.21876   0.00000  Uiso   1.00
Zn264  Zn    0.54389   0.53109   0.20657   0.00000  Uiso   1.00
Zn265  Zn    0.46226   0.53773   0.28734   0.00000  Uiso   1.00
C266   C     0.71939   0.49294   0.26001   0.00000  Uiso   1.00
C267   C     0.84024   0.50039   0.05977   0.00000  Uiso   1.00
C268   C     0.87102   0.43638   0.05952   0.00000  Uiso   1.00
C269   C     0.94743   0.50715   0.23996   0.00000  Uiso   1.00
C270   C     0.81097   0.52934   0.41885   0.00000  Uiso   1.00
C271   C     0.99335   0.50989   0.23575   0.00000  Uiso   1.00
C272   C     0.67415   0.49061   0.26366   0.00000  Uiso   1.00
C273   C     0.84716   0.65578   0.23637   0.00000  Uiso   1.00
C274   C     0.81846   0.34507   0.26360   0.00000  Uiso   1.00
C275   C     0.82263   0.38923   0.26025   0.00000  Uiso   1.00
C276   C     0.84322   0.61123   0.24015   0.00000  Uiso   1.00
C277   C     0.82110   0.58747   0.47306   0.00000  Uiso   1.00
C278   C     0.85198   0.48118   0.12947   0.00000  Uiso   1.00
C279   C     0.81489   0.51784   0.37090   0.00000  Uiso   1.00
C280   C     0.86466   0.42355   0.01735   0.00000  Uiso   1.00
C281   C     0.85716   0.47394   0.08148   0.00000  Uiso   1.00
C282   C     0.80958   0.57185   0.43384   0.00000  Uiso   1.00
C283   C     0.83336   0.56103   0.49799   0.00000  Uiso   1.00
C284   C     0.82918   0.51746   0.48755   0.00000  Uiso   1.00
C285   C     0.81774   0.50114   0.44717   0.00000  Uiso   1.00
C286   C     0.83942   0.48998   0.01441   0.00000  Uiso   1.00
C287   C     0.84706   0.44911   0.49569   0.00000  Uiso   1.00
C288   C     0.83361   0.43286   0.45751   0.00000  Uiso   1.00
C289   C     0.81507   0.45736   0.43602   0.00000  Uiso   1.00
Cl290  Cl    0.89190   0.40241   0.08614   0.00000  Uiso   1.00
Cl291  Cl    0.80954   0.53860   0.09376   0.00000  Uiso   1.00
Cl292  Cl    0.82417   0.64122   0.48914   0.00000  Uiso   1.00
Cl293  Cl    0.78407   0.43025   0.40028   0.00000  Uiso   1.00
F294   F     0.88029   0.34062   0.20496   0.00000  Uiso   1.00
F295   F     0.80171   0.59922   0.40805   0.00000  Uiso   1.00
F296   F     0.68803   0.53206   0.20338   0.00000  Uiso   1.00
H297   H     0.98571   0.47294   0.28984   0.00000  Uiso   1.00
H298   H     0.79167   0.66458   0.28873   0.00000  Uiso   1.00
H299   H     0.83447   0.40007   0.44636   0.00000  Uiso   1.00
H300   H     0.87223   0.39301   0.00211   0.00000  Uiso   1.00
H301   H     0.84793   0.57543   0.02432   0.00000  Uiso   1.00
O302   O     0.83333   0.50000   0.25000   0.00000  Uiso   1.00
O303   O     0.82118   0.45970   0.15459   0.00000  Uiso   1.00
O304   O     0.79607   0.53724   0.34968   0.00000  Uiso   1.00
O305   O     0.87491   0.51092   0.14606   0.00000  Uiso   1.00
O306   O     0.84118   0.49213   0.34968   0.00000  Uiso   1.00
O307   O     0.84597   0.41352   0.28214   0.00000  Uiso   1.00
O308   O     0.81298   0.59418   0.27014   0.00000  Uiso   1.00
O309   O     0.74078   0.46625   0.23413   0.00000  Uiso   1.00
O310   O     0.93360   0.52605   0.21361   0.00000  Uiso   1.00
O311   O     0.73738   0.52211   0.28213   0.00000  Uiso   1.00
O312   O     0.92158   0.48559   0.27014   0.00000  Uiso   1.00
O313   O     0.80426   0.40277   0.23413   0.00000  Uiso   1.00
O314   O     0.87012   0.58953   0.21361   0.00000  Uiso   1.00
Zn315  Zn    0.86005   0.47327   0.28734   0.00000  Uiso   1.00
Zn316  Zn    0.80046   0.45791   0.21876   0.00000  Uiso   1.00
Zn317  Zn    0.87723   0.53109   0.20657   0.00000  Uiso   1.00
Zn318  Zn    0.79560   0.53773   0.28734   0.00000  Uiso   1.00
C319   C     0.05272   0.82627   0.26001   0.00000  Uiso   1.00
C320   C     0.17357   0.83372   0.05977   0.00000  Uiso   1.00
C321   C     0.20435   0.76971   0.05952   0.00000  Uiso   1.00
C322   C     0.28076   0.84048   0.23996   0.00000  Uiso   1.00
C323   C     0.14430   0.86268   0.41885   0.00000  Uiso   1.00
C324   C     0.32668   0.84323   0.23575   0.00000  Uiso   1.00
C325   C     0.00748   0.82395   0.26366   0.00000  Uiso   1.00
C326   C     0.18049   0.98911   0.23637   0.00000  Uiso   1.00
C327   C     0.15180   0.67840   0.26360   0.00000  Uiso   1.00
C328   C     0.15596   0.72256   0.26025   0.00000  Uiso   1.00
C329   C     0.17656   0.94456   0.24015   0.00000  Uiso   1.00
C330   C     0.15444   0.92080   0.47306   0.00000  Uiso   1.00
C331   C     0.18531   0.81451   0.12947   0.00000  Uiso   1.00
C332   C     0.14823   0.85117   0.37090   0.00000  Uiso   1.00
C333   C     0.19800   0.75689   0.01735   0.00000  Uiso   1.00
C334   C     0.19050   0.80727   0.08148   0.00000  Uiso   1.00
C335   C     0.14291   0.90518   0.43384   0.00000  Uiso   1.00
C336   C     0.16670   0.89437   0.49799   0.00000  Uiso   1.00
C337   C     0.16252   0.85079   0.48755   0.00000  Uiso   1.00
C338   C     0.15107   0.83447   0.44717   0.00000  Uiso   1.00
C339   C     0.17275   0.82331   0.01441   0.00000  Uiso   1.00
C340   C     0.18039   0.78244   0.49569   0.00000  Uiso   1.00
C341   C     0.16694   0.76620   0.45751   0.00000  Uiso   1.00
C342   C     0.14840   0.79069   0.43602   0.00000  Uiso   1.00
Cl343  Cl    0.22523   0.73574   0.08614   0.00000  Uiso   1.00
Cl344  Cl    0.14287   0.87194   0.09376   0.00000  Uiso   1.00
Cl345  Cl    0.15750   0.97456   0.48914   0.00000  Uiso   1.00
Cl346  Cl    0.11740   0.76358   0.40028   0.00000  Uiso   1.00
F347   F     0.21362   0.67395   0.20496   0.00000  Uiso   1.00
F348   F     0.13505   0.93256   0.40805   0.00000  Uiso   1.00
F349   F     0.02136   0.86539   0.20338   0.00000  Uiso   1.00
H350   H     0.31904   0.80628   0.28984   0.00000  Uiso   1.00
H351   H     0.12500   0.99792   0.28873   0.00000  Uiso   1.00
H352   H     0.16781   0.73340   0.44636   0.00000  Uiso   1.00
H353   H     0.20556   0.72635   0.00211   0.00000  Uiso   1.00
H354   H     0.18127   0.90876   0.02432   0.00000  Uiso   1.00
O355   O     0.16667   0.83333   0.25000   0.00000  Uiso   1.00
O356   O     0.15451   0.79304   0.15459   0.00000  Uiso   1.00
O357   O     0.12940   0.87058   0.34968   0.00000  Uiso   1.00
O358   O     0.20824   0.84425   0.14606   0.00000  Uiso   1.00
O359   O     0.17451   0.82546   0.34968   0.00000  Uiso   1.00
O360   O     0.17930   0.74686   0.28214   0.00000  Uiso   1.00
O361   O     0.14632   0.92751   0.27014   0.00000  Uiso   1.00
O362   O     0.07412   0.79958   0.23413   0.00000  Uiso   1.00
O363   O     0.26693   0.85939   0.21361   0.00000  Uiso   1.00
O364   O     0.07071   0.85544   0.28213   0.00000  Uiso   1.00
O365   O     0.25491   0.81892   0.27014   0.00000  Uiso   1.00
O366   O     0.13760   0.73610   0.23413   0.00000  Uiso   1.00
O367   O     0.20345   0.92286   0.21361   0.00000  Uiso   1.00
Zn368  Zn    0.19338   0.80661   0.28734   0.00000  Uiso   1.00
Zn369  Zn    0.13379   0.79124   0.21876   0.00000  Uiso   1.00
Zn370  Zn    0.21056   0.86442   0.20657   0.00000  Uiso   1.00
Zn371  Zn    0.12893   0.87106   0.28734   0.00000  Uiso   1.00
C372   C     0.38605   0.82627   0.26001   0.00000  Uiso   1.00
C373   C     0.50690   0.83372   0.05977   0.00000  Uiso   1.00
C374   C     0.53769   0.76971   0.05952   0.00000  Uiso   1.00
C375   C     0.61409   0.84048   0.23996   0.00000  Uiso   1.00
C376   C     0.47763   0.86268   0.41885   0.00000  Uiso   1.00
C377   C     0.66001   0.84323   0.23575   0.00000  Uiso   1.00
C378   C     0.34081   0.82395   0.26366   0.00000  Uiso   1.00
C379   C     0.51383   0.98911   0.23637   0.00000  Uiso   1.00
C380   C     0.48513   0.67840   0.26360   0.00000  Uiso   1.00
C381   C     0.48929   0.72256   0.26025   0.00000  Uiso   1.00
C382   C     0.50989   0.94456   0.24015   0.00000  Uiso   1.00
C383   C     0.48777   0.92080   0.47306   0.00000  Uiso   1.00
C384   C     0.51864   0.81451   0.12947   0.00000  Uiso   1.00
C385   C     0.48156   0.85117   0.37090   0.00000  Uiso   1.00
C386   C     0.53133   0.75689   0.01735   0.00000  Uiso   1.00
C387   C     0.52383   0.80727   0.08148   0.00000  Uiso   1.00
C388   C     0.47624   0.90518   0.43384   0.00000  Uiso   1.00
C389   C     0.50003   0.89437   0.49799   0.00000  Uiso   1.00
C390   C     0.49585   0.85079   0.48755   0.00000  Uiso   1.00
C391   C     0.48440   0.83447   0.44717   0.00000  Uiso   1.00
C392   C     0.50609   0.82331   0.01441   0.00000  Uiso   1.00
C393   C     0.51372   0.78244   0.49569   0.00000  Uiso   1.00
C394   C     0.50027   0.76620   0.45751   0.00000  Uiso   1.00
C395   C     0.48174   0.79069   0.43602   0.00000  Uiso   1.00
Cl396  Cl    0.55856   0.73574   0.08614   0.00000  Uiso   1.00
Cl397  Cl    0.47620   0.87194   0.09376   0.00000  Uiso   1.00
Cl398  Cl    0.49083   0.97456   0.48914   0.00000  Uiso   1.00
Cl399  Cl    0.45074   0.76358   0.40028   0.00000  Uiso   1.00
F400   F     0.54695   0.67395   0.20496   0.00000  Uiso   1.00
F401   F     0.46838   0.93256   0.40805   0.00000  Uiso   1.00
F402   F     0.35470   0.86539   0.20338   0.00000  Uiso   1.00
H403   H     0.65237   0.80628   0.28984   0.00000  Uiso   1.00
H404   H     0.45834   0.99792   0.28873   0.00000  Uiso   1.00
H405   H     0.50114   0.73340   0.44636   0.00000  Uiso   1.00
H406   H     0.53889   0.72635   0.00211   0.00000  Uiso   1.00
H407   H     0.51460   0.90876   0.02432   0.00000  Uiso   1.00
O408   O     0.50000   0.83333   0.25000   0.00000  Uiso   1.00
O409   O     0.48784   0.79304   0.15459   0.00000  Uiso   1.00
O410   O     0.46274   0.87058   0.34968   0.00000  Uiso   1.00
O411   O     0.54157   0.84425   0.14606   0.00000  Uiso   1.00
O412   O     0.50785   0.82546   0.34968   0.00000  Uiso   1.00
O413   O     0.51264   0.74686   0.28214   0.00000  Uiso   1.00
O414   O     0.47965   0.92751   0.27014   0.00000  Uiso   1.00
O415   O     0.40745   0.79958   0.23413   0.00000  Uiso   1.00
O416   O     0.60026   0.85939   0.21361   0.00000  Uiso   1.00
O417   O     0.40405   0.85544   0.28213   0.00000  Uiso   1.00
O418   O     0.58824   0.81892   0.27014   0.00000  Uiso   1.00
O419   O     0.47093   0.73610   0.23413   0.00000  Uiso   1.00
O420   O     0.53678   0.92286   0.21361   0.00000  Uiso   1.00
Zn421  Zn    0.52672   0.80661   0.28734   0.00000  Uiso   1.00
Zn422  Zn    0.46713   0.79124   0.21876   0.00000  Uiso   1.00
Zn423  Zn    0.54389   0.86442   0.20657   0.00000  Uiso   1.00
Zn424  Zn    0.46226   0.87106   0.28734   0.00000  Uiso   1.00
C425   C     0.71939   0.82627   0.26001   0.00000  Uiso   1.00
C426   C     0.84024   0.83372   0.05977   0.00000  Uiso   1.00
C427   C     0.87102   0.76971   0.05952   0.00000  Uiso   1.00
C428   C     0.94743   0.84048   0.23996   0.00000  Uiso   1.00
C429   C     0.81097   0.86268   0.41885   0.00000  Uiso   1.00
C430   C     0.99335   0.84323   0.23575   0.00000  Uiso   1.00
C431   C     0.67415   0.82395   0.26366   0.00000  Uiso   1.00
C432   C     0.84716   0.98911   0.23637   0.00000  Uiso   1.00
C433   C     0.81846   0.67840   0.26360   0.00000  Uiso   1.00
C434   C     0.82263   0.72256   0.26025   0.00000  Uiso   1.00
C435   C     0.84322   0.94456   0.24015   0.00000  Uiso   1.00
C436   C     0.82110   0.92080   0.47306   0.00000  Uiso   1.00
C437   C     0.85198   0.81451   0.12947   0.00000  Uiso   1.00
C438   C     0.81489   0.85117   0.37090   0.00000  Uiso   1.00
C439   C     0.86466   0.75689   0.01735   0.00000  Uiso   1.00
C440   C     0.85716   0.80727   0.08148   0.00000  Uiso   1.00
C441   C     0.80958   0.90518   0.43384   0.00000  Uiso   1.00
C442   C     0.83336   0.89437   0.49799   0.00000  Uiso   1.00
C443   C     0.82918   0.85079   0.48755   0.00000  Uiso   1.00
C444   C     0.81774   0.83447   0.44717   0.00000  Uiso   1.00
C445   C     0.83942   0.82331   0.01441   0.00000  Uiso   1.00
C446   C     0.84706   0.78244   0.49569   0.00000  Uiso   1.00
C447   C     0.83361   0.76620   0.45751   0.00000  Uiso   1.00
C448   C     0.81507   0.79069   0.43602   0.00000  Uiso   1.00
Cl449  Cl    0.89190   0.73574   0.08614   0.00000  Uiso   1.00
Cl450  Cl    0.80954   0.87194   0.09376   0.00000  Uiso   1.00
Cl451  Cl    0.82417   0.97456   0.48914   0.00000  Uiso   1.00
Cl452  Cl    0.78407   0.76358   0.40028   0.00000  Uiso   1.00
F453   F     0.88029   0.67395   0.20496   0.00000  Uiso   1.00
F454   F     0.80171   0.93256   0.40805   0.00000  Uiso   1.00
F455   F     0.68803   0.86539   0.20338   0.00000  Uiso   1.00
H456   H     0.98571   0.80628   0.28984   0.00000  Uiso   1.00
H457   H     0.79167   0.99792   0.28873   0.00000  Uiso   1.00
H458   H     0.83447   0.73340   0.44636   0.00000  Uiso   1.00
H459   H     0.87223   0.72635   0.00211   0.00000  Uiso   1.00
H460   H     0.84793   0.90876   0.02432   0.00000  Uiso   1.00
O461   O     0.83333   0.83333   0.25000   0.00000  Uiso   1.00
O462   O     0.82118   0.79304   0.15459   0.00000  Uiso   1.00
O463   O     0.79607   0.87058   0.34968   0.00000  Uiso   1.00
O464   O     0.87491   0.84425   0.14606   0.00000  Uiso   1.00
O465   O     0.84118   0.82546   0.34968   0.00000  Uiso   1.00
O466   O     0.84597   0.74686   0.28214   0.00000  Uiso   1.00
O467   O     0.81298   0.92751   0.27014   0.00000  Uiso   1.00
O468   O     0.74078   0.79958   0.23413   0.00000  Uiso   1.00
O469   O     0.93360   0.85939   0.21361   0.00000  Uiso   1.00
O470   O     0.73738   0.85544   0.28213   0.00000  Uiso   1.00
O471   O     0.92158   0.81892   0.27014   0.00000  Uiso   1.00
O472   O     0.80426   0.73610   0.23413   0.00000  Uiso   1.00
O473   O     0.87012   0.92286   0.21361   0.00000  Uiso   1.00
Zn474  Zn    0.86005   0.80661   0.28734   0.00000  Uiso   1.00
Zn475  Zn    0.80046   0.79124   0.21876   0.00000  Uiso   1.00
Zn476  Zn    0.87723   0.86442   0.20657   0.00000  Uiso   1.00
Zn477  Zn    0.79560   0.87106   0.28734   0.00000  Uiso   1.00
C478   C     0.05272   0.15960   0.76001   0.00000  Uiso   1.00
C479   C     0.17357   0.16705   0.55977   0.00000  Uiso   1.00
C480   C     0.20435   0.10305   0.55952   0.00000  Uiso   1.00
C481   C     0.28076   0.17382   0.73996   0.00000  Uiso   1.00
C482   C     0.14430   0.19601   0.91885   0.00000  Uiso   1.00
C483   C     0.32668   0.17656   0.73575   0.00000  Uiso   1.00
C484   C     0.00748   0.15728   0.76366   0.00000  Uiso   1.00
C485   C     0.18049   0.32245   0.73637   0.00000  Uiso   1.00
C486   C     0.15180   0.01174   0.76360   0.00000  Uiso   1.00
C487   C     0.15596   0.05589   0.76025   0.00000  Uiso   1.00
C488   C     0.17656   0.27789   0.74015   0.00000  Uiso   1.00
C489   C     0.15444   0.25413   0.97306   0.00000  Uiso   1.00
C490   C     0.18531   0.14785   0.62947   0.00000  Uiso   1.00
C491   C     0.14823   0.18450   0.87090   0.00000  Uiso   1.00
C492   C     0.19800   0.09022   0.51735   0.00000  Uiso   1.00
C493   C     0.19050   0.14061   0.58148   0.00000  Uiso   1.00
C494   C     0.14291   0.23852   0.93384   0.00000  Uiso   1.00
C495   C     0.16670   0.22770   0.99799   0.00000  Uiso   1.00
C496   C     0.16252   0.18413   0.98755   0.00000  Uiso   1.00
C497   C     0.15107   0.16780   0.94717   0.00000  Uiso   1.00
C498   C     0.17275   0.15664   0.51441   0.00000  Uiso   1.00
C499   C     0.18039   0.11578   0.99569   0.00000  Uiso   1.00
C500   C     0.16694   0.09953   0.95751   0.00000  Uiso   1.00
C501   C     0.14840   0.12403   0.93602   0.00000  Uiso   1.00
Cl502  Cl    0.22523   0.06907   0.58614   0.00000  Uiso   1.00
Cl503  Cl    0.14287   0.20527   0.59376   0.00000  Uiso   1.00
Cl504  Cl    0.15750   0.30789   0.98914   0.00000  Uiso   1.00
Cl505  Cl    0.11740   0.09692   0.90028   0.00000  Uiso   1.00
F506   F     0.21362   0.00728   0.70496   0.00000  Uiso   1.00
F507   F     0.13505   0.26589   0.90805   0.00000  Uiso   1.00
F508   F     0.02136   0.19873   0.70338   0.00000  Uiso   1.00
H509   H     0.31904   0.13961   0.78984   0.00000  Uiso   1.00
H510   H     0.12500   0.33125   0.78873   0.00000  Uiso   1.00
H511   H     0.16781   0.06674   0.94636   0.00000  Uiso   1.00
H512   H     0.20556   0.05968   0.50211   0.00000  Uiso   1.00
H513   H     0.18127   0.24210   0.52432   0.00000  Uiso   1.00
O514   O     0.16667   0.16667   0.75000   0.00000  Uiso   1.00
O515   O     0.15451   0.12637   0.65459   0.00000  Uiso   1.00
O516   O     0.12940   0.20391   0.84968   0.00000  Uiso   1.00
O517   O     0.20824   0.17759   0.64606   0.00000  Uiso   1.00
O518   O     0.17451   0.15880   0.84968   0.00000  Uiso   1.00
O519   O     0.17930   0.08019   0.78214   0.00000  Uiso   1.00
O520   O     0.14632   0.26085   0.77014   0.00000  Uiso   1.00
O521   O     0.07412   0.13291   0.73413   0.00000  Uiso   1.00
O522   O     0.26693   0.19272   0.71361   0.00000  Uiso   1.00
O523   O     0.07071   0.18878   0.78213   0.00000  Uiso   1.00
O524   O     0.25491   0.15226   0.77014   0.00000  Uiso   1.00
O525   O     0.13760   0.06944   0.73413   0.00000  Uiso   1.00
O526   O     0.20345   0.25620   0.71361   0.00000  Uiso   1.00
Zn527  Zn    0.19338   0.13994   0.78734   0.00000  Uiso   1.00
Zn528  Zn    0.13379   0.12458   0.71876   0.00000  Uiso   1.00
Zn529  Zn    0.21056   0.19775   0.70657   0.00000  Uiso   1.00
Zn530  Zn    0.12893   0.20439   0.78734   0.00000  Uiso   1.00
C531   C     0.38605   0.15960   0.76001   0.00000  Uiso   1.00
C532   C     0.50690   0.16705   0.55977   0.00000  Uiso   1.00
C533   C     0.53769   0.10305   0.55952   0.00000  Uiso   1.00
C534   C     0.61409   0.17382   0.73996   0.00000  Uiso   1.00
C535   C     0.47763   0.19601   0.91885   0.00000  Uiso   1.00
C536   C     0.66001   0.17656   0.73575   0.00000  Uiso   1.00
C537   C     0.34081   0.15728   0.76366   0.00000  Uiso   1.00
C538   C     0.51383   0.32245   0.73637   0.00000  Uiso   1.00
C539   C     0.48513   0.01174   0.76360   0.00000  Uiso   1.00
C540   C     0.48929   0.05589   0.76025   0.00000  Uiso   1.00
C541   C     0.50989   0.27789   0.74015   0.00000  Uiso   1.00
C542   C     0.48777   0.25413   0.97306   0.00000  Uiso   1.00
C543   C     0.51864   0.14785   0.62947   0.00000  Uiso   1.00
C544   C     0.48156   0.18450   0.87090   0.00000  Uiso   1.00
C545   C     0.53133   0.09022   0.51735   0.00000  Uiso   1.00
C546   C     0.52383   0.14061   0.58148   0.00000  Uiso   1.00
C547   C     0.47624   0.23852   0.93384   0.00000  Uiso   1.00
C548   C     0.50003   0.22770   0.99799   0.00000  Uiso   1.00
C549   C     0.49585   0.18413   0.98755   0.00000  Uiso   1.00
C550   C     0.48440   0.16780   0.94717   0.00000  Uiso   1.00
C551   C     0.50609   0.15664   0.51441   0.00000  Uiso   1.00
C552   C     0.51372   0.11578   0.99569   0.00000  Uiso   1.00
C553   C     0.50027   0.09953   0.95751   0.00000  Uiso   1.00
C554   C     0.48174   0.12403   0.93602   0.00000  Uiso   1.00
Cl555  Cl    0.55856   0.06907   0.58614   0.00000  Uiso   1.00
Cl556  Cl    0.47620   0.20527   0.59376   0.00000  Uiso   1.00
Cl557  Cl    0.49083   0.30789   0.98914   0.00000  Uiso   1.00
Cl558  Cl    0.45074   0.09692   0.90028   0.00000  Uiso   1.00
F559   F     0.54695   0.00728   0.70496   0.00000  Uiso   1.00
F560   F     0.46838   0.26589   0.90805   0.00000  Uiso   1.00
F561   F     0.35470   0.19873   0.70338   0.00000  Uiso   1.00
H562   H     0.65237   0.13961   0.78984   0.00000  Uiso   1.00
H563   H     0.45834   0.33125   0.78873   0.00000  Uiso   1.00
H564   H     0.50114   0.06674   0.94636   0.00000  Uiso   1.00
H565   H     0.53889   0.05968   0.50211   0.00000  Uiso   1.00
H566   H     0.51460   0.24210   0.52432   0.00000  Uiso   1.00
O567   O     0.50000   0.16667   0.75000   0.00000  Uiso   1.00
O568   O     0.48784   0.12637   0.65459   0.00000  Uiso   1.00
O569   O     0.46274   0.20391   0.84968   0.00000  Uiso   1.00
O570   O     0.54157   0.17759   0.64606   0.00000  Uiso   1.00
O571   O     0.50785   0.15880   0.84968   0.00000  Uiso   1.00
O572   O     0.51264   0.08019   0.78214   0.00000  Uiso   1.00
O573   O     0.47965   0.26085   0.77014   0.00000  Uiso   1.00
O574   O     0.40745   0.13291   0.73413   0.00000  Uiso   1.00
O575   O     0.60026   0.19272   0.71361   0.00000  Uiso   1.00
O576   O     0.40405   0.18878   0.78213   0.00000  Uiso   1.00
O577   O     0.58824   0.15226   0.77014   0.00000  Uiso   1.00
O578   O     0.47093   0.06944   0.73413   0.00000  Uiso   1.00
O579   O     0.53678   0.25620   0.71361   0.00000  Uiso   1.00
Zn580  Zn    0.52672   0.13994   0.78734   0.00000  Uiso   1.00
Zn581  Zn    0.46713   0.12458   0.71876   0.00000  Uiso   1.00
Zn582  Zn    0.54389   0.19775   0.70657   0.00000  Uiso   1.00
Zn583  Zn    0.46226   0.20439   0.78734   0.00000  Uiso   1.00
C584   C     0.71939   0.15960   0.76001   0.00000  Uiso   1.00
C585   C     0.84024   0.16705   0.55977   0.00000  Uiso   1.00
C586   C     0.87102   0.10305   0.55952   0.00000  Uiso   1.00
C587   C     0.94743   0.17382   0.73996   0.00000  Uiso   1.00
C588   C     0.81097   0.19601   0.91885   0.00000  Uiso   1.00
C589   C     0.99335   0.17656   0.73575   0.00000  Uiso   1.00
C590   C     0.67415   0.15728   0.76366   0.00000  Uiso   1.00
C591   C     0.84716   0.32245   0.73637   0.00000  Uiso   1.00
C592   C     0.81846   0.01174   0.76360   0.00000  Uiso   1.00
C593   C     0.82263   0.05589   0.76025   0.00000  Uiso   1.00
C594   C     0.84322   0.27789   0.74015   0.00000  Uiso   1.00
C595   C     0.82110   0.25413   0.97306   0.00000  Uiso   1.00
C596   C     0.85198   0.14785   0.62947   0.00000  Uiso   1.00
C597   C     0.81489   0.18450   0.87090   0.00000  Uiso   1.00
C598   C     0.86466   0.09022   0.51735   0.00000  Uiso   1.00
C599   C     0.85716   0.14061   0.58148   0.00000  Uiso   1.00
C600   C     0.80958   0.23852   0.93384   0.00000  Uiso   1.00
C601   C     0.83336   0.22770   0.99799   0.00000  Uiso   1.00
C602   C     0.82918   0.18413   0.98755   0.00000  Uiso   1.00
C603   C     0.81774   0.16780   0.94717   0.00000  Uiso   1.00
C604   C     0.83942   0.15664   0.51441   0.00000  Uiso   1.00
C605   C     0.84706   0.11578   0.99569   0.00000  Uiso   1.00
C606   C     0.83361   0.09953   0.95751   0.00000  Uiso   1.00
C607   C     0.81507   0.12403   0.93602   0.00000  Uiso   1.00
Cl608  Cl    0.89190   0.06907   0.58614   0.00000  Uiso   1.00
Cl609  Cl    0.80954   0.20527   0.59376   0.00000  Uiso   1.00
Cl610  Cl    0.82417   0.30789   0.98914   0.00000  Uiso   1.00
Cl611  Cl    0.78407   0.09692   0.90028   0.00000  Uiso   1.00
F612   F     0.88029   0.00728   0.70496   0.00000  Uiso   1.00
F613   F     0.80171   0.26589   0.90805   0.00000  Uiso   1.00
F614   F     0.68803   0.19873   0.70338   0.00000  Uiso   1.00
H615   H     0.98571   0.13961   0.78984   0.00000  Uiso   1.00
H616   H     0.79167   0.33125   0.78873   0.00000  Uiso   1.00
H617   H     0.83447   0.06674   0.94636   0.00000  Uiso   1.00
H618   H     0.87223   0.05968   0.50211   0.00000  Uiso   1.00
H619   H     0.84793   0.24210   0.52432   0.00000  Uiso   1.00
O620   O     0.83333   0.16667   0.75000   0.00000  Uiso   1.00
O621   O     0.82118   0.12637   0.65459   0.00000  Uiso   1.00
O622   O     0.79607   0.20391   0.84968   0.00000  Uiso   1.00
O623   O     0.87491   0.17759   0.64606   0.00000  Uiso   1.00
O624   O     0.84118   0.15880   0.84968   0.00000  Uiso   1.00
O625   O     0.84597   0.08019   0.78214   0.00000  Uiso   1.00
O626   O     0.81298   0.26085   0.77014   0.00000  Uiso   1.00
O627   O     0.74078   0.13291   0.73413   0.00000  Uiso   1.00
O628   O     0.93360   0.19272   0.71361   0.00000  Uiso   1.00
O629   O     0.73738   0.18878   0.78213   0.00000  Uiso   1.00
O630   O     0.92158   0.15226   0.77014   0.00000  Uiso   1.00
O631   O     0.80426   0.06944   0.73413   0.00000  Uiso   1.00
O632   O     0.87012   0.25620   0.71361   0.00000  Uiso   1.00
Zn633  Zn    0.86005   0.13994   0.78734   0.00000  Uiso   1.00
Zn634  Zn    0.80046   0.12458   0.71876   0.00000  Uiso   1.00
Zn635  Zn    0.87723   0.19775   0.70657   0.00000  Uiso   1.00
Zn636  Zn    0.79560   0.20439   0.78734   0.00000  Uiso   1.00
C637   C     0.05272   0.49294   0.76001   0.00000  Uiso   1.00
C638   C     0.17357   0.50039   0.55977   0.00000  Uiso   1.00
C639   C     0.20435   0.43638   0.55952   0.00000  Uiso   1.00
C640   C     0.28076   0.50715   0.73996   0.00000  Uiso   1.00
C641   C     0.14430   0.52934   0.91885   0.00000  Uiso   1.00
C642   C     0.32668   0.50989   0.73575   0.00000  Uiso   1.00
C643   C     0.00748   0.49061   0.76366   0.00000  Uiso   1.00
C644   C     0.18049   0.65578   0.73637   0.00000  Uiso   1.00
C645   C     0.15180   0.34507   0.76360   0.00000  Uiso   1.00
C646   C     0.15596   0.38923   0.76025   0.00000  Uiso   1.00
C647   C     0.17656   0.61123   0.74015   0.00000  Uiso   1.00
C648   C     0.15444   0.58747   0.97306   0.00000  Uiso   1.00
C649   C     0.18531   0.48118   0.62947   0.00000  Uiso   1.00
C650   C     0.14823   0.51784   0.87090   0.00000  Uiso   1.00
C651   C     0.19800   0.42355   0.51735   0.00000  Uiso   1.00
C652   C     0.19050   0.47394   0.58148   0.00000  Uiso   1.00
C653   C     0.14291   0.57185   0.93384   0.00000  Uiso   1.00
C654   C     0.16670   0.56103   0.99799   0.00000  Uiso   1.00
C655   C     0.16252   0.51746   0.98755   0.00000  Uiso   1.00
C656   C     0.15107   0.50114   0.94717   0.00000  Uiso   1.00
C657   C     0.17275   0.48998   0.51441   0.00000  Uiso   1.00
C658   C     0.18039   0.44911   0.99569   0.00000  Uiso   1.00
C659   C     0.16694   0.43286   0.95751   0.00000  Uiso   1.00
C660   C     0.14840   0.45736   0.93602   0.00000  Uiso   1.00
Cl661  Cl    0.22523   0.40241   0.58614   0.00000  Uiso   1.00
Cl662  Cl    0.14287   0.53860   0.59376   0.00000  Uiso   1.00
Cl663  Cl    0.15750   0.64122   0.98914   0.00000  Uiso   1.00
Cl664  Cl    0.11740   0.43025   0.90028   0.00000  Uiso   1.00
F665   F     0.21362   0.34062   0.70496   0.00000  Uiso   1.00
F666   F     0.13505   0.59922   0.90805   0.00000  Uiso   1.00
F667   F     0.02136   0.53206   0.70338   0.00000  Uiso   1.00
H668   H     0.31904   0.47294   0.78984   0.00000  Uiso   1.00
H669   H     0.12500   0.66458   0.78873   0.00000  Uiso   1.00
H670   H     0.16781   0.40007   0.94636   0.00000  Uiso   1.00
H671   H     0.20556   0.39301   0.50211   0.00000  Uiso   1.00
H672   H     0.18127   0.57543   0.52432   0.00000  Uiso   1.00
O673   O     0.16667   0.50000   0.75000   0.00000  Uiso   1.00
O674   O     0.15451   0.45970   0.65459   0.00000  Uiso   1.00
O675   O     0.12940   0.53724   0.84968   0.00000  Uiso   1.00
O676   O     0.20824   0.51092   0.64606   0.00000  Uiso   1.00
O677   O     0.17451   0.49213   0.84968   0.00000  Uiso   1.00
O678   O     0.17930   0.41352   0.78214   0.00000  Uiso   1.00
O679   O     0.14632   0.59418   0.77014   0.00000  Uiso   1.00
O680   O     0.07412   0.46625   0.73413   0.00000  Uiso   1.00
O681   O     0.26693   0.52605   0.71361   0.00000  Uiso   1.00
O682   O     0.07071   0.52211   0.78213   0.00000  Uiso   1.00
O683   O     0.25491   0.48559   0.77014   0.00000  Uiso   1.00
O684   O     0.13760   0.40277   0.73413   0.00000  Uiso   1.00
O685   O     0.20345   0.58953   0.71361   0.00000  Uiso   1.00
Zn686  Zn    0.19338   0.47327   0.78734   0.00000  Uiso   1.00
Zn687  Zn    0.13379   0.45791   0.71876   0.00000  Uiso   1.00
Zn688  Zn    0.21056   0.53109   0.70657   0.00000  Uiso   1.00
Zn689  Zn    0.12893   0.53773   0.78734   0.00000  Uiso   1.00
C690   C     0.38605   0.49294   0.76001   0.00000  Uiso   1.00
C691   C     0.50690   0.50039   0.55977   0.00000  Uiso   1.00
C692   C     0.53769   0.43638   0.55952   0.00000  Uiso   1.00
C693   C     0.61409   0.50715   0.73996   0.00000  Uiso   1.00
C694   C     0.47763   0.52934   0.91885   0.00000  Uiso   1.00
C695   C     0.66001   0.50989   0.73575   0.00000  Uiso   1.00
C696   C     0.34081   0.49061   0.76366   0.00000  Uiso   1.00
C697   C     0.51383   0.65578   0.73637   0.00000  Uiso   1.00
C698   C     0.48513   0.34507   0.76360   0.00000  Uiso   1.00
C699   C     0.48929   0.38923   0.76025   0.00000  Uiso   1.00
C700   C     0.50989   0.61123   0.74015   0.00000  Uiso   1.00
C701   C     0.48777   0.58747   0.97306   0.00000  Uiso   1.00
C702   C     0.51864   0.48118   0.62947   0.00000  Uiso   1.00
C703   C     0.48156   0.51784   0.87090   0.00000  Uiso   1.00
C704   C     0.53133   0.42355   0.51735   0.00000  Uiso   1.00
C705   C     0.52383   0.47394   0.58148   0.00000  Uiso   1.00
C706   C     0.47624   0.57185   0.93384   0.00000  Uiso   1.00
C707   C     0.50003   0.56103   0.99799   0.00000  Uiso   1.00
C708   C     0.49585   0.51746   0.98755   0.00000  Uiso   1.00
C709   C     0.48440   0.50114   0.94717   0.00000  Uiso   1.00
C710   C     0.50609   0.48998   0.51441   0.00000  Uiso   1.00
C711   C     0.51372   0.44911   0.99569   0.00000  Uiso   1.00
C712   C     0.50027   0.43286   0.95751   0.00000  Uiso   1.00
C713   C     0.48174   0.45736   0.93602   0.00000  Uiso   1.00
Cl714  Cl    0.55856   0.40241   0.58614   0.00000  Uiso   1.00
Cl715  Cl    0.47620   0.53860   0.59376   0.00000  Uiso   1.00
Cl716  Cl    0.49083   0.64122   0.98914   0.00000  Uiso   1.00
Cl717  Cl    0.45074   0.43025   0.90028   0.00000  Uiso   1.00
F718   F     0.54695   0.34062   0.70496   0.00000  Uiso   1.00
F719   F     0.46838   0.59922   0.90805   0.00000  Uiso   1.00
F720   F     0.35470   0.53206   0.70338   0.00000  Uiso   1.00
H721   H     0.65237   0.47294   0.78984   0.00000  Uiso   1.00
H722   H     0.45834   0.66458   0.78873   0.00000  Uiso   1.00
H723   H     0.50114   0.40007   0.94636   0.00000  Uiso   1.00
H724   H     0.53889   0.39301   0.50211   0.00000  Uiso   1.00
H725   H     0.51460   0.57543   0.52432   0.00000  Uiso   1.00
O726   O     0.50000   0.50000   0.75000   0.00000  Uiso   1.00
O727   O     0.48784   0.45970   0.65459   0.00000  Uiso   1.00
O728   O     0.46274   0.53724   0.84968   0.00000  Uiso   1.00
O729   O     0.54157   0.51092   0.64606   0.00000  Uiso   1.00
O730   O     0.50785   0.49213   0.84968   0.00000  Uiso   1.00
O731   O     0.51264   0.41352   0.78214   0.00000  Uiso   1.00
O732   O     0.47965   0.59418   0.77014   0.00000  Uiso   1.00
O733   O     0.40745   0.46625   0.73413   0.00000  Uiso   1.00
O734   O     0.60026   0.52605   0.71361   0.00000  Uiso   1.00
O735   O     0.40405   0.52211   0.78213   0.00000  Uiso   1.00
O736   O     0.58824   0.48559   0.77014   0.00000  Uiso   1.00
O737   O     0.47093   0.40277   0.73413   0.00000  Uiso   1.00
O738   O     0.53678   0.58953   0.71361   0.00000  Uiso   1.00
Zn739  Zn    0.52672   0.47327   0.78734   0.00000  Uiso   1.00
Zn740  Zn    0.46713   0.45791   0.71876   0.00000  Uiso   1.00
Zn741  Zn    0.54389   0.53109   0.70657   0.00000  Uiso   1.00
Zn742  Zn    0.46226   0.53773   0.78734   0.00000  Uiso   1.00
C743   C     0.71939   0.49294   0.76001   0.00000  Uiso   1.00
C744   C     0.84024   0.50039   0.55977   0.00000  Uiso   1.00
C745   C     0.87102   0.43638   0.55952   0.00000  Uiso   1.00
C746   C     0.94743   0.50715   0.73996   0.00000  Uiso   1.00
C747   C     0.81097   0.52934   0.91885   0.00000  Uiso   1.00
C748   C     0.99335   0.50989   0.73575   0.00000  Uiso   1.00
C749   C     0.67415   0.49061   0.76366   0.00000  Uiso   1.00
C750   C     0.84716   0.65578   0.73637   0.00000  Uiso   1.00
C751   C     0.81846   0.34507   0.76360   0.00000  Uiso   1.00
C752   C     0.82263   0.38923   0.76025   0.00000  Uiso   1.00
C753   C     0.84322   0.61123   0.74015   0.00000  Uiso   1.00
C754   C     0.82110   0.58747   0.97306   0.00000  Uiso   1.00
C755   C     0.85198   0.48118   0.62947   0.00000  Uiso   1.00
C756   C     0.81489   0.51784   0.87090   0.00000  Uiso   1.00
C757   C     0.86466   0.42355   0.51735   0.00000  Uiso   1.00
C758   C     0.85716   0.47394   0.58148   0.00000  Uiso   1.00
C759   C     0.80958   0.57185   0.93384   0.00000  Uiso   1.00
C760   C     0.83336   0.56103   0.99799   0.00000  Uiso   1.00
C761   C     0.82918   0.51746   0.98755   0.00000  Uiso   1.00
C762   C     0.81774   0.50114   0.94717   0.00000  Uiso   1.00
C763   C     0.83942   0.48998   0.51441   0.00000  Uiso   1.00
C764   C     0.84706   0.44911   0.99569   0.00000  Uiso   1.00
C765   C     0.83361   0.43286   0.95751   0.00000  Uiso   1.00
C766   C     0.81507   0.45736   0.93602   0.00000  Uiso   1.00
Cl767  Cl    0.89190   0.40241   0.58614   0.00000  Uiso   1.00
Cl768  Cl    0.80954   0.53860   0.59376   0.00000  Uiso   1.00
Cl769  Cl    0.82417   0.64122   0.98914   0.00000  Uiso   1.00
Cl770  Cl    0.78407   0.43025   0.90028   0.00000  Uiso   1.00
F771   F     0.88029   0.34062   0.70496   0.00000  Uiso   1.00
F772   F     0.80171   0.59922   0.90805   0.00000  Uiso   1.00
F773   F     0.68803   0.53206   0.70338   0.00000  Uiso   1.00
H774   H     0.98571   0.47294   0.78984   0.00000  Uiso   1.00
H775   H     0.79167   0.66458   0.78873   0.00000  Uiso   1.00
H776   H     0.83447   0.40007   0.94636   0.00000  Uiso   1.00
H777   H     0.87223   0.39301   0.50211   0.00000  Uiso   1.00
H778   H     0.84793   0.57543   0.52432   0.00000  Uiso   1.00
O779   O     0.83333   0.50000   0.75000   0.00000  Uiso   1.00
O780   O     0.82118   0.45970   0.65459   0.00000  Uiso   1.00
O781   O     0.79607   0.53724   0.84968   0.00000  Uiso   1.00
O782   O     0.87491   0.51092   0.64606   0.00000  Uiso   1.00
O783   O     0.84118   0.49213   0.84968   0.00000  Uiso   1.00
O784   O     0.84597   0.41352   0.78214   0.00000  Uiso   1.00
O785   O     0.81298   0.59418   0.77014   0.00000  Uiso   1.00
O786   O     0.74078   0.46625   0.73413   0.00000  Uiso   1.00
O787   O     0.93360   0.52605   0.71361   0.00000  Uiso   1.00
O788   O     0.73738   0.52211   0.78213   0.00000  Uiso   1.00
O789   O     0.92158   0.48559   0.77014   0.00000  Uiso   1.00
O790   O     0.80426   0.40277   0.73413   0.00000  Uiso   1.00
O791   O     0.87012   0.58953   0.71361   0.00000  Uiso   1.00
Zn792  Zn    0.86005   0.47327   0.78734   0.00000  Uiso   1.00
Zn793  Zn    0.80046   0.45791   0.71876   0.00000  Uiso   1.00
Zn794  Zn    0.87723   0.53109   0.70657   0.00000  Uiso   1.00
Zn795  Zn    0.79560   0.53773   0.78734   0.00000  Uiso   1.00
C796   C     0.05272   0.82627   0.76001   0.00000  Uiso   1.00
C797   C     0.17357   0.83372   0.55977   0.00000  Uiso   1.00
C798   C     0.20435   0.76971   0.55952   0.00000  Uiso   1.00
C799   C     0.28076   0.84048   0.73996   0.00000  Uiso   1.00
C800   C     0.14430   0.86268   0.91885   0.00000  Uiso   1.00
C801   C     0.32668   0.84323   0.73575   0.00000  Uiso   1.00
C802   C     0.00748   0.82395   0.76366   0.00000  Uiso   1.00
C803   C     0.18049   0.98911   0.73637   0.00000  Uiso   1.00
C804   C     0.15180   0.67840   0.76360   0.00000  Uiso   1.00
C805   C     0.15596   0.72256   0.76025   0.00000  Uiso   1.00
C806   C     0.17656   0.94456   0.74015   0.00000  Uiso   1.00
C807   C     0.15444   0.92080   0.97306   0.00000  Uiso   1.00
C808   C     0.18531   0.81451   0.62947   0.00000  Uiso   1.00
C809   C     0.14823   0.85117   0.87090   0.00000  Uiso   1.00
C810   C     0.19800   0.75689   0.51735   0.00000  Uiso   1.00
C811   C     0.19050   0.80727   0.58148   0.00000  Uiso   1.00
C812   C     0.14291   0.90518   0.93384   0.00000  Uiso   1.00
C813   C     0.16670   0.89437   0.99799   0.00000  Uiso   1.00
C814   C     0.16252   0.85079   0.98755   0.00000  Uiso   1.00
C815   C     0.15107   0.83447   0.94717   0.00000  Uiso   1.00
C816   C     0.17275   0.82331   0.51441   0.00000  Uiso   1.00
C817   C     0.18039   0.78244   0.99569   0.00000  Uiso   1.00
C818   C     0.16694   0.76620   0.95751   0.00000  Uiso   1.00
C819   C     0.14840   0.79069   0.93602   0.00000  Uiso   1.00
Cl820  Cl    0.22523   0.73574   0.58614   0.00000  Uiso   1.00
Cl821  Cl    0.14287   0.87194   0.59376   0.00000  Uiso   1.00
Cl822  Cl    0.15750   0.97456   0.98914   0.00000  Uiso   1.00
Cl823  Cl    0.11740   0.76358   0.90028   0.00000  Uiso   1.00
F824   F     0.21362   0.67395   0.70496   0.00000  Uiso   1.00
F825   F     0.13505   0.93256   0.90805   0.00000  Uiso   1.00
F826   F     0.02136   0.86539   0.70338   0.00000  Uiso   1.00
H827   H     0.31904   0.80628   0.78984   0.00000  Uiso   1.00
H828   H     0.12500   0.99792   0.78873   0.00000  Uiso   1.00
H829   H     0.16781   0.73340   0.94636   0.00000  Uiso   1.00
H830   H     0.20556   0.72635   0.50211   0.00000  Uiso   1.00
H831   H     0.18127   0.90876   0.52432   0.00000  Uiso   1.00
O832   O     0.16667   0.83333   0.75000   0.00000  Uiso   1.00
O833   O     0.15451   0.79304   0.65459   0.00000  Uiso   1.00
O834   O     0.12940   0.87058   0.84968   0.00000  Uiso   1.00
O835   O     0.20824   0.84425   0.64606   0.00000  Uiso   1.00
O836   O     0.17451   0.82546   0.84968   0.00000  Uiso   1.00
O837   O     0.17930   0.74686   0.78214   0.00000  Uiso   1.00
O838   O     0.14632   0.92751   0.77014   0.00000  Uiso   1.00
O839   O     0.07412   0.79958   0.73413   0.00000  Uiso   1.00
O840   O     0.26693   0.85939   0.71361   0.00000  Uiso   1.00
O841   O     0.07071   0.85544   0.78213   0.00000  Uiso   1.00
O842   O     0.25491   0.81892   0.77014   0.00000  Uiso   1.00
O843   O     0.13760   0.73610   0.73413   0.00000  Uiso   1.00
O844   O     0.20345   0.92286   0.71361   0.00000  Uiso   1.00
Zn845  Zn    0.19338   0.80661   0.78734   0.00000  Uiso   1.00
Zn846  Zn    0.13379   0.79124   0.71876   0.00000  Uiso   1.00
Zn847  Zn    0.21056   0.86442   0.70657   0.00000  Uiso   1.00
Zn848  Zn    0.12893   0.87106   0.78734   0.00000  Uiso   1.00
C849   C     0.38605   0.82627   0.76001   0.00000  Uiso   1.00
C850   C     0.50690   0.83372   0.55977   0.00000  Uiso   1.00
C851   C     0.53769   0.76971   0.55952   0.00000  Uiso   1.00
C852   C     0.61409   0.84048   0.73996   0.00000  Uiso   1.00
C853   C     0.47763   0.86268   0.91885   0.00000  Uiso   1.00
C854   C     0.66001   0.84323   0.73575   0.00000  Uiso   1.00
C855   C     0.34081   0.82395   0.76366   0.00000  Uiso   1.00
C856   C     0.51383   0.98911   0.73637   0.00000  Uiso   1.00
C857   C     0.48513   0.67840   0.76360   0.00000  Uiso   1.00
C858   C     0.48929   0.72256   0.76025   0.00000  Uiso   1.00
C859   C     0.50989   0.94456   0.74015   0.00000  Uiso   1.00
C860   C     0.48777   0.92080   0.97306   0.00000  Uiso   1.00
C861   C     0.51864   0.81451   0.62947   0.00000  Uiso   1.00
C862   C     0.48156   0.85117   0.87090   0.00000  Uiso   1.00
C863   C     0.53133   0.75689   0.51735   0.00000  Uiso   1.00
C864   C     0.52383   0.80727   0.58148   0.00000  Uiso   1.00
C865   C     0.47624   0.90518   0.93384   0.00000  Uiso   1.00
C866   C     0.50003   0.89437   0.99799   0.00000  Uiso   1.00
C867   C     0.49585   0.85079   0.98755   0.00000  Uiso   1.00
C868   C     0.48440   0.83447   0.94717   0.00000  Uiso   1.00
C869   C     0.50609   0.82331   0.51441   0.00000  Uiso   1.00
C870   C     0.51372   0.78244   0.99569   0.00000  Uiso   1.00
C871   C     0.50027   0.76620   0.95751   0.00000  Uiso   1.00
C872   C     0.48174   0.79069   0.93602   0.00000  Uiso   1.00
Cl873  Cl    0.55856   0.73574   0.58614   0.00000  Uiso   1.00
Cl874  Cl    0.47620   0.87194   0.59376   0.00000  Uiso   1.00
Cl875  Cl    0.49083   0.97456   0.98914   0.00000  Uiso   1.00
Cl876  Cl    0.45074   0.76358   0.90028   0.00000  Uiso   1.00
F877   F     0.54695   0.67395   0.70496   0.00000  Uiso   1.00
F878   F     0.46838   0.93256   0.90805   0.00000  Uiso   1.00
F879   F     0.35470   0.86539   0.70338   0.00000  Uiso   1.00
H880   H     0.65237   0.80628   0.78984   0.00000  Uiso   1.00
H881   H     0.45834   0.99792   0.78873   0.00000  Uiso   1.00
H882   H     0.50114   0.73340   0.94636   0.00000  Uiso   1.00
H883   H     0.53889   0.72635   0.50211   0.00000  Uiso   1.00
H884   H     0.51460   0.90876   0.52432   0.00000  Uiso   1.00
O885   O     0.50000   0.83333   0.75000   0.00000  Uiso   1.00
O886   O     0.48784   0.79304   0.65459   0.00000  Uiso   1.00
O887   O     0.46274   0.87058   0.84968   0.00000  Uiso   1.00
O888   O     0.54157   0.84425   0.64606   0.00000  Uiso   1.00
O889   O     0.50785   0.82546   0.84968   0.00000  Uiso   1.00
O890   O     0.51264   0.74686   0.78214   0.00000  Uiso   1.00
O891   O     0.47965   0.92751   0.77014   0.00000  Uiso   1.00
O892   O     0.40745   0.79958   0.73413   0.00000  Uiso   1.00
O893   O     0.60026   0.85939   0.71361   0.00000  Uiso   1.00
O894   O     0.40405   0.85544   0.78213   0.00000  Uiso   1.00
O895   O     0.58824   0.81892   0.77014   0.00000  Uiso   1.00
O896   O     0.47093   0.73610   0.73413   0.00000  Uiso   1.00
O897   O     0.53678   0.92286   0.71361   0.00000  Uiso   1.00
Zn898  Zn    0.52672   0.80661   0.78734   0.00000  Uiso   1.00
Zn899  Zn    0.46713   0.79124   0.71876   0.00000  Uiso   1.00
Zn900  Zn    0.54389   0.86442   0.70657   0.00000  Uiso   1.00
Zn901  Zn    0.46226   0.87106   0.78734   0.00000  Uiso   1.00
C902   C     0.71939   0.82627   0.76001   0.00000  Uiso   1.00
C903   C     0.84024   0.83372   0.55977   0.00000  Uiso   1.00
C904   C     0.87102   0.76971   0.55952   0.00000  Uiso   1.00
C905   C     0.94743   0.84048   0.73996   0.00000  Uiso   1.00
C906   C     0.81097   0.86268   0.91885   0.00000  Uiso   1.00
C907   C     0.99335   0.84323   0.73575   0.00000  Uiso   1.00
C908   C     0.67415   0.82395   0.76366   0.00000  Uiso   1.00
C909   C     0.84716   0.98911   0.73637   0.00000  Uiso   1.00
C910   C     0.81846   0.67840   0.76360   0.00000  Uiso   1.00
C911   C     0.82263   0.72256   0.76025   0.00000  Uiso   1.00
C912   C     0.84322   0.94456   0.74015   0.00000  Uiso   1.00
C913   C     0.82110   0.92080   0.97306   0.00000  Uiso   1.00
C914   C     0.85198   0.81451   0.62947   0.00000  Uiso   1.00
C915   C     0.81489   0.85117   0.87090   0.00000  Uiso   1.00
C916   C     0.86466   0.75689   0.51735   0.00000  Uiso   1.00
C917   C     0.85716   0.80727   0.58148   0.00000  Uiso   1.00
C918   C     0.80958   0.90518   0.93384   0.00000  Uiso   1.00
C919   C     0.83336   0.89437   0.99799   0.00000  Uiso   1.00
C920   C     0.82918   0.85079   0.98755   0.00000  Uiso   1.00
C921   C     0.81774   0.83447   0.94717   0.00000  Uiso   1.00
C922   C     0.83942   0.82331   0.51441   0.00000  Uiso   1.00
C923   C     0.84706   0.78244   0.99569   0.00000  Uiso   1.00
C924   C     0.83361   0.76620   0.95751   0.00000  Uiso   1.00
C925   C     0.81507   0.79069   0.93602   0.00000  Uiso   1.00
Cl926  Cl    0.89190   0.73574   0.58614   0.00000  Uiso   1.00
Cl927  Cl    0.80954   0.87194   0.59376   0.00000  Uiso   1.00
Cl928  Cl    0.82417   0.97456   0.98914   0.00000  Uiso   1.00
Cl929  Cl    0.78407   0.76358   0.90028   0.00000  Uiso   1.00
F930   F     0.88029   0.67395   0.70496   0.00000  Uiso   1.00
F931   F     0.80171   0.93256   0.90805   0.00000  Uiso   1.00
F932   F     0.68803   0.86539   0.70338   0.00000  Uiso   1.00
H933   H     0.98571   0.80628   0.78984   0.00000  Uiso   1.00
H934   H     0.79167   0.99792   0.78873   0.00000  Uiso   1.00
H935   H     0.83447   0.73340   0.94636   0.00000  Uiso   1.00
H936   H     0.87223   0.72635   0.50211   0.00000  Uiso   1.00
H937   H     0.84793   0.90876   0.52432   0.00000  Uiso   1.00
O938   O     0.83333   0.83333   0.75000   0.00000  Uiso   1.00
O939   O     0.82118   0.79304   0.65459   0.00000  Uiso   1.00
O940   O     0.79607   0.87058   0.84968   0.00000  Uiso   1.00
O941   O     0.87491   0.84425   0.64606   0.00000  Uiso   1.00
O942   O     0.84118   0.82546   0.84968   0.00000  Uiso   1.00
O943   O     0.84597   0.74686   0.78214   0.00000  Uiso   1.00
O944   O     0.81298   0.92751   0.77014   0.00000  Uiso   1.00
O945   O     0.74078   0.79958   0.73413   0.00000  Uiso   1.00
O946   O     0.93360   0.85939   0.71361   0.00000  Uiso   1.00
O947   O     0.73738   0.85544   0.78213   0.00000  Uiso   1.00
O948   O     0.92158   0.81892   0.77014   0.00000  Uiso   1.00
O949   O     0.80426   0.73610   0.73413   0.00000  Uiso   1.00
O950   O     0.87012   0.92286   0.71361   0.00000  Uiso   1.00
Zn951  Zn    0.86005   0.80661   0.78734   0.00000  Uiso   1.00
Zn952  Zn    0.80046   0.79124   0.71876   0.00000  Uiso   1.00
Zn953  Zn    0.87723   0.86442   0.70657   0.00000  Uiso   1.00
Zn954  Zn    0.79560   0.87106   0.78734   0.00000  Uiso   1.00
loop_
_geom_bond_atom_site_label_1
_geom_bond_atom_site_label_2
_geom_bond_distance
_geom_bond_site_symmetry_2
_ccdc_geom_bond_type
C1     O44     1.269   .     A
C1     O46     1.269   .     A
C1     C7      1.438   .     S
C2     C16     1.406   .     A
C2     C21     1.419   .     A
C2     Cl26    1.781   .     S
C3     Cl25    1.763   .     S
C3     C15     1.389   .     A
C3     C16     1.404   .     A
C4     O45     1.285   .     A
C4     C6      1.456   .     S
C4     O47     1.282   .     A
C5     C14     1.472   .     S
C5     C20     1.422   .     A
C5     C17     1.410   .     A
C6     C60     1.336   .     S
C6     F84     1.362   .     S
C7     C112    1.336   1_455 S
C7     H138    1.086   1_455 S
C8     C11     1.452   .     S
C8     C168    1.333   .     S
C8     F188    1.363   .     S
C9     C10     1.436   .     S
C9     C326    1.333   1_545 S
C9     H351    1.086   1_545 S
C10    O42     1.277   .     A
C10    O48     1.277   .     A
C11    O43     1.273   .     A
C11    O49     1.271   .     A
C12    C17     1.388   .     A
C12    Cl27    1.757   .     S
C12    C18     1.387   .     A
C13    O38     1.269   .     A
C13    C16     1.453   .     S
C13    O40     1.276   .     A
C14    O41     1.287   .     A
C14    O39     1.280   .     A
C15    H35     1.083   .     S
C15    C499    1.397   1_554 S
C17    F30     1.359   .     S
C18    C19     1.411   .     A
C18    H513    1.078   .     S
C19    C20     1.425   .     A
C19    C498    1.422   .     S
C20    C24     1.421   .     A
C21    C496    1.422   1_554 S
C21    C499    1.418   1_554 S
C22    C23     1.393   .     A
C22    C498    1.418   .     S
C22    C492    1.397   .     S
C23    C24     1.389   .     A
C23    H34     1.085   .     S
C24    Cl28    1.768   .     S
F29    C326    1.363   1_545 S
F31    C112    1.362   1_455 S
H32    C60     1.086   .     S
H33    C168    1.086   .     S
H36    C495    1.078   1_554 S
O37    Zn53    1.932   .     S
O37    Zn50    1.965   .     S
O37    Zn51    1.939   .     S
O37    Zn52    1.939   .     S
O38    Zn51    1.937   .     S
O39    Zn53    1.946   .     S
O40    Zn52    1.937   .     S
O41    Zn50    1.930   .     S
O42    Zn50    1.926   .     S
O43    Zn53    1.933   .     S
O44    Zn51    1.928   .     S
O45    Zn52    1.937   .     S
O46    Zn53    1.931   .     S
O47    Zn50    1.924   .     S
O48    Zn51    1.939   .     S
O49    Zn52    1.930   .     S
C54    O97     1.269   .     A
C54    O99     1.269   .     A
C54    C60     1.438   .     S
C55    C69     1.406   .     A
C55    C74     1.419   .     A
C55    Cl79    1.781   .     S
C56    Cl78    1.763   .     S
C56    C68     1.389   .     A
C56    C69     1.404   .     A
C57    O98     1.285   .     A
C57    C59     1.456   .     S
C57    O100    1.282   .     A
C58    C67     1.472   .     S
C58    C73     1.422   .     A
C58    C70     1.410   .     A
C59    C113    1.336   .     S
C59    F137    1.362   .     S
C61    C64     1.452   .     S
C61    C221    1.333   .     S
C61    F241    1.363   .     S
C62    C63     1.436   .     S
C62    C379    1.333   1_545 S
C62    H404    1.086   1_545 S
C63    O95     1.277   .     A
C63    O101    1.277   .     A
C64    O96     1.273   .     A
C64    O102    1.271   .     A
C65    C70     1.388   .     A
C65    Cl80    1.757   .     S
C65    C71     1.387   .     A
C66    O91     1.269   .     A
C66    C69     1.453   .     S
C66    O93     1.276   .     A
C67    O94     1.287   .     A
C67    O92     1.280   .     A
C68    H88     1.083   .     S
C68    C552    1.397   1_554 S
C70    F83     1.359   .     S
C71    C72     1.411   .     A
C71    H566    1.078   .     S
C72    C73     1.425   .     A
C72    C551    1.422   .     S
C73    C77     1.421   .     A
C74    C549    1.422   1_554 S
C74    C552    1.418   1_554 S
C75    C76     1.393   .     A
C75    C551    1.418   .     S
C75    C545    1.397   .     S
C76    C77     1.389   .     A
C76    H87     1.085   .     S
C77    Cl81    1.768   .     S
F82    C379    1.363   1_545 S
H85    C113    1.086   .     S
H86    C221    1.086   .     S
H89    C548    1.078   1_554 S
O90    Zn106   1.932   .     S
O90    Zn103   1.965   .     S
O90    Zn104   1.939   .     S
O90    Zn105   1.939   .     S
O91    Zn104   1.937   .     S
O92    Zn106   1.946   .     S
O93    Zn105   1.937   .     S
O94    Zn103   1.930   .     S
O95    Zn103   1.926   .     S
O96    Zn106   1.933   .     S
O97    Zn104   1.928   .     S
O98    Zn105   1.937   .     S
O99    Zn106   1.931   .     S
O100   Zn103   1.924   .     S
O101   Zn104   1.939   .     S
O102   Zn105   1.930   .     S
C107   O150    1.269   .     A
C107   O152    1.269   .     A
C107   C113    1.438   .     S
C108   C122    1.406   .     A
C108   C127    1.419   .     A
C108   Cl132   1.781   .     S
C109   Cl131   1.763   .     S
C109   C121    1.389   .     A
C109   C122    1.404   .     A
C110   O151    1.285   .     A
C110   C112    1.456   .     S
C110   O153    1.282   .     A
C111   C120    1.472   .     S
C111   C126    1.422   .     A
C111   C123    1.410   .     A
C112   C7      1.336   1_655 S
C112   F31     1.362   1_655 S
C114   C117    1.452   .     S
C114   C274    1.333   .     S
C114   F294    1.363   .     S
C115   C116    1.436   .     S
C115   C432    1.333   1_545 S
C115   H457    1.086   1_545 S
C116   O148    1.277   .     A
C116   O154    1.277   .     A
C117   O149    1.273   .     A
C117   O155    1.271   .     A
C118   C123    1.388   .     A
C118   Cl133   1.757   .     S
C118   C124    1.387   .     A
C119   O144    1.269   .     A
C119   C122    1.453   .     S
C119   O146    1.276   .     A
C120   O147    1.287   .     A
C120   O145    1.280   .     A
C121   H141    1.083   .     S
C121   C605    1.397   1_554 S
C123   F136    1.359   .     S
C124   C125    1.411   .     A
C124   H619    1.078   .     S
C125   C126    1.425   .     A
C125   C604    1.422   .     S
C126   C130    1.421   .     A
C127   C602    1.422   1_554 S
C127   C605    1.418   1_554 S
C128   C129    1.393   .     A
C128   C604    1.418   .     S
C128   C598    1.397   .     S
C129   C130    1.389   .     A
C129   H140    1.085   .     S
C130   Cl134   1.768   .     S
F135   C432    1.363   1_545 S
H138   C7      1.086   1_655 S
H139   C274    1.086   .     S
H142   C601    1.078   1_554 S
O143   Zn159   1.932   .     S
O143   Zn156   1.965   .     S
O143   Zn157   1.939   .     S
O143   Zn158   1.939   .     S
O144   Zn157   1.937   .     S
O145   Zn159   1.946   .     S
O146   Zn158   1.937   .     S
O147   Zn156   1.930   .     S
O148   Zn156   1.926   .     S
O149   Zn159   1.933   .     S
O150   Zn157   1.928   .     S
O151   Zn158   1.937   .     S
O152   Zn159   1.931   .     S
O153   Zn156   1.924   .     S
O154   Zn157   1.939   .     S
O155   Zn158   1.930   .     S
C160   O203    1.269   .     A
C160   O205    1.269   .     A
C160   C166    1.438   .     S
C161   C175    1.406   .     A
C161   C180    1.419   .     A
C161   Cl185   1.781   .     S
C162   Cl184   1.763   .     S
C162   C174    1.389   .     A
C162   C175    1.404   .     A
C163   O204    1.285   .     A
C163   C165    1.456   .     S
C163   O206    1.282   .     A
C164   C173    1.472   .     S
C164   C179    1.422   .     A
C164   C176    1.410   .     A
C165   C219    1.336   .     S
C165   F243    1.362   .     S
C166   C271    1.336   1_455 S
C166   H297    1.086   1_455 S
C167   C170    1.452   .     S
C167   C327    1.333   .     S
C167   F347    1.363   .     S
C168   C169    1.436   .     S
C169   O201    1.277   .     A
C169   O207    1.277   .     A
C170   O202    1.273   .     A
C170   O208    1.271   .     A
C171   C176    1.388   .     A
C171   Cl186   1.757   .     S
C171   C177    1.387   .     A
C172   O197    1.269   .     A
C172   C175    1.453   .     S
C172   O199    1.276   .     A
C173   O200    1.287   .     A
C173   O198    1.280   .     A
C174   H194    1.083   .     S
C174   C658    1.397   1_554 S
C176   F189    1.359   .     S
C177   C178    1.411   .     A
C177   H672    1.078   .     S
C178   C179    1.425   .     A
C178   C657    1.422   .     S
C179   C183    1.421   .     A
C180   C655    1.422   1_554 S
C180   C658    1.418   1_554 S
C181   C182    1.393   .     A
C181   C657    1.418   .     S
C181   C651    1.397   .     S
C182   C183    1.389   .     A
C182   H193    1.085   .     S
C183   Cl187   1.768   .     S
F190   C271    1.362   1_455 S
H191   C219    1.086   .     S
H192   C327    1.086   .     S
H195   C654    1.078   1_554 S
O196   Zn212   1.932   .     S
O196   Zn209   1.965   .     S
O196   Zn210   1.939   .     S
O196   Zn211   1.939   .     S
O197   Zn210   1.937   .     S
O198   Zn212   1.946   .     S
O199   Zn211   1.937   .     S
O200   Zn209   1.930   .     S
O201   Zn209   1.926   .     S
O202   Zn212   1.933   .     S
O203   Zn210   1.928   .     S
O204   Zn211   1.937   .     S
O205   Zn212   1.931   .     S
O206   Zn209   1.924   .     S
O207   Zn210   1.939   .     S
O208   Zn211   1.930   .     S
C213   O256    1.269   .     A
C213   O258    1.269   .     A
C213   C219    1.438   .     S
C214   C228    1.406   .     A
C214   C233    1.419   .     A
C214   Cl238   1.781   .     S
C215   Cl237   1.763   .     S
C215   C227    1.389   .     A
C215   C228    1.404   .     A
C216   O257    1.285   .     A
C216   C218    1.456   .     S
C216   O259    1.282   .     A
C217   C226    1.472   .     S
C217   C232    1.422   .     A
C217   C229    1.410   .     A
C218   C272    1.336   .     S
C218   F296    1.362   .     S
C220   C223    1.452   .     S
C220   C380    1.333   .     S
C220   F400    1.363   .     S
C221   C222    1.436   .     S
C222   O254    1.277   .     A
C222   O260    1.277   .     A
C223   O255    1.273   .     A
C223   O261    1.271   .     A
C224   C229    1.388   .     A
C224   Cl239   1.757   .     S
C224   C230    1.387   .     A
C225   O250    1.269   .     A
C225   C228    1.453   .     S
C225   O252    1.276   .     A
C226   O253    1.287   .     A
C226   O251    1.280   .     A
C227   H247    1.083   .     S
C227   C711    1.397   1_554 S
C229   F242    1.359   .     S
C230   C231    1.411   .     A
C230   H725    1.078   .     S
C231   C232    1.425   .     A
C231   C710    1.422   .     S
C232   C236    1.421   .     A
C233   C708    1.422   1_554 S
C233   C711    1.418   1_554 S
C234   C235    1.393   .     A
C234   C710    1.418   .     S
C234   C704    1.397   .     S
C235   C236    1.389   .     A
C235   H246    1.085   .     S
C236   Cl240   1.768   .     S
H244   C272    1.086   .     S
H245   C380    1.086   .     S
H248   C707    1.078   1_554 S
O249   Zn265   1.932   .     S
O249   Zn262   1.965   .     S
O249   Zn263   1.939   .     S
O249   Zn264   1.939   .     S
O250   Zn263   1.937   .     S
O251   Zn265   1.946   .     S
O252   Zn264   1.937   .     S
O253   Zn262   1.930   .     S
O254   Zn262   1.926   .     S
O255   Zn265   1.933   .     S
O256   Zn263   1.928   .     S
O257   Zn264   1.937   .     S
O258   Zn265   1.931   .     S
O259   Zn262   1.924   .     S
O260   Zn263   1.939   .     S
O261   Zn264   1.930   .     S
C266   O309    1.269   .     A
C266   O311    1.269   .     A
C266   C272    1.438   .     S
C267   C281    1.406   .     A
C267   C286    1.419   .     A
C267   Cl291   1.781   .     S
C268   Cl290   1.763   .     S
C268   C280    1.389   .     A
C268   C281    1.404   .     A
C269   O310    1.285   .     A
C269   C271    1.456   .     S
C269   O312    1.282   .     A
C270   C279    1.472   .     S
C270   C285    1.422   .     A
C270   C282    1.410   .     A
C271   C166    1.336   1_655 S
C271   F190    1.362   1_655 S
C273   C276    1.452   .     S
C273   C433    1.333   .     S
C273   F453    1.363   .     S
C274   C275    1.436   .     S
C275   O307    1.277   .     A
C275   O313    1.277   .     A
C276   O308    1.273   .     A
C276   O314    1.271   .     A
C277   C282    1.388   .     A
C277   Cl292   1.757   .     S
C277   C283    1.387   .     A
C278   O303    1.269   .     A
C278   C281    1.453   .     S
C278   O305    1.276   .     A
C279   O306    1.287   .     A
C279   O304    1.280   .     A
C280   H300    1.083   .     S
C280   C764    1.397   1_554 S
C282   F295    1.359   .     S
C283   C284    1.411   .     A
C283   H778    1.078   .     S
C284   C285    1.425   .     A
C284   C763    1.422   .     S
C285   C289    1.421   .     A
C286   C761    1.422   1_554 S
C286   C764    1.418   1_554 S
C287   C288    1.393   .     A
C287   C763    1.418   .     S
C287   C757    1.397   .     S
C288   C289    1.389   .     A
C288   H299    1.085   .     S
C289   Cl293   1.768   .     S
H297   C166    1.086   1_655 S
H298   C433    1.086   .     S
H301   C760    1.078   1_554 S
O302   Zn318   1.932   .     S
O302   Zn315   1.965   .     S
O302   Zn316   1.939   .     S
O302   Zn317   1.939   .     S
O303   Zn316   1.937   .     S
O304   Zn318   1.946   .     S
O305   Zn317   1.937   .     S
O306   Zn315   1.930   .     S
O307   Zn315   1.926   .     S
O308   Zn318   1.933   .     S
O309   Zn316   1.928   .     S
O310   Zn317   1.937   .     S
O311   Zn318   1.931   .     S
O312   Zn315   1.924   .     S
O313   Zn316   1.939   .     S
O314   Zn317   1.930   .     S
C319   O362    1.269   .     A
C319   O364    1.269   .     A
C319   C325    1.438   .     S
C320   C334    1.406   .     A
C320   C339    1.419   .     A
C320   Cl344   1.781   .     S
C321   Cl343   1.763   .     S
C321   C333    1.389   .     A
C321   C334    1.404   .     A
C322   O363    1.285   .     A
C322   C324    1.456   .     S
C322   O365    1.282   .     A
C323   C332    1.472   .     S
C323   C338    1.422   .     A
C323   C335    1.410   .     A
C324   C378    1.336   .     S
C324   F402    1.362   .     S
C325   C430    1.336   1_455 S
C325   H456    1.086   1_455 S
C326   C329    1.452   .     S
C326   C9      1.333   1_565 S
C326   F29     1.363   1_565 S
C327   C328    1.436   .     S
C328   O360    1.277   .     A
C328   O366    1.277   .     A
C329   O361    1.273   .     A
C329   O367    1.271   .     A
C330   C335    1.388   .     A
C330   Cl345   1.757   .     S
C330   C336    1.387   .     A
C331   O356    1.269   .     A
C331   C334    1.453   .     S
C331   O358    1.276   .     A
C332   O359    1.287   .     A
C332   O357    1.280   .     A
C333   H353    1.083   .     S
C333   C817    1.397   1_554 S
C335   F348    1.359   .     S
C336   C337    1.411   .     A
C336   H831    1.078   .     S
C337   C338    1.425   .     A
C337   C816    1.422   .     S
C338   C342    1.421   .     A
C339   C814    1.422   1_554 S
C339   C817    1.418   1_554 S
C340   C341    1.393   .     A
C340   C816    1.418   .     S
C340   C810    1.397   .     S
C341   C342    1.389   .     A
C341   H352    1.085   .     S
C342   Cl346   1.768   .     S
F349   C430    1.362   1_455 S
H350   C378    1.086   .     S
H351   C9      1.086   1_565 S
H354   C813    1.078   1_554 S
O355   Zn371   1.932   .     S
O355   Zn368   1.965   .     S
O355   Zn369   1.939   .     S
O355   Zn370   1.939   .     S
O356   Zn369   1.937   .     S
O357   Zn371   1.946   .     S
O358   Zn370   1.937   .     S
O359   Zn368   1.930   .     S
O360   Zn368   1.926   .     S
O361   Zn371   1.933   .     S
O362   Zn369   1.928   .     S
O363   Zn370   1.937   .     S
O364   Zn371   1.931   .     S
O365   Zn368   1.924   .     S
O366   Zn369   1.939   .     S
O367   Zn370   1.930   .     S
C372   O415    1.269   .     A
C372   O417    1.269   .     A
C372   C378    1.438   .     S
C373   C387    1.406   .     A
C373   C392    1.419   .     A
C373   Cl397   1.781   .     S
C374   Cl396   1.763   .     S
C374   C386    1.389   .     A
C374   C387    1.404   .     A
C375   O416    1.285   .     A
C375   C377    1.456   .     S
C375   O418    1.282   .     A
C376   C385    1.472   .     S
C376   C391    1.422   .     A
C376   C388    1.410   .     A
C377   C431    1.336   .     S
C377   F455    1.362   .     S
C379   C382    1.452   .     S
C379   C62     1.333   1_565 S
C379   F82     1.363   1_565 S
C380   C381    1.436   .     S
C381   O413    1.277   .     A
C381   O419    1.277   .     A
C382   O414    1.273   .     A
C382   O420    1.271   .     A
C383   C388    1.388   .     A
C383   Cl398   1.757   .     S
C383   C389    1.387   .     A
C384   O409    1.269   .     A
C384   C387    1.453   .     S
C384   O411    1.276   .     A
C385   O412    1.287   .     A
C385   O410    1.280   .     A
C386   H406    1.083   .     S
C386   C870    1.397   1_554 S
C388   F401    1.359   .     S
C389   C390    1.411   .     A
C389   H884    1.078   .     S
C390   C391    1.425   .     A
C390   C869    1.422   .     S
C391   C395    1.421   .     A
C392   C867    1.422   1_554 S
C392   C870    1.418   1_554 S
C393   C394    1.393   .     A
C393   C869    1.418   .     S
C393   C863    1.397   .     S
C394   C395    1.389   .     A
C394   H405    1.085   .     S
C395   Cl399   1.768   .     S
H403   C431    1.086   .     S
H404   C62     1.086   1_565 S
H407   C866    1.078   1_554 S
O408   Zn424   1.932   .     S
O408   Zn421   1.965   .     S
O408   Zn422   1.939   .     S
O408   Zn423   1.939   .     S
O409   Zn422   1.937   .     S
O410   Zn424   1.946   .     S
O411   Zn423   1.937   .     S
O412   Zn421   1.930   .     S
O413   Zn421   1.926   .     S
O414   Zn424   1.933   .     S
O415   Zn422   1.928   .     S
O416   Zn423   1.937   .     S
O417   Zn424   1.931   .     S
O418   Zn421   1.924   .     S
O419   Zn422   1.939   .     S
O420   Zn423   1.930   .     S
C425   O468    1.269   .     A
C425   O470    1.269   .     A
C425   C431    1.438   .     S
C426   C440    1.406   .     A
C426   C445    1.419   .     A
C426   Cl450   1.781   .     S
C427   Cl449   1.763   .     S
C427   C439    1.389   .     A
C427   C440    1.404   .     A
C428   O469    1.285   .     A
C428   C430    1.456   .     S
C428   O471    1.282   .     A
C429   C438    1.472   .     S
C429   C444    1.422   .     A
C429   C441    1.410   .     A
C430   C325    1.336   1_655 S
C430   F349    1.362   1_655 S
C432   C435    1.452   .     S
C432   C115    1.333   1_565 S
C432   F135    1.363   1_565 S
C433   C434    1.436   .     S
C434   O466    1.277   .     A
C434   O472    1.277   .     A
C435   O467    1.273   .     A
C435   O473    1.271   .     A
C436   C441    1.388   .     A
C436   Cl451   1.757   .     S
C436   C442    1.387   .     A
C437   O462    1.269   .     A
C437   C440    1.453   .     S
C437   O464    1.276   .     A
C438   O465    1.287   .     A
C438   O463    1.280   .     A
C439   H459    1.083   .     S
C439   C923    1.397   1_554 S
C441   F454    1.359   .     S
C442   C443    1.411   .     A
C442   H937    1.078   .     S
C443   C444    1.425   .     A
C443   C922    1.422   .     S
C444   C448    1.421   .     A
C445   C920    1.422   1_554 S
C445   C923    1.418   1_554 S
C446   C447    1.393   .     A
C446   C922    1.418   .     S
C446   C916    1.397   .     S
C447   C448    1.389   .     A
C447   H458    1.085   .     S
C448   Cl452   1.768   .     S
H456   C325    1.086   1_655 S
H457   C115    1.086   1_565 S
H460   C919    1.078   1_554 S
O461   Zn477   1.932   .     S
O461   Zn474   1.965   .     S
O461   Zn475   1.939   .     S
O461   Zn476   1.939   .     S
O462   Zn475   1.937   .     S
O463   Zn477   1.946   .     S
O464   Zn476   1.937   .     S
O465   Zn474   1.930   .     S
O466   Zn474   1.926   .     S
O467   Zn477   1.933   .     S
O468   Zn475   1.928   .     S
O469   Zn476   1.937   .     S
O470   Zn477   1.931   .     S
O471   Zn474   1.924   .     S
O472   Zn475   1.939   .     S
O473   Zn476   1.930   .     S
C478   O521    1.269   .     A
C478   O523    1.269   .     A
C478   C484    1.438   .     S
C479   C493    1.406   .     A
C479   C498    1.419   .     A
C479   Cl503   1.781   .     S
C480   Cl502   1.763   .     S
C480   C492    1.389   .     A
C480   C493    1.404   .     A
C481   O522    1.285   .     A
C481   C483    1.456   .     S
C481   O524    1.282   .     A
C482   C491    1.472   .     S
C482   C497    1.422   .     A
C482   C494    1.410   .     A
C483   C537    1.336   .     S
C483   F561    1.362   .     S
C484   C589    1.336   1_455 S
C484   H615    1.086   1_455 S
C485   C488    1.452   .     S
C485   C645    1.333   .     S
C485   F665    1.363   .     S
C486   C487    1.436   .     S
C486   C803    1.333   1_545 S
C486   H828    1.086   1_545 S
C487   O519    1.277   .     A
C487   O525    1.277   .     A
C488   O520    1.273   .     A
C488   O526    1.271   .     A
C489   C494    1.388   .     A
C489   Cl504   1.757   .     S
C489   C495    1.387   .     A
C490   O515    1.269   .     A
C490   C493    1.453   .     S
C490   O517    1.276   .     A
C491   O518    1.287   .     A
C491   O516    1.280   .     A
C492   H512    1.083   .     S
C494   F507    1.359   .     S
C495   C496    1.411   .     A
C495   H36     1.078   1_556 S
C496   C497    1.425   .     A
C496   C21     1.422   1_556 S
C497   C501    1.421   .     A
C499   C500    1.393   .     A
C499   C21     1.418   1_556 S
C499   C15     1.397   1_556 S
C500   C501    1.389   .     A
C500   H511    1.085   .     S
C501   Cl505   1.768   .     S
F506   C803    1.363   1_545 S
F508   C589    1.362   1_455 S
H509   C537    1.086   .     S
H510   C645    1.086   .     S
O514   Zn530   1.932   .     S
O514   Zn527   1.965   .     S
O514   Zn528   1.939   .     S
O514   Zn529   1.939   .     S
O515   Zn528   1.937   .     S
O516   Zn530   1.946   .     S
O517   Zn529   1.937   .     S
O518   Zn527   1.930   .     S
O519   Zn527   1.926   .     S
O520   Zn530   1.933   .     S
O521   Zn528   1.928   .     S
O522   Zn529   1.937   .     S
O523   Zn530   1.931   .     S
O524   Zn527   1.924   .     S
O525   Zn528   1.939   .     S
O526   Zn529   1.930   .     S
C531   O574    1.269   .     A
C531   O576    1.269   .     A
C531   C537    1.438   .     S
C532   C546    1.406   .     A
C532   C551    1.419   .     A
C532   Cl556   1.781   .     S
C533   Cl555   1.763   .     S
C533   C545    1.389   .     A
C533   C546    1.404   .     A
C534   O575    1.285   .     A
C534   C536    1.456   .     S
C534   O577    1.282   .     A
C535   C544    1.472   .     S
C535   C550    1.422   .     A
C535   C547    1.410   .     A
C536   C590    1.336   .     S
C536   F614    1.362   .     S
C538   C541    1.452   .     S
C538   C698    1.333   .     S
C538   F718    1.363   .     S
C539   C540    1.436   .     S
C539   C856    1.333   1_545 S
C539   H881    1.086   1_545 S
C540   O572    1.277   .     A
C540   O578    1.277   .     A
C541   O573    1.273   .     A
C541   O579    1.271   .     A
C542   C547    1.388   .     A
C542   Cl557   1.757   .     S
C542   C548    1.387   .     A
C543   O568    1.269   .     A
C543   C546    1.453   .     S
C543   O570    1.276   .     A
C544   O571    1.287   .     A
C544   O569    1.280   .     A
C545   H565    1.083   .     S
C547   F560    1.359   .     S
C548   C549    1.411   .     A
C548   H89     1.078   1_556 S
C549   C550    1.425   .     A
C549   C74     1.422   1_556 S
C550   C554    1.421   .     A
C552   C553    1.393   .     A
C552   C74     1.418   1_556 S
C552   C68     1.397   1_556 S
C553   C554    1.389   .     A
C553   H564    1.085   .     S
C554   Cl558   1.768   .     S
F559   C856    1.363   1_545 S
H562   C590    1.086   .     S
H563   C698    1.086   .     S
O567   Zn583   1.932   .     S
O567   Zn580   1.965   .     S
O567   Zn581   1.939   .     S
O567   Zn582   1.939   .     S
O568   Zn581   1.937   .     S
O569   Zn583   1.946   .     S
O570   Zn582   1.937   .     S
O571   Zn580   1.930   .     S
O572   Zn580   1.926   .     S
O573   Zn583   1.933   .     S
O574   Zn581   1.928   .     S
O575   Zn582   1.937   .     S
O576   Zn583   1.931   .     S
O577   Zn580   1.924   .     S
O578   Zn581   1.939   .     S
O579   Zn582   1.930   .     S
C584   O627    1.269   .     A
C584   O629    1.269   .     A
C584   C590    1.438   .     S
C585   C599    1.406   .     A
C585   C604    1.419   .     A
C585   Cl609   1.781   .     S
C586   Cl608   1.763   .     S
C586   C598    1.389   .     A
C586   C599    1.404   .     A
C587   O628    1.285   .     A
C587   C589    1.456   .     S
C587   O630    1.282   .     A
C588   C597    1.472   .     S
C588   C603    1.422   .     A
C588   C600    1.410   .     A
C589   C484    1.336   1_655 S
C589   F508    1.362   1_655 S
C591   C594    1.452   .     S
C591   C751    1.333   .     S
C591   F771    1.363   .     S
C592   C593    1.436   .     S
C592   C909    1.333   1_545 S
C592   H934    1.086   1_545 S
C593   O625    1.277   .     A
C593   O631    1.277   .     A
C594   O626    1.273   .     A
C594   O632    1.271   .     A
C595   C600    1.388   .     A
C595   Cl610   1.757   .     S
C595   C601    1.387   .     A
C596   O621    1.269   .     A
C596   C599    1.453   .     S
C596   O623    1.276   .     A
C597   O624    1.287   .     A
C597   O622    1.280   .     A
C598   H618    1.083   .     S
C600   F613    1.359   .     S
C601   C602    1.411   .     A
C601   H142    1.078   1_556 S
C602   C603    1.425   .     A
C602   C127    1.422   1_556 S
C603   C607    1.421   .     A
C605   C606    1.393   .     A
C605   C127    1.418   1_556 S
C605   C121    1.397   1_556 S
C606   C607    1.389   .     A
C606   H617    1.085   .     S
C607   Cl611   1.768   .     S
F612   C909    1.363   1_545 S
H615   C484    1.086   1_655 S
H616   C751    1.086   .     S
O620   Zn636   1.932   .     S
O620   Zn633   1.965   .     S
O620   Zn634   1.939   .     S
O620   Zn635   1.939   .     S
O621   Zn634   1.937   .     S
O622   Zn636   1.946   .     S
O623   Zn635   1.937   .     S
O624   Zn633   1.930   .     S
O625   Zn633   1.926   .     S
O626   Zn636   1.933   .     S
O627   Zn634   1.928   .     S
O628   Zn635   1.937   .     S
O629   Zn636   1.931   .     S
O630   Zn633   1.924   .     S
O631   Zn634   1.939   .     S
O632   Zn635   1.930   .     S
C637   O680    1.269   .     A
C637   O682    1.269   .     A
C637   C643    1.438   .     S
C638   C652    1.406   .     A
C638   C657    1.419   .     A
C638   Cl662   1.781   .     S
C639   Cl661   1.763   .     S
C639   C651    1.389   .     A
C639   C652    1.404   .     A
C640   O681    1.285   .     A
C640   C642    1.456   .     S
C640   O683    1.282   .     A
C641   C650    1.472   .     S
C641   C656    1.422   .     A
C641   C653    1.410   .     A
C642   C696    1.336   .     S
C642   F720    1.362   .     S
C643   C748    1.336   1_455 S
C643   H774    1.086   1_455 S
C644   C647    1.452   .     S
C644   C804    1.333   .     S
C644   F824    1.363   .     S
C645   C646    1.436   .     S
C646   O678    1.277   .     A
C646   O684    1.277   .     A
C647   O679    1.273   .     A
C647   O685    1.271   .     A
C648   C653    1.388   .     A
C648   Cl663   1.757   .     S
C648   C654    1.387   .     A
C649   O674    1.269   .     A
C649   C652    1.453   .     S
C649   O676    1.276   .     A
C650   O677    1.287   .     A
C650   O675    1.280   .     A
C651   H671    1.083   .     S
C653   F666    1.359   .     S
C654   C655    1.411   .     A
C654   H195    1.078   1_556 S
C655   C656    1.425   .     A
C655   C180    1.422   1_556 S
C656   C660    1.421   .     A
C658   C659    1.393   .     A
C658   C180    1.418   1_556 S
C658   C174    1.397   1_556 S
C659   C660    1.389   .     A
C659   H670    1.085   .     S
C660   Cl664   1.768   .     S
F667   C748    1.362   1_455 S
H668   C696    1.086   .     S
H669   C804    1.086   .     S
O673   Zn689   1.932   .     S
O673   Zn686   1.965   .     S
O673   Zn687   1.939   .     S
O673   Zn688   1.939   .     S
O674   Zn687   1.937   .     S
O675   Zn689   1.946   .     S
O676   Zn688   1.937   .     S
O677   Zn686   1.930   .     S
O678   Zn686   1.926   .     S
O679   Zn689   1.933   .     S
O680   Zn687   1.928   .     S
O681   Zn688   1.937   .     S
O682   Zn689   1.931   .     S
O683   Zn686   1.924   .     S
O684   Zn687   1.939   .     S
O685   Zn688   1.930   .     S
C690   O733    1.269   .     A
C690   O735    1.269   .     A
C690   C696    1.438   .     S
C691   C705    1.406   .     A
C691   C710    1.419   .     A
C691   Cl715   1.781   .     S
C692   Cl714   1.763   .     S
C692   C704    1.389   .     A
C692   C705    1.404   .     A
C693   O734    1.285   .     A
C693   C695    1.456   .     S
C693   O736    1.282   .     A
C694   C703    1.472   .     S
C694   C709    1.422   .     A
C694   C706    1.410   .     A
C695   C749    1.336   .     S
C695   F773    1.362   .     S
C697   C700    1.452   .     S
C697   C857    1.333   .     S
C697   F877    1.363   .     S
C698   C699    1.436   .     S
C699   O731    1.277   .     A
C699   O737    1.277   .     A
C700   O732    1.273   .     A
C700   O738    1.271   .     A
C701   C706    1.388   .     A
C701   Cl716   1.757   .     S
C701   C707    1.387   .     A
C702   O727    1.269   .     A
C702   C705    1.453   .     S
C702   O729    1.276   .     A
C703   O730    1.287   .     A
C703   O728    1.280   .     A
C704   H724    1.083   .     S
C706   F719    1.359   .     S
C707   C708    1.411   .     A
C707   H248    1.078   1_556 S
C708   C709    1.425   .     A
C708   C233    1.422   1_556 S
C709   C713    1.421   .     A
C711   C712    1.393   .     A
C711   C233    1.418   1_556 S
C711   C227    1.397   1_556 S
C712   C713    1.389   .     A
C712   H723    1.085   .     S
C713   Cl717   1.768   .     S
H721   C749    1.086   .     S
H722   C857    1.086   .     S
O726   Zn742   1.932   .     S
O726   Zn739   1.965   .     S
O726   Zn740   1.939   .     S
O726   Zn741   1.939   .     S
O727   Zn740   1.937   .     S
O728   Zn742   1.946   .     S
O729   Zn741   1.937   .     S
O730   Zn739   1.930   .     S
O731   Zn739   1.926   .     S
O732   Zn742   1.933   .     S
O733   Zn740   1.928   .     S
O734   Zn741   1.937   .     S
O735   Zn742   1.931   .     S
O736   Zn739   1.924   .     S
O737   Zn740   1.939   .     S
O738   Zn741   1.930   .     S
C743   O786    1.269   .     A
C743   O788    1.269   .     A
C743   C749    1.438   .     S
C744   C758    1.406   .     A
C744   C763    1.419   .     A
C744   Cl768   1.781   .     S
C745   Cl767   1.763   .     S
C745   C757    1.389   .     A
C745   C758    1.404   .     A
C746   O787    1.285   .     A
C746   C748    1.456   .     S
C746   O789    1.282   .     A
C747   C756    1.472   .     S
C747   C762    1.422   .     A
C747   C759    1.410   .     A
C748   C643    1.336   1_655 S
C748   F667    1.362   1_655 S
C750   C753    1.452   .     S
C750   C910    1.333   .     S
C750   F930    1.363   .     S
C751   C752    1.436   .     S
C752   O784    1.277   .     A
C752   O790    1.277   .     A
C753   O785    1.273   .     A
C753   O791    1.271   .     A
C754   C759    1.388   .     A
C754   Cl769   1.757   .     S
C754   C760    1.387   .     A
C755   O780    1.269   .     A
C755   C758    1.453   .     S
C755   O782    1.276   .     A
C756   O783    1.287   .     A
C756   O781    1.280   .     A
C757   H777    1.083   .     S
C759   F772    1.359   .     S
C760   C761    1.411   .     A
C760   H301    1.078   1_556 S
C761   C762    1.425   .     A
C761   C286    1.422   1_556 S
C762   C766    1.421   .     A
C764   C765    1.393   .     A
C764   C286    1.418   1_556 S
C764   C280    1.397   1_556 S
C765   C766    1.389   .     A
C765   H776    1.085   .     S
C766   Cl770   1.768   .     S
H774   C643    1.086   1_655 S
H775   C910    1.086   .     S
O779   Zn795   1.932   .     S
O779   Zn792   1.965   .     S
O779   Zn793   1.939   .     S
O779   Zn794   1.939   .     S
O780   Zn793   1.937   .     S
O781   Zn795   1.946   .     S
O782   Zn794   1.937   .     S
O783   Zn792   1.930   .     S
O784   Zn792   1.926   .     S
O785   Zn795   1.933   .     S
O786   Zn793   1.928   .     S
O787   Zn794   1.937   .     S
O788   Zn795   1.931   .     S
O789   Zn792   1.924   .     S
O790   Zn793   1.939   .     S
O791   Zn794   1.930   .     S
C796   O839    1.269   .     A
C796   O841    1.269   .     A
C796   C802    1.438   .     S
C797   C811    1.406   .     A
C797   C816    1.419   .     A
C797   Cl821   1.781   .     S
C798   Cl820   1.763   .     S
C798   C810    1.389   .     A
C798   C811    1.404   .     A
C799   O840    1.285   .     A
C799   C801    1.456   .     S
C799   O842    1.282   .     A
C800   C809    1.472   .     S
C800   C815    1.422   .     A
C800   C812    1.410   .     A
C801   C855    1.336   .     S
C801   F879    1.362   .     S
C802   C907    1.336   1_455 S
C802   H933    1.086   1_455 S
C803   C806    1.452   .     S
C803   C486    1.333   1_565 S
C803   F506    1.363   1_565 S
C804   C805    1.436   .     S
C805   O837    1.277   .     A
C805   O843    1.277   .     A
C806   O838    1.273   .     A
C806   O844    1.271   .     A
C807   C812    1.388   .     A
C807   Cl822   1.757   .     S
C807   C813    1.387   .     A
C808   O833    1.269   .     A
C808   C811    1.453   .     S
C808   O835    1.276   .     A
C809   O836    1.287   .     A
C809   O834    1.280   .     A
C810   H830    1.083   .     S
C812   F825    1.359   .     S
C813   C814    1.411   .     A
C813   H354    1.078   1_556 S
C814   C815    1.425   .     A
C814   C339    1.422   1_556 S
C815   C819    1.421   .     A
C817   C818    1.393   .     A
C817   C339    1.418   1_556 S
C817   C333    1.397   1_556 S
C818   C819    1.389   .     A
C818   H829    1.085   .     S
C819   Cl823   1.768   .     S
F826   C907    1.362   1_455 S
H827   C855    1.086   .     S
H828   C486    1.086   1_565 S
O832   Zn848   1.932   .     S
O832   Zn845   1.965   .     S
O832   Zn846   1.939   .     S
O832   Zn847   1.939   .     S
O833   Zn846   1.937   .     S
O834   Zn848   1.946   .     S
O835   Zn847   1.937   .     S
O836   Zn845   1.930   .     S
O837   Zn845   1.926   .     S
O838   Zn848   1.933   .     S
O839   Zn846   1.928   .     S
O840   Zn847   1.937   .     S
O841   Zn848   1.931   .     S
O842   Zn845   1.924   .     S
O843   Zn846   1.939   .     S
O844   Zn847   1.930   .     S
C849   O892    1.269   .     A
C849   O894    1.269   .     A
C849   C855    1.438   .     S
C850   C864    1.406   .     A
C850   C869    1.419   .     A
C850   Cl874   1.781   .     S
C851   Cl873   1.763   .     S
C851   C863    1.389   .     A
C851   C864    1.404   .     A
C852   O893    1.285   .     A
C852   C854    1.456   .     S
C852   O895    1.282   .     A
C853   C862    1.472   .     S
C853   C868    1.422   .     A
C853   C865    1.410   .     A
C854   C908    1.336   .     S
C854   F932    1.362   .     S
C856   C859    1.452   .     S
C856   C539    1.333   1_565 S
C856   F559    1.363   1_565 S
C857   C858    1.436   .     S
C858   O890    1.277   .     A
C858   O896    1.277   .     A
C859   O891    1.273   .     A
C859   O897    1.271   .     A
C860   C865    1.388   .     A
C860   Cl875   1.757   .     S
C860   C866    1.387   .     A
C861   O886    1.269   .     A
C861   C864    1.453   .     S
C861   O888    1.276   .     A
C862   O889    1.287   .     A
C862   O887    1.280   .     A
C863   H883    1.083   .     S
C865   F878    1.359   .     S
C866   C867    1.411   .     A
C866   H407    1.078   1_556 S
C867   C868    1.425   .     A
C867   C392    1.422   1_556 S
C868   C872    1.421   .     A
C870   C871    1.393   .     A
C870   C392    1.418   1_556 S
C870   C386    1.397   1_556 S
C871   C872    1.389   .     A
C871   H882    1.085   .     S
C872   Cl876   1.768   .     S
H880   C908    1.086   .     S
H881   C539    1.086   1_565 S
O885   Zn901   1.932   .     S
O885   Zn898   1.965   .     S
O885   Zn899   1.939   .     S
O885   Zn900   1.939   .     S
O886   Zn899   1.937   .     S
O887   Zn901   1.946   .     S
O888   Zn900   1.937   .     S
O889   Zn898   1.930   .     S
O890   Zn898   1.926   .     S
O891   Zn901   1.933   .     S
O892   Zn899   1.928   .     S
O893   Zn900   1.937   .     S
O894   Zn901   1.931   .     S
O895   Zn898   1.924   .     S
O896   Zn899   1.939   .     S
O897   Zn900   1.930   .     S
C902   O945    1.269   .     A
C902   O947    1.269   .     A
C902   C908    1.438   .     S
C903   C917    1.406   .     A
C903   C922    1.419   .     A
C903   Cl927   1.781   .     S
C904   Cl926   1.763   .     S
C904   C916    1.389   .     A
C904   C917    1.404   .     A
C905   O946    1.285   .     A
C905   C907    1.456   .     S
C905   O948    1.282   .     A
C906   C915    1.472   .     S
C906   C921    1.422   .     A
C906   C918    1.410   .     A
C907   C802    1.336   1_655 S
C907   F826    1.362   1_655 S
C909   C912    1.452   .     S
C909   C592    1.333   1_565 S
C909   F612    1.363   1_565 S
C910   C911    1.436   .     S
C911   O943    1.277   .     A
C911   O949    1.277   .     A
C912   O944    1.273   .     A
C912   O950    1.271   .     A
C913   C918    1.388   .     A
C913   Cl928   1.757   .     S
C913   C919    1.387   .     A
C914   O939    1.269   .     A
C914   C917    1.453   .     S
C914   O941    1.276   .     A
C915   O942    1.287   .     A
C915   O940    1.280   .     A
C916   H936    1.083   .     S
C918   F931    1.359   .     S
C919   C920    1.411   .     A
C919   H460    1.078   1_556 S
C920   C921    1.425   .     A
C920   C445    1.422   1_556 S
C921   C925    1.421   .     A
C923   C924    1.393   .     A
C923   C445    1.418   1_556 S
C923   C439    1.397   1_556 S
C924   C925    1.389   .     A
C924   H935    1.085   .     S
C925   Cl929   1.768   .     S
H933   C802    1.086   1_655 S
H934   C592    1.086   1_565 S
O938   Zn954   1.932   .     S
O938   Zn951   1.965   .     S
O938   Zn952   1.939   .     S
O938   Zn953   1.939   .     S
O939   Zn952   1.937   .     S
O940   Zn954   1.946   .     S
O941   Zn953   1.937   .     S
O942   Zn951   1.930   .     S
O943   Zn951   1.926   .     S
O944   Zn954   1.933   .     S
O945   Zn952   1.928   .     S
O946   Zn953   1.937   .     S
O947   Zn954   1.931   .     S
O948   Zn951   1.924   .     S
O949   Zn952   1.939   .     S
O950   Zn953   1.930   .     S
