data_str_m2_o1_o2_pcu_sym.51
_audit_creation_date              2020-01-03
_audit_creation_method            'Materials Studio'
_symmetry_space_group_name_H-M    'P1'
_symmetry_Int_Tables_number       1
_symmetry_cell_setting            triclinic
loop_
_symmetry_equiv_pos_as_xyz
  x,y,z
_cell_length_a                    32.4926
_cell_length_b                    28.4704
_cell_length_c                    30.4475
_cell_angle_alpha                 90.0003
_cell_angle_beta                  90.2982
_cell_angle_gamma                 90.0000
loop_
_atom_site_label
_atom_site_type_symbol
_atom_site_fract_x
_atom_site_fract_y
_atom_site_fract_z
_atom_site_U_iso_or_equiv
_atom_site_adp_type
_atom_site_occupancy
C1     C     0.08733   0.16666   0.24995   0.00000  Uiso   1.00
C2     C     0.31205   0.20936   0.25006   0.00000  Uiso   1.00
C3     C     0.31205   0.12396   0.25007   0.00000  Uiso   1.00
C4     C     0.02128   0.20936   0.24996   0.00000  Uiso   1.00
C5     C     0.15547   0.20618   0.04708   0.00000  Uiso   1.00
C6     C     0.15573   0.12510   0.45231   0.00000  Uiso   1.00
C7     C     0.17786   0.20618   0.45292   0.00000  Uiso   1.00
C8     C     0.17761   0.12510   0.04769   0.00000  Uiso   1.00
C9     C     0.15559   0.20712   0.09280   0.00000  Uiso   1.00
C10    C     0.15545   0.12517   0.40654   0.00000  Uiso   1.00
C11    C     0.17774   0.20712   0.40720   0.00000  Uiso   1.00
C12    C     0.24601   0.16666   0.25005   0.00000  Uiso   1.00
C13    C     0.17789   0.12517   0.09346   0.00000  Uiso   1.00
C14    C     0.16675   0.16638   0.11655   0.00000  Uiso   1.00
C15    C     0.16658   0.16638   0.38345   0.00000  Uiso   1.00
C16    C     0.16651   0.16547   0.02419   0.00000  Uiso   1.00
C17    C     0.16683   0.16547   0.47581   0.00000  Uiso   1.00
C18    C     0.29061   0.16666   0.25008   0.00000  Uiso   1.00
C19    C     0.04273   0.16666   0.24992   0.00000  Uiso   1.00
C20    C     0.10532   0.25804   0.11516   0.00000  Uiso   1.00
C21    C     0.09834   0.31116   0.11492   0.00000  Uiso   1.00
C22    C     0.05381   0.32347   0.12551   0.00000  Uiso   1.00
C23    C     0.16671   0.16664   0.16489   0.00000  Uiso   1.00
C24    C     0.10290   0.07984   0.38096   0.00000  Uiso   1.00
C25    C     0.09281   0.03922   0.34992   0.00000  Uiso   1.00
C26    C     0.04649   0.03156   0.34596   0.00000  Uiso   1.00
C27    C     0.22801   0.25805   0.38485   0.00000  Uiso   1.00
C28    C     0.23498   0.31117   0.38509   0.00000  Uiso   1.00
C29    C     0.27951   0.32348   0.37449   0.00000  Uiso   1.00
C30    C     0.23044   0.07983   0.11902   0.00000  Uiso   1.00
C31    C     0.24053   0.03926   0.15012   0.00000  Uiso   1.00
C32    C     0.28685   0.03157   0.15404   0.00000  Uiso   1.00
C33    C     0.16662   0.16664   0.33511   0.00000  Uiso   1.00
C34    C     0.13580   0.02482   0.22974   0.00000  Uiso   1.00
C35    C     0.19768   0.30851   0.26996   0.00000  Uiso   1.00
C36    C     0.19754   0.02482   0.27026   0.00000  Uiso   1.00
C37    C     0.13565   0.30851   0.23004   0.00000  Uiso   1.00
C38    C     0.02128   0.12396   0.24990   0.00000  Uiso   1.00
Cu39   Cu    0.16667   0.21355   0.25000   0.00000  Uiso   1.00
Cu40   Cu    0.16667   0.11978   0.25000   0.00000  Uiso   1.00
H41    H     0.11112   0.04351   0.21340   0.00000  Uiso   1.00
H42    H     0.29603   0.24273   0.25011   0.00000  Uiso   1.00
H43    H     0.29603   0.09058   0.25016   0.00000  Uiso   1.00
H44    H     0.03730   0.24273   0.24992   0.00000  Uiso   1.00
H45    H     0.09287   0.24267   0.14594   0.00000  Uiso   1.00
H46    H     0.08790   0.24279   0.08682   0.00000  Uiso   1.00
H47    H     0.11892   0.32822   0.13936   0.00000  Uiso   1.00
H48    H     0.10620   0.32535   0.08200   0.00000  Uiso   1.00
H49    H     0.03269   0.30728   0.10104   0.00000  Uiso   1.00
H50    H     0.04980   0.02886   0.12453   0.00000  Uiso   1.00
H51    H     0.04573   0.31082   0.15889   0.00000  Uiso   1.00
H52    H     0.22258   0.28981   0.28582   0.00000  Uiso   1.00
H53    H     0.08886   0.11253   0.36721   0.00000  Uiso   1.00
H54    H     0.08936   0.07240   0.41377   0.00000  Uiso   1.00
H55    H     0.10539   0.04707   0.31689   0.00000  Uiso   1.00
H56    H     0.10750   0.00647   0.36226   0.00000  Uiso   1.00
H57    H     0.03353   0.02236   0.37851   0.00000  Uiso   1.00
H58    H     0.04021   0.00230   0.32275   0.00000  Uiso   1.00
H59    H     0.03116   0.06379   0.33344   0.00000  Uiso   1.00
H60    H     0.24046   0.24268   0.35406   0.00000  Uiso   1.00
H61    H     0.24543   0.24281   0.41319   0.00000  Uiso   1.00
H62    H     0.21440   0.32822   0.36064   0.00000  Uiso   1.00
H63    H     0.22222   0.04351   0.28660   0.00000  Uiso   1.00
H64    H     0.22711   0.32537   0.41800   0.00000  Uiso   1.00
H65    H     0.30063   0.30730   0.39897   0.00000  Uiso   1.00
H66    H     0.28351   0.02887   0.37547   0.00000  Uiso   1.00
H67    H     0.28759   0.31084   0.34111   0.00000  Uiso   1.00
H68    H     0.24450   0.11253   0.13270   0.00000  Uiso   1.00
H69    H     0.24395   0.07232   0.08621   0.00000  Uiso   1.00
H70    H     0.22798   0.04718   0.18314   0.00000  Uiso   1.00
H71    H     0.22582   0.00650   0.13784   0.00000  Uiso   1.00
H72    H     0.29978   0.02230   0.12150   0.00000  Uiso   1.00
H73    H     0.29314   0.00235   0.17729   0.00000  Uiso   1.00
H74    H     0.11075   0.28981   0.21418   0.00000  Uiso   1.00
H75    H     0.30221   0.06381   0.16650   0.00000  Uiso   1.00
H76    H     0.14633   0.23770   0.02971   0.00000  Uiso   1.00
H77    H     0.14654   0.09338   0.46925   0.00000  Uiso   1.00
H78    H     0.18700   0.23770   0.47030   0.00000  Uiso   1.00
H79    H     0.18680   0.09338   0.03075   0.00000  Uiso   1.00
H80    H     0.03730   0.09058   0.24980   0.00000  Uiso   1.00
N81    N     0.16667   0.28402   0.25000   0.00000  Uiso   1.00
N82    N     0.16667   0.04931   0.25000   0.00000  Uiso   1.00
O83    O     0.10655   0.20625   0.25000   0.00000  Uiso   1.00
O84    O     0.14608   0.08398   0.38459   0.00000  Uiso   1.00
O85    O     0.18520   0.24935   0.38629   0.00000  Uiso   1.00
O86    O     0.18726   0.08398   0.11541   0.00000  Uiso   1.00
O87    O     0.22679   0.12709   0.25001   0.00000  Uiso   1.00
O88    O     0.22679   0.20625   0.25001   0.00000  Uiso   1.00
O89    O     0.10655   0.12709   0.25000   0.00000  Uiso   1.00
O90    O     0.16666   0.20626   0.18573   0.00000  Uiso   1.00
O91    O     0.16667   0.12707   0.31427   0.00000  Uiso   1.00
O92    O     0.16667   0.20626   0.31427   0.00000  Uiso   1.00
O93    O     0.16666   0.12707   0.18573   0.00000  Uiso   1.00
O94    O     0.14813   0.24935   0.11372   0.00000  Uiso   1.00
C95    C     0.42066   0.16666   0.24995   0.00000  Uiso   1.00
C96    C     0.64538   0.20936   0.25006   0.00000  Uiso   1.00
C97    C     0.64538   0.12396   0.25007   0.00000  Uiso   1.00
C98    C     0.35462   0.20936   0.24996   0.00000  Uiso   1.00
C99    C     0.48880   0.20618   0.04708   0.00000  Uiso   1.00
C100   C     0.48906   0.12510   0.45231   0.00000  Uiso   1.00
C101   C     0.51119   0.20618   0.45292   0.00000  Uiso   1.00
C102   C     0.51094   0.12510   0.04769   0.00000  Uiso   1.00
C103   C     0.48892   0.20712   0.09280   0.00000  Uiso   1.00
C104   C     0.48878   0.12517   0.40654   0.00000  Uiso   1.00
C105   C     0.51108   0.20712   0.40720   0.00000  Uiso   1.00
C106   C     0.57934   0.16666   0.25005   0.00000  Uiso   1.00
C107   C     0.51122   0.12517   0.09346   0.00000  Uiso   1.00
C108   C     0.50008   0.16638   0.11655   0.00000  Uiso   1.00
C109   C     0.49991   0.16638   0.38345   0.00000  Uiso   1.00
C110   C     0.49984   0.16547   0.02419   0.00000  Uiso   1.00
C111   C     0.50016   0.16547   0.47581   0.00000  Uiso   1.00
C112   C     0.62394   0.16666   0.25008   0.00000  Uiso   1.00
C113   C     0.37606   0.16666   0.24992   0.00000  Uiso   1.00
C114   C     0.43865   0.25804   0.11516   0.00000  Uiso   1.00
C115   C     0.43167   0.31116   0.11492   0.00000  Uiso   1.00
C116   C     0.38715   0.32347   0.12551   0.00000  Uiso   1.00
C117   C     0.50004   0.16664   0.16489   0.00000  Uiso   1.00
C118   C     0.43623   0.07984   0.38096   0.00000  Uiso   1.00
C119   C     0.42615   0.03922   0.34992   0.00000  Uiso   1.00
C120   C     0.37983   0.03156   0.34596   0.00000  Uiso   1.00
C121   C     0.56134   0.25805   0.38485   0.00000  Uiso   1.00
C122   C     0.56831   0.31117   0.38509   0.00000  Uiso   1.00
C123   C     0.61284   0.32348   0.37449   0.00000  Uiso   1.00
C124   C     0.56377   0.07983   0.11902   0.00000  Uiso   1.00
C125   C     0.57386   0.03926   0.15012   0.00000  Uiso   1.00
C126   C     0.62018   0.03157   0.15404   0.00000  Uiso   1.00
C127   C     0.49996   0.16664   0.33511   0.00000  Uiso   1.00
C128   C     0.46913   0.02482   0.22974   0.00000  Uiso   1.00
C129   C     0.53102   0.30851   0.26996   0.00000  Uiso   1.00
C130   C     0.53087   0.02482   0.27026   0.00000  Uiso   1.00
C131   C     0.46898   0.30851   0.23004   0.00000  Uiso   1.00
C132   C     0.35462   0.12396   0.24990   0.00000  Uiso   1.00
Cu133  Cu    0.50000   0.21355   0.25000   0.00000  Uiso   1.00
Cu134  Cu    0.50000   0.11978   0.25000   0.00000  Uiso   1.00
H135   H     0.44445   0.04351   0.21340   0.00000  Uiso   1.00
H136   H     0.62937   0.24273   0.25011   0.00000  Uiso   1.00
H137   H     0.62936   0.09058   0.25016   0.00000  Uiso   1.00
H138   H     0.37063   0.24273   0.24992   0.00000  Uiso   1.00
H139   H     0.42621   0.24267   0.14594   0.00000  Uiso   1.00
H140   H     0.42123   0.24279   0.08682   0.00000  Uiso   1.00
H141   H     0.45225   0.32822   0.13936   0.00000  Uiso   1.00
H142   H     0.43954   0.32535   0.08200   0.00000  Uiso   1.00
H143   H     0.36602   0.30728   0.10104   0.00000  Uiso   1.00
H144   H     0.38314   0.02886   0.12453   0.00000  Uiso   1.00
H145   H     0.37907   0.31082   0.15889   0.00000  Uiso   1.00
H146   H     0.55592   0.28981   0.28582   0.00000  Uiso   1.00
H147   H     0.42220   0.11253   0.36721   0.00000  Uiso   1.00
H148   H     0.42270   0.07240   0.41377   0.00000  Uiso   1.00
H149   H     0.43872   0.04707   0.31689   0.00000  Uiso   1.00
H150   H     0.44083   0.00647   0.36226   0.00000  Uiso   1.00
H151   H     0.36686   0.02236   0.37851   0.00000  Uiso   1.00
H152   H     0.37354   0.00230   0.32275   0.00000  Uiso   1.00
H153   H     0.36449   0.06379   0.33344   0.00000  Uiso   1.00
H154   H     0.57379   0.24268   0.35406   0.00000  Uiso   1.00
H155   H     0.57876   0.24281   0.41319   0.00000  Uiso   1.00
H156   H     0.54773   0.32822   0.36064   0.00000  Uiso   1.00
H157   H     0.55555   0.04351   0.28660   0.00000  Uiso   1.00
H158   H     0.56044   0.32537   0.41800   0.00000  Uiso   1.00
H159   H     0.63397   0.30730   0.39897   0.00000  Uiso   1.00
H160   H     0.61684   0.02887   0.37547   0.00000  Uiso   1.00
H161   H     0.62092   0.31084   0.34111   0.00000  Uiso   1.00
H162   H     0.57783   0.11253   0.13270   0.00000  Uiso   1.00
H163   H     0.57728   0.07232   0.08621   0.00000  Uiso   1.00
H164   H     0.56132   0.04718   0.18314   0.00000  Uiso   1.00
H165   H     0.55915   0.00650   0.13784   0.00000  Uiso   1.00
H166   H     0.63311   0.02230   0.12150   0.00000  Uiso   1.00
H167   H     0.62647   0.00235   0.17729   0.00000  Uiso   1.00
H168   H     0.44408   0.28981   0.21418   0.00000  Uiso   1.00
H169   H     0.63554   0.06381   0.16650   0.00000  Uiso   1.00
H170   H     0.47966   0.23770   0.02971   0.00000  Uiso   1.00
H171   H     0.47987   0.09338   0.46925   0.00000  Uiso   1.00
H172   H     0.52033   0.23770   0.47030   0.00000  Uiso   1.00
H173   H     0.52013   0.09338   0.03075   0.00000  Uiso   1.00
H174   H     0.37064   0.09058   0.24980   0.00000  Uiso   1.00
N175   N     0.50000   0.28402   0.25000   0.00000  Uiso   1.00
N176   N     0.50000   0.04931   0.25000   0.00000  Uiso   1.00
O177   O     0.43988   0.20625   0.25000   0.00000  Uiso   1.00
O178   O     0.47941   0.08398   0.38459   0.00000  Uiso   1.00
O179   O     0.51853   0.24935   0.38629   0.00000  Uiso   1.00
O180   O     0.52059   0.08398   0.11541   0.00000  Uiso   1.00
O181   O     0.56012   0.12709   0.25001   0.00000  Uiso   1.00
O182   O     0.56012   0.20625   0.25001   0.00000  Uiso   1.00
O183   O     0.43988   0.12709   0.25000   0.00000  Uiso   1.00
O184   O     0.50000   0.20626   0.18573   0.00000  Uiso   1.00
O185   O     0.50000   0.12707   0.31427   0.00000  Uiso   1.00
O186   O     0.50000   0.20626   0.31427   0.00000  Uiso   1.00
O187   O     0.50000   0.12707   0.18573   0.00000  Uiso   1.00
O188   O     0.48146   0.24935   0.11372   0.00000  Uiso   1.00
C189   C     0.75399   0.16666   0.24995   0.00000  Uiso   1.00
C190   C     0.97872   0.20936   0.25006   0.00000  Uiso   1.00
C191   C     0.97872   0.12396   0.25007   0.00000  Uiso   1.00
C192   C     0.68795   0.20936   0.24996   0.00000  Uiso   1.00
C193   C     0.82214   0.20618   0.04708   0.00000  Uiso   1.00
C194   C     0.82239   0.12510   0.45231   0.00000  Uiso   1.00
C195   C     0.84453   0.20618   0.45292   0.00000  Uiso   1.00
C196   C     0.84428   0.12510   0.04769   0.00000  Uiso   1.00
C197   C     0.82225   0.20712   0.09280   0.00000  Uiso   1.00
C198   C     0.82211   0.12517   0.40654   0.00000  Uiso   1.00
C199   C     0.84441   0.20712   0.40720   0.00000  Uiso   1.00
C200   C     0.91267   0.16666   0.25005   0.00000  Uiso   1.00
C201   C     0.84456   0.12517   0.09346   0.00000  Uiso   1.00
C202   C     0.83342   0.16638   0.11655   0.00000  Uiso   1.00
C203   C     0.83325   0.16638   0.38345   0.00000  Uiso   1.00
C204   C     0.83317   0.16547   0.02419   0.00000  Uiso   1.00
C205   C     0.83349   0.16547   0.47581   0.00000  Uiso   1.00
C206   C     0.95727   0.16666   0.25008   0.00000  Uiso   1.00
C207   C     0.70939   0.16666   0.24992   0.00000  Uiso   1.00
C208   C     0.77198   0.25804   0.11516   0.00000  Uiso   1.00
C209   C     0.76501   0.31116   0.11492   0.00000  Uiso   1.00
C210   C     0.72048   0.32347   0.12551   0.00000  Uiso   1.00
C211   C     0.83338   0.16664   0.16489   0.00000  Uiso   1.00
C212   C     0.76956   0.07984   0.38096   0.00000  Uiso   1.00
C213   C     0.75948   0.03922   0.34992   0.00000  Uiso   1.00
C214   C     0.71316   0.03156   0.34596   0.00000  Uiso   1.00
C215   C     0.89467   0.25805   0.38485   0.00000  Uiso   1.00
C216   C     0.90164   0.31117   0.38509   0.00000  Uiso   1.00
C217   C     0.94617   0.32348   0.37449   0.00000  Uiso   1.00
C218   C     0.89711   0.07983   0.11902   0.00000  Uiso   1.00
C219   C     0.90719   0.03926   0.15012   0.00000  Uiso   1.00
C220   C     0.95351   0.03157   0.15404   0.00000  Uiso   1.00
C221   C     0.83329   0.16664   0.33511   0.00000  Uiso   1.00
C222   C     0.80246   0.02482   0.22974   0.00000  Uiso   1.00
C223   C     0.86435   0.30851   0.26996   0.00000  Uiso   1.00
C224   C     0.86420   0.02482   0.27026   0.00000  Uiso   1.00
C225   C     0.80232   0.30851   0.23004   0.00000  Uiso   1.00
C226   C     0.68795   0.12396   0.24990   0.00000  Uiso   1.00
Cu227  Cu    0.83333   0.21355   0.25000   0.00000  Uiso   1.00
Cu228  Cu    0.83333   0.11978   0.25000   0.00000  Uiso   1.00
H229   H     0.77778   0.04351   0.21340   0.00000  Uiso   1.00
H230   H     0.96270   0.24273   0.25011   0.00000  Uiso   1.00
H231   H     0.96269   0.09058   0.25016   0.00000  Uiso   1.00
H232   H     0.70397   0.24273   0.24992   0.00000  Uiso   1.00
H233   H     0.75954   0.24267   0.14594   0.00000  Uiso   1.00
H234   H     0.75457   0.24279   0.08682   0.00000  Uiso   1.00
H235   H     0.78559   0.32822   0.13936   0.00000  Uiso   1.00
H236   H     0.77287   0.32535   0.08200   0.00000  Uiso   1.00
H237   H     0.69935   0.30728   0.10104   0.00000  Uiso   1.00
H238   H     0.71647   0.02886   0.12453   0.00000  Uiso   1.00
H239   H     0.71240   0.31082   0.15889   0.00000  Uiso   1.00
H240   H     0.88925   0.28981   0.28582   0.00000  Uiso   1.00
H241   H     0.75553   0.11253   0.36721   0.00000  Uiso   1.00
H242   H     0.75603   0.07240   0.41377   0.00000  Uiso   1.00
H243   H     0.77205   0.04707   0.31689   0.00000  Uiso   1.00
H244   H     0.77416   0.00647   0.36226   0.00000  Uiso   1.00
H245   H     0.70019   0.02236   0.37851   0.00000  Uiso   1.00
H246   H     0.70687   0.00230   0.32275   0.00000  Uiso   1.00
H247   H     0.69783   0.06379   0.33344   0.00000  Uiso   1.00
H248   H     0.90712   0.24268   0.35406   0.00000  Uiso   1.00
H249   H     0.91209   0.24281   0.41319   0.00000  Uiso   1.00
H250   H     0.88107   0.32822   0.36064   0.00000  Uiso   1.00
H251   H     0.88888   0.04351   0.28660   0.00000  Uiso   1.00
H252   H     0.89378   0.32537   0.41800   0.00000  Uiso   1.00
H253   H     0.96730   0.30730   0.39897   0.00000  Uiso   1.00
H254   H     0.95018   0.02887   0.37547   0.00000  Uiso   1.00
H255   H     0.95425   0.31084   0.34111   0.00000  Uiso   1.00
H256   H     0.91116   0.11253   0.13270   0.00000  Uiso   1.00
H257   H     0.91061   0.07232   0.08621   0.00000  Uiso   1.00
H258   H     0.89465   0.04718   0.18314   0.00000  Uiso   1.00
H259   H     0.89248   0.00650   0.13784   0.00000  Uiso   1.00
H260   H     0.96645   0.02230   0.12150   0.00000  Uiso   1.00
H261   H     0.95980   0.00235   0.17729   0.00000  Uiso   1.00
H262   H     0.77742   0.28981   0.21418   0.00000  Uiso   1.00
H263   H     0.96887   0.06381   0.16650   0.00000  Uiso   1.00
H264   H     0.81300   0.23770   0.02971   0.00000  Uiso   1.00
H265   H     0.81321   0.09338   0.46925   0.00000  Uiso   1.00
H266   H     0.85367   0.23770   0.47030   0.00000  Uiso   1.00
H267   H     0.85346   0.09338   0.03075   0.00000  Uiso   1.00
H268   H     0.70397   0.09058   0.24980   0.00000  Uiso   1.00
N269   N     0.83333   0.28402   0.25000   0.00000  Uiso   1.00
N270   N     0.83333   0.04931   0.25000   0.00000  Uiso   1.00
O271   O     0.77321   0.20625   0.25000   0.00000  Uiso   1.00
O272   O     0.81274   0.08398   0.38459   0.00000  Uiso   1.00
O273   O     0.85186   0.24935   0.38629   0.00000  Uiso   1.00
O274   O     0.85393   0.08398   0.11541   0.00000  Uiso   1.00
O275   O     0.89345   0.12709   0.25001   0.00000  Uiso   1.00
O276   O     0.89345   0.20625   0.25001   0.00000  Uiso   1.00
O277   O     0.77321   0.12709   0.25000   0.00000  Uiso   1.00
O278   O     0.83333   0.20626   0.18573   0.00000  Uiso   1.00
O279   O     0.83334   0.12707   0.31427   0.00000  Uiso   1.00
O280   O     0.83334   0.20626   0.31427   0.00000  Uiso   1.00
O281   O     0.83333   0.12707   0.18573   0.00000  Uiso   1.00
O282   O     0.81480   0.24935   0.11372   0.00000  Uiso   1.00
C283   C     0.08733   0.50000   0.24995   0.00000  Uiso   1.00
C284   C     0.31205   0.54269   0.25006   0.00000  Uiso   1.00
C285   C     0.31205   0.45729   0.25007   0.00000  Uiso   1.00
C286   C     0.02128   0.54269   0.24996   0.00000  Uiso   1.00
C287   C     0.15547   0.53951   0.04708   0.00000  Uiso   1.00
C288   C     0.15573   0.45843   0.45231   0.00000  Uiso   1.00
C289   C     0.17786   0.53951   0.45292   0.00000  Uiso   1.00
C290   C     0.17761   0.45843   0.04769   0.00000  Uiso   1.00
C291   C     0.15559   0.54045   0.09280   0.00000  Uiso   1.00
C292   C     0.15545   0.45850   0.40654   0.00000  Uiso   1.00
C293   C     0.17774   0.54045   0.40720   0.00000  Uiso   1.00
C294   C     0.24601   0.50000   0.25005   0.00000  Uiso   1.00
C295   C     0.17789   0.45850   0.09346   0.00000  Uiso   1.00
C296   C     0.16675   0.49971   0.11655   0.00000  Uiso   1.00
C297   C     0.16658   0.49972   0.38345   0.00000  Uiso   1.00
C298   C     0.16651   0.49880   0.02419   0.00000  Uiso   1.00
C299   C     0.16683   0.49880   0.47581   0.00000  Uiso   1.00
C300   C     0.29061   0.49999   0.25008   0.00000  Uiso   1.00
C301   C     0.04273   0.49999   0.24992   0.00000  Uiso   1.00
C302   C     0.10532   0.59138   0.11516   0.00000  Uiso   1.00
C303   C     0.09834   0.64449   0.11492   0.00000  Uiso   1.00
C304   C     0.05381   0.65680   0.12551   0.00000  Uiso   1.00
C305   C     0.16671   0.49997   0.16489   0.00000  Uiso   1.00
C306   C     0.10290   0.41318   0.38096   0.00000  Uiso   1.00
C307   C     0.09281   0.37256   0.34992   0.00000  Uiso   1.00
C308   C     0.04649   0.36489   0.34596   0.00000  Uiso   1.00
C309   C     0.22801   0.59139   0.38485   0.00000  Uiso   1.00
C310   C     0.23498   0.64450   0.38509   0.00000  Uiso   1.00
C311   C     0.27951   0.65682   0.37449   0.00000  Uiso   1.00
C312   C     0.23044   0.41316   0.11902   0.00000  Uiso   1.00
C313   C     0.24053   0.37260   0.15012   0.00000  Uiso   1.00
C314   C     0.28685   0.36491   0.15404   0.00000  Uiso   1.00
C315   C     0.16662   0.49997   0.33511   0.00000  Uiso   1.00
C316   C     0.13580   0.35816   0.22974   0.00000  Uiso   1.00
C317   C     0.19768   0.64185   0.26996   0.00000  Uiso   1.00
C318   C     0.19754   0.35816   0.27026   0.00000  Uiso   1.00
C319   C     0.13565   0.64185   0.23004   0.00000  Uiso   1.00
C320   C     0.02128   0.45729   0.24990   0.00000  Uiso   1.00
Cu321  Cu    0.16667   0.54689   0.25000   0.00000  Uiso   1.00
Cu322  Cu    0.16667   0.45311   0.25000   0.00000  Uiso   1.00
H323   H     0.11112   0.37684   0.21340   0.00000  Uiso   1.00
H324   H     0.29603   0.57607   0.25011   0.00000  Uiso   1.00
H325   H     0.29603   0.42392   0.25016   0.00000  Uiso   1.00
H326   H     0.03730   0.57607   0.24992   0.00000  Uiso   1.00
H327   H     0.09287   0.57601   0.14594   0.00000  Uiso   1.00
H328   H     0.08790   0.57613   0.08682   0.00000  Uiso   1.00
H329   H     0.11892   0.66155   0.13936   0.00000  Uiso   1.00
H330   H     0.10620   0.65869   0.08200   0.00000  Uiso   1.00
H331   H     0.03269   0.64061   0.10104   0.00000  Uiso   1.00
H332   H     0.04980   0.36219   0.12453   0.00000  Uiso   1.00
H333   H     0.04573   0.64416   0.15889   0.00000  Uiso   1.00
H334   H     0.22258   0.62315   0.28582   0.00000  Uiso   1.00
H335   H     0.08886   0.44586   0.36721   0.00000  Uiso   1.00
H336   H     0.08936   0.40574   0.41377   0.00000  Uiso   1.00
H337   H     0.10539   0.38040   0.31689   0.00000  Uiso   1.00
H338   H     0.10750   0.33981   0.36226   0.00000  Uiso   1.00
H339   H     0.03353   0.35569   0.37851   0.00000  Uiso   1.00
H340   H     0.04021   0.33564   0.32275   0.00000  Uiso   1.00
H341   H     0.03116   0.39713   0.33344   0.00000  Uiso   1.00
H342   H     0.24046   0.57601   0.35406   0.00000  Uiso   1.00
H343   H     0.24543   0.57614   0.41319   0.00000  Uiso   1.00
H344   H     0.21440   0.66156   0.36064   0.00000  Uiso   1.00
H345   H     0.22222   0.37684   0.28660   0.00000  Uiso   1.00
H346   H     0.22711   0.65870   0.41800   0.00000  Uiso   1.00
H347   H     0.30063   0.64063   0.39897   0.00000  Uiso   1.00
H348   H     0.28351   0.36221   0.37547   0.00000  Uiso   1.00
H349   H     0.28759   0.64417   0.34111   0.00000  Uiso   1.00
H350   H     0.24450   0.44586   0.13270   0.00000  Uiso   1.00
H351   H     0.24395   0.40565   0.08621   0.00000  Uiso   1.00
H352   H     0.22798   0.38051   0.18314   0.00000  Uiso   1.00
H353   H     0.22582   0.33983   0.13784   0.00000  Uiso   1.00
H354   H     0.29978   0.35563   0.12150   0.00000  Uiso   1.00
H355   H     0.29314   0.33569   0.17729   0.00000  Uiso   1.00
H356   H     0.11075   0.62315   0.21418   0.00000  Uiso   1.00
H357   H     0.30221   0.39715   0.16650   0.00000  Uiso   1.00
H358   H     0.14633   0.57104   0.02971   0.00000  Uiso   1.00
H359   H     0.14654   0.42671   0.46925   0.00000  Uiso   1.00
H360   H     0.18700   0.57104   0.47030   0.00000  Uiso   1.00
H361   H     0.18680   0.42672   0.03075   0.00000  Uiso   1.00
H362   H     0.03730   0.42392   0.24980   0.00000  Uiso   1.00
N363   N     0.16667   0.61736   0.25000   0.00000  Uiso   1.00
N364   N     0.16667   0.38264   0.25000   0.00000  Uiso   1.00
O365   O     0.10655   0.53958   0.25000   0.00000  Uiso   1.00
O366   O     0.14608   0.41731   0.38459   0.00000  Uiso   1.00
O367   O     0.18520   0.58268   0.38629   0.00000  Uiso   1.00
O368   O     0.18726   0.41731   0.11541   0.00000  Uiso   1.00
O369   O     0.22679   0.46042   0.25001   0.00000  Uiso   1.00
O370   O     0.22679   0.53958   0.25001   0.00000  Uiso   1.00
O371   O     0.10655   0.46042   0.25000   0.00000  Uiso   1.00
O372   O     0.16666   0.53959   0.18573   0.00000  Uiso   1.00
O373   O     0.16667   0.46041   0.31427   0.00000  Uiso   1.00
O374   O     0.16667   0.53959   0.31427   0.00000  Uiso   1.00
O375   O     0.16666   0.46041   0.18573   0.00000  Uiso   1.00
O376   O     0.14813   0.58268   0.11372   0.00000  Uiso   1.00
C377   C     0.42066   0.50000   0.24995   0.00000  Uiso   1.00
C378   C     0.64538   0.54269   0.25006   0.00000  Uiso   1.00
C379   C     0.64538   0.45729   0.25007   0.00000  Uiso   1.00
C380   C     0.35462   0.54269   0.24996   0.00000  Uiso   1.00
C381   C     0.48880   0.53951   0.04708   0.00000  Uiso   1.00
C382   C     0.48906   0.45843   0.45231   0.00000  Uiso   1.00
C383   C     0.51119   0.53951   0.45292   0.00000  Uiso   1.00
C384   C     0.51094   0.45843   0.04769   0.00000  Uiso   1.00
C385   C     0.48892   0.54045   0.09280   0.00000  Uiso   1.00
C386   C     0.48878   0.45850   0.40654   0.00000  Uiso   1.00
C387   C     0.51108   0.54045   0.40720   0.00000  Uiso   1.00
C388   C     0.57934   0.50000   0.25005   0.00000  Uiso   1.00
C389   C     0.51122   0.45850   0.09346   0.00000  Uiso   1.00
C390   C     0.50008   0.49971   0.11655   0.00000  Uiso   1.00
C391   C     0.49991   0.49972   0.38345   0.00000  Uiso   1.00
C392   C     0.49984   0.49880   0.02419   0.00000  Uiso   1.00
C393   C     0.50016   0.49880   0.47581   0.00000  Uiso   1.00
C394   C     0.62394   0.49999   0.25008   0.00000  Uiso   1.00
C395   C     0.37606   0.49999   0.24992   0.00000  Uiso   1.00
C396   C     0.43865   0.59138   0.11516   0.00000  Uiso   1.00
C397   C     0.43167   0.64449   0.11492   0.00000  Uiso   1.00
C398   C     0.38715   0.65680   0.12551   0.00000  Uiso   1.00
C399   C     0.50004   0.49997   0.16489   0.00000  Uiso   1.00
C400   C     0.43623   0.41318   0.38096   0.00000  Uiso   1.00
C401   C     0.42615   0.37256   0.34992   0.00000  Uiso   1.00
C402   C     0.37983   0.36489   0.34596   0.00000  Uiso   1.00
C403   C     0.56134   0.59139   0.38485   0.00000  Uiso   1.00
C404   C     0.56831   0.64450   0.38509   0.00000  Uiso   1.00
C405   C     0.61284   0.65682   0.37449   0.00000  Uiso   1.00
C406   C     0.56377   0.41316   0.11902   0.00000  Uiso   1.00
C407   C     0.57386   0.37260   0.15012   0.00000  Uiso   1.00
C408   C     0.62018   0.36491   0.15404   0.00000  Uiso   1.00
C409   C     0.49996   0.49997   0.33511   0.00000  Uiso   1.00
C410   C     0.46913   0.35816   0.22974   0.00000  Uiso   1.00
C411   C     0.53102   0.64185   0.26996   0.00000  Uiso   1.00
C412   C     0.53087   0.35816   0.27026   0.00000  Uiso   1.00
C413   C     0.46898   0.64185   0.23004   0.00000  Uiso   1.00
C414   C     0.35462   0.45729   0.24990   0.00000  Uiso   1.00
Cu415  Cu    0.50000   0.54689   0.25000   0.00000  Uiso   1.00
Cu416  Cu    0.50000   0.45311   0.25000   0.00000  Uiso   1.00
H417   H     0.44445   0.37684   0.21340   0.00000  Uiso   1.00
H418   H     0.62937   0.57607   0.25011   0.00000  Uiso   1.00
H419   H     0.62936   0.42392   0.25016   0.00000  Uiso   1.00
H420   H     0.37063   0.57607   0.24992   0.00000  Uiso   1.00
H421   H     0.42621   0.57601   0.14594   0.00000  Uiso   1.00
H422   H     0.42123   0.57613   0.08682   0.00000  Uiso   1.00
H423   H     0.45225   0.66155   0.13936   0.00000  Uiso   1.00
H424   H     0.43954   0.65869   0.08200   0.00000  Uiso   1.00
H425   H     0.36602   0.64061   0.10104   0.00000  Uiso   1.00
H426   H     0.38314   0.36219   0.12453   0.00000  Uiso   1.00
H427   H     0.37907   0.64416   0.15889   0.00000  Uiso   1.00
H428   H     0.55592   0.62315   0.28582   0.00000  Uiso   1.00
H429   H     0.42220   0.44586   0.36721   0.00000  Uiso   1.00
H430   H     0.42270   0.40574   0.41377   0.00000  Uiso   1.00
H431   H     0.43872   0.38040   0.31689   0.00000  Uiso   1.00
H432   H     0.44083   0.33981   0.36226   0.00000  Uiso   1.00
H433   H     0.36686   0.35569   0.37851   0.00000  Uiso   1.00
H434   H     0.37354   0.33564   0.32275   0.00000  Uiso   1.00
H435   H     0.36449   0.39713   0.33344   0.00000  Uiso   1.00
H436   H     0.57379   0.57601   0.35406   0.00000  Uiso   1.00
H437   H     0.57876   0.57614   0.41319   0.00000  Uiso   1.00
H438   H     0.54773   0.66156   0.36064   0.00000  Uiso   1.00
H439   H     0.55555   0.37684   0.28660   0.00000  Uiso   1.00
H440   H     0.56044   0.65870   0.41800   0.00000  Uiso   1.00
H441   H     0.63397   0.64063   0.39897   0.00000  Uiso   1.00
H442   H     0.61684   0.36221   0.37547   0.00000  Uiso   1.00
H443   H     0.62092   0.64417   0.34111   0.00000  Uiso   1.00
H444   H     0.57783   0.44586   0.13270   0.00000  Uiso   1.00
H445   H     0.57728   0.40565   0.08621   0.00000  Uiso   1.00
H446   H     0.56132   0.38051   0.18314   0.00000  Uiso   1.00
H447   H     0.55915   0.33983   0.13784   0.00000  Uiso   1.00
H448   H     0.63311   0.35563   0.12150   0.00000  Uiso   1.00
H449   H     0.62647   0.33569   0.17729   0.00000  Uiso   1.00
H450   H     0.44408   0.62315   0.21418   0.00000  Uiso   1.00
H451   H     0.63554   0.39715   0.16650   0.00000  Uiso   1.00
H452   H     0.47966   0.57104   0.02971   0.00000  Uiso   1.00
H453   H     0.47987   0.42671   0.46925   0.00000  Uiso   1.00
H454   H     0.52033   0.57104   0.47030   0.00000  Uiso   1.00
H455   H     0.52013   0.42672   0.03075   0.00000  Uiso   1.00
H456   H     0.37064   0.42392   0.24980   0.00000  Uiso   1.00
N457   N     0.50000   0.61736   0.25000   0.00000  Uiso   1.00
N458   N     0.50000   0.38264   0.25000   0.00000  Uiso   1.00
O459   O     0.43988   0.53958   0.25000   0.00000  Uiso   1.00
O460   O     0.47941   0.41731   0.38459   0.00000  Uiso   1.00
O461   O     0.51853   0.58268   0.38629   0.00000  Uiso   1.00
O462   O     0.52059   0.41731   0.11541   0.00000  Uiso   1.00
O463   O     0.56012   0.46042   0.25001   0.00000  Uiso   1.00
O464   O     0.56012   0.53958   0.25001   0.00000  Uiso   1.00
O465   O     0.43988   0.46042   0.25000   0.00000  Uiso   1.00
O466   O     0.50000   0.53959   0.18573   0.00000  Uiso   1.00
O467   O     0.50000   0.46041   0.31427   0.00000  Uiso   1.00
O468   O     0.50000   0.53959   0.31427   0.00000  Uiso   1.00
O469   O     0.50000   0.46041   0.18573   0.00000  Uiso   1.00
O470   O     0.48146   0.58268   0.11372   0.00000  Uiso   1.00
C471   C     0.75399   0.50000   0.24995   0.00000  Uiso   1.00
C472   C     0.97872   0.54269   0.25006   0.00000  Uiso   1.00
C473   C     0.97872   0.45729   0.25007   0.00000  Uiso   1.00
C474   C     0.68795   0.54269   0.24996   0.00000  Uiso   1.00
C475   C     0.82214   0.53951   0.04708   0.00000  Uiso   1.00
C476   C     0.82239   0.45843   0.45231   0.00000  Uiso   1.00
C477   C     0.84453   0.53951   0.45292   0.00000  Uiso   1.00
C478   C     0.84428   0.45843   0.04769   0.00000  Uiso   1.00
C479   C     0.82225   0.54045   0.09280   0.00000  Uiso   1.00
C480   C     0.82211   0.45850   0.40654   0.00000  Uiso   1.00
C481   C     0.84441   0.54045   0.40720   0.00000  Uiso   1.00
C482   C     0.91267   0.50000   0.25005   0.00000  Uiso   1.00
C483   C     0.84456   0.45850   0.09346   0.00000  Uiso   1.00
C484   C     0.83342   0.49971   0.11655   0.00000  Uiso   1.00
C485   C     0.83325   0.49972   0.38345   0.00000  Uiso   1.00
C486   C     0.83317   0.49880   0.02419   0.00000  Uiso   1.00
C487   C     0.83349   0.49880   0.47581   0.00000  Uiso   1.00
C488   C     0.95727   0.49999   0.25008   0.00000  Uiso   1.00
C489   C     0.70939   0.49999   0.24992   0.00000  Uiso   1.00
C490   C     0.77198   0.59138   0.11516   0.00000  Uiso   1.00
C491   C     0.76501   0.64449   0.11492   0.00000  Uiso   1.00
C492   C     0.72048   0.65680   0.12551   0.00000  Uiso   1.00
C493   C     0.83338   0.49997   0.16489   0.00000  Uiso   1.00
C494   C     0.76956   0.41318   0.38096   0.00000  Uiso   1.00
C495   C     0.75948   0.37256   0.34992   0.00000  Uiso   1.00
C496   C     0.71316   0.36489   0.34596   0.00000  Uiso   1.00
C497   C     0.89467   0.59139   0.38485   0.00000  Uiso   1.00
C498   C     0.90164   0.64450   0.38509   0.00000  Uiso   1.00
C499   C     0.94617   0.65682   0.37449   0.00000  Uiso   1.00
C500   C     0.89711   0.41316   0.11902   0.00000  Uiso   1.00
C501   C     0.90719   0.37260   0.15012   0.00000  Uiso   1.00
C502   C     0.95351   0.36491   0.15404   0.00000  Uiso   1.00
C503   C     0.83329   0.49997   0.33511   0.00000  Uiso   1.00
C504   C     0.80246   0.35816   0.22974   0.00000  Uiso   1.00
C505   C     0.86435   0.64185   0.26996   0.00000  Uiso   1.00
C506   C     0.86420   0.35816   0.27026   0.00000  Uiso   1.00
C507   C     0.80232   0.64185   0.23004   0.00000  Uiso   1.00
C508   C     0.68795   0.45729   0.24990   0.00000  Uiso   1.00
Cu509  Cu    0.83333   0.54689   0.25000   0.00000  Uiso   1.00
Cu510  Cu    0.83333   0.45311   0.25000   0.00000  Uiso   1.00
H511   H     0.77778   0.37684   0.21340   0.00000  Uiso   1.00
H512   H     0.96270   0.57607   0.25011   0.00000  Uiso   1.00
H513   H     0.96269   0.42392   0.25016   0.00000  Uiso   1.00
H514   H     0.70397   0.57607   0.24992   0.00000  Uiso   1.00
H515   H     0.75954   0.57601   0.14594   0.00000  Uiso   1.00
H516   H     0.75457   0.57613   0.08682   0.00000  Uiso   1.00
H517   H     0.78559   0.66155   0.13936   0.00000  Uiso   1.00
H518   H     0.77287   0.65869   0.08200   0.00000  Uiso   1.00
H519   H     0.69935   0.64061   0.10104   0.00000  Uiso   1.00
H520   H     0.71647   0.36219   0.12453   0.00000  Uiso   1.00
H521   H     0.71240   0.64416   0.15889   0.00000  Uiso   1.00
H522   H     0.88925   0.62315   0.28582   0.00000  Uiso   1.00
H523   H     0.75553   0.44586   0.36721   0.00000  Uiso   1.00
H524   H     0.75603   0.40574   0.41377   0.00000  Uiso   1.00
H525   H     0.77205   0.38040   0.31689   0.00000  Uiso   1.00
H526   H     0.77416   0.33981   0.36226   0.00000  Uiso   1.00
H527   H     0.70019   0.35569   0.37851   0.00000  Uiso   1.00
H528   H     0.70687   0.33564   0.32275   0.00000  Uiso   1.00
H529   H     0.69783   0.39713   0.33344   0.00000  Uiso   1.00
H530   H     0.90712   0.57601   0.35406   0.00000  Uiso   1.00
H531   H     0.91209   0.57614   0.41319   0.00000  Uiso   1.00
H532   H     0.88107   0.66156   0.36064   0.00000  Uiso   1.00
H533   H     0.88888   0.37684   0.28660   0.00000  Uiso   1.00
H534   H     0.89378   0.65870   0.41800   0.00000  Uiso   1.00
H535   H     0.96730   0.64063   0.39897   0.00000  Uiso   1.00
H536   H     0.95018   0.36221   0.37547   0.00000  Uiso   1.00
H537   H     0.95425   0.64417   0.34111   0.00000  Uiso   1.00
H538   H     0.91116   0.44586   0.13270   0.00000  Uiso   1.00
H539   H     0.91061   0.40565   0.08621   0.00000  Uiso   1.00
H540   H     0.89465   0.38051   0.18314   0.00000  Uiso   1.00
H541   H     0.89248   0.33983   0.13784   0.00000  Uiso   1.00
H542   H     0.96645   0.35563   0.12150   0.00000  Uiso   1.00
H543   H     0.95980   0.33569   0.17729   0.00000  Uiso   1.00
H544   H     0.77742   0.62315   0.21418   0.00000  Uiso   1.00
H545   H     0.96887   0.39715   0.16650   0.00000  Uiso   1.00
H546   H     0.81300   0.57104   0.02971   0.00000  Uiso   1.00
H547   H     0.81321   0.42671   0.46925   0.00000  Uiso   1.00
H548   H     0.85367   0.57104   0.47030   0.00000  Uiso   1.00
H549   H     0.85346   0.42672   0.03075   0.00000  Uiso   1.00
H550   H     0.70397   0.42392   0.24980   0.00000  Uiso   1.00
N551   N     0.83333   0.61736   0.25000   0.00000  Uiso   1.00
N552   N     0.83333   0.38264   0.25000   0.00000  Uiso   1.00
O553   O     0.77321   0.53958   0.25000   0.00000  Uiso   1.00
O554   O     0.81274   0.41731   0.38459   0.00000  Uiso   1.00
O555   O     0.85186   0.58268   0.38629   0.00000  Uiso   1.00
O556   O     0.85393   0.41731   0.11541   0.00000  Uiso   1.00
O557   O     0.89345   0.46042   0.25001   0.00000  Uiso   1.00
O558   O     0.89345   0.53958   0.25001   0.00000  Uiso   1.00
O559   O     0.77321   0.46042   0.25000   0.00000  Uiso   1.00
O560   O     0.83333   0.53959   0.18573   0.00000  Uiso   1.00
O561   O     0.83334   0.46041   0.31427   0.00000  Uiso   1.00
O562   O     0.83334   0.53959   0.31427   0.00000  Uiso   1.00
O563   O     0.83333   0.46041   0.18573   0.00000  Uiso   1.00
O564   O     0.81480   0.58268   0.11372   0.00000  Uiso   1.00
C565   C     0.08733   0.83333   0.24995   0.00000  Uiso   1.00
C566   C     0.31205   0.87602   0.25006   0.00000  Uiso   1.00
C567   C     0.31205   0.79062   0.25007   0.00000  Uiso   1.00
C568   C     0.02128   0.87602   0.24996   0.00000  Uiso   1.00
C569   C     0.15547   0.87284   0.04708   0.00000  Uiso   1.00
C570   C     0.15573   0.79176   0.45231   0.00000  Uiso   1.00
C571   C     0.17786   0.87284   0.45292   0.00000  Uiso   1.00
C572   C     0.17761   0.79176   0.04769   0.00000  Uiso   1.00
C573   C     0.15559   0.87378   0.09280   0.00000  Uiso   1.00
C574   C     0.15545   0.79184   0.40654   0.00000  Uiso   1.00
C575   C     0.17774   0.87378   0.40720   0.00000  Uiso   1.00
C576   C     0.24601   0.83333   0.25005   0.00000  Uiso   1.00
C577   C     0.17789   0.79184   0.09346   0.00000  Uiso   1.00
C578   C     0.16675   0.83305   0.11655   0.00000  Uiso   1.00
C579   C     0.16658   0.83305   0.38345   0.00000  Uiso   1.00
C580   C     0.16651   0.83213   0.02419   0.00000  Uiso   1.00
C581   C     0.16683   0.83213   0.47581   0.00000  Uiso   1.00
C582   C     0.29061   0.83332   0.25008   0.00000  Uiso   1.00
C583   C     0.04273   0.83332   0.24992   0.00000  Uiso   1.00
C584   C     0.10532   0.92471   0.11516   0.00000  Uiso   1.00
C585   C     0.09834   0.97783   0.11492   0.00000  Uiso   1.00
C586   C     0.05381   0.99014   0.12551   0.00000  Uiso   1.00
C587   C     0.16671   0.83331   0.16489   0.00000  Uiso   1.00
C588   C     0.10290   0.74651   0.38096   0.00000  Uiso   1.00
C589   C     0.09281   0.70589   0.34992   0.00000  Uiso   1.00
C590   C     0.04649   0.69823   0.34596   0.00000  Uiso   1.00
C591   C     0.22801   0.92472   0.38485   0.00000  Uiso   1.00
C592   C     0.23498   0.97784   0.38509   0.00000  Uiso   1.00
C593   C     0.27951   0.99015   0.37449   0.00000  Uiso   1.00
C594   C     0.23044   0.74650   0.11902   0.00000  Uiso   1.00
C595   C     0.24053   0.70593   0.15012   0.00000  Uiso   1.00
C596   C     0.28685   0.69824   0.15404   0.00000  Uiso   1.00
C597   C     0.16662   0.83331   0.33511   0.00000  Uiso   1.00
C598   C     0.13580   0.69149   0.22974   0.00000  Uiso   1.00
C599   C     0.19768   0.97518   0.26996   0.00000  Uiso   1.00
C600   C     0.19754   0.69149   0.27026   0.00000  Uiso   1.00
C601   C     0.13565   0.97518   0.23004   0.00000  Uiso   1.00
C602   C     0.02128   0.79062   0.24990   0.00000  Uiso   1.00
Cu603  Cu    0.16667   0.88022   0.25000   0.00000  Uiso   1.00
Cu604  Cu    0.16667   0.78645   0.25000   0.00000  Uiso   1.00
H605   H     0.11112   0.71017   0.21340   0.00000  Uiso   1.00
H606   H     0.29603   0.90940   0.25011   0.00000  Uiso   1.00
H607   H     0.29603   0.75725   0.25016   0.00000  Uiso   1.00
H608   H     0.03730   0.90940   0.24992   0.00000  Uiso   1.00
H609   H     0.09287   0.90934   0.14594   0.00000  Uiso   1.00
H610   H     0.08790   0.90946   0.08682   0.00000  Uiso   1.00
H611   H     0.11892   0.99489   0.13936   0.00000  Uiso   1.00
H612   H     0.10620   0.99202   0.08200   0.00000  Uiso   1.00
H613   H     0.03269   0.97394   0.10104   0.00000  Uiso   1.00
H614   H     0.04980   0.69552   0.12453   0.00000  Uiso   1.00
H615   H     0.04573   0.97749   0.15889   0.00000  Uiso   1.00
H616   H     0.22258   0.95648   0.28582   0.00000  Uiso   1.00
H617   H     0.08886   0.77919   0.36721   0.00000  Uiso   1.00
H618   H     0.08936   0.73907   0.41377   0.00000  Uiso   1.00
H619   H     0.10539   0.71373   0.31689   0.00000  Uiso   1.00
H620   H     0.10750   0.67314   0.36226   0.00000  Uiso   1.00
H621   H     0.03353   0.68902   0.37851   0.00000  Uiso   1.00
H622   H     0.04021   0.66897   0.32275   0.00000  Uiso   1.00
H623   H     0.03116   0.73046   0.33344   0.00000  Uiso   1.00
H624   H     0.24046   0.90935   0.35406   0.00000  Uiso   1.00
H625   H     0.24543   0.90947   0.41319   0.00000  Uiso   1.00
H626   H     0.21440   0.99489   0.36064   0.00000  Uiso   1.00
H627   H     0.22222   0.71017   0.28660   0.00000  Uiso   1.00
H628   H     0.22711   0.99203   0.41800   0.00000  Uiso   1.00
H629   H     0.30063   0.97396   0.39897   0.00000  Uiso   1.00
H630   H     0.28351   0.69554   0.37547   0.00000  Uiso   1.00
H631   H     0.28759   0.97750   0.34111   0.00000  Uiso   1.00
H632   H     0.24450   0.77920   0.13270   0.00000  Uiso   1.00
H633   H     0.24395   0.73899   0.08621   0.00000  Uiso   1.00
H634   H     0.22798   0.71385   0.18314   0.00000  Uiso   1.00
H635   H     0.22582   0.67317   0.13784   0.00000  Uiso   1.00
H636   H     0.29978   0.68897   0.12150   0.00000  Uiso   1.00
H637   H     0.29314   0.66902   0.17729   0.00000  Uiso   1.00
H638   H     0.11075   0.95648   0.21418   0.00000  Uiso   1.00
H639   H     0.30221   0.73048   0.16650   0.00000  Uiso   1.00
H640   H     0.14633   0.90437   0.02971   0.00000  Uiso   1.00
H641   H     0.14654   0.76005   0.46925   0.00000  Uiso   1.00
H642   H     0.18700   0.90437   0.47030   0.00000  Uiso   1.00
H643   H     0.18680   0.76005   0.03075   0.00000  Uiso   1.00
H644   H     0.03730   0.75725   0.24980   0.00000  Uiso   1.00
N645   N     0.16667   0.95069   0.25000   0.00000  Uiso   1.00
N646   N     0.16667   0.71598   0.25000   0.00000  Uiso   1.00
O647   O     0.10655   0.87291   0.25000   0.00000  Uiso   1.00
O648   O     0.14608   0.75064   0.38459   0.00000  Uiso   1.00
O649   O     0.18520   0.91602   0.38629   0.00000  Uiso   1.00
O650   O     0.18726   0.75065   0.11541   0.00000  Uiso   1.00
O651   O     0.22679   0.79375   0.25001   0.00000  Uiso   1.00
O652   O     0.22679   0.87291   0.25001   0.00000  Uiso   1.00
O653   O     0.10655   0.79375   0.25000   0.00000  Uiso   1.00
O654   O     0.16666   0.87293   0.18573   0.00000  Uiso   1.00
O655   O     0.16667   0.79374   0.31427   0.00000  Uiso   1.00
O656   O     0.16667   0.87293   0.31427   0.00000  Uiso   1.00
O657   O     0.16666   0.79374   0.18573   0.00000  Uiso   1.00
O658   O     0.14813   0.91601   0.11372   0.00000  Uiso   1.00
C659   C     0.42066   0.83333   0.24995   0.00000  Uiso   1.00
C660   C     0.64538   0.87602   0.25006   0.00000  Uiso   1.00
C661   C     0.64538   0.79062   0.25007   0.00000  Uiso   1.00
C662   C     0.35462   0.87602   0.24996   0.00000  Uiso   1.00
C663   C     0.48880   0.87284   0.04708   0.00000  Uiso   1.00
C664   C     0.48906   0.79176   0.45231   0.00000  Uiso   1.00
C665   C     0.51119   0.87284   0.45292   0.00000  Uiso   1.00
C666   C     0.51094   0.79176   0.04769   0.00000  Uiso   1.00
C667   C     0.48892   0.87378   0.09280   0.00000  Uiso   1.00
C668   C     0.48878   0.79184   0.40654   0.00000  Uiso   1.00
C669   C     0.51108   0.87378   0.40720   0.00000  Uiso   1.00
C670   C     0.57934   0.83333   0.25005   0.00000  Uiso   1.00
C671   C     0.51122   0.79184   0.09346   0.00000  Uiso   1.00
C672   C     0.50008   0.83305   0.11655   0.00000  Uiso   1.00
C673   C     0.49991   0.83305   0.38345   0.00000  Uiso   1.00
C674   C     0.49984   0.83213   0.02419   0.00000  Uiso   1.00
C675   C     0.50016   0.83213   0.47581   0.00000  Uiso   1.00
C676   C     0.62394   0.83332   0.25008   0.00000  Uiso   1.00
C677   C     0.37606   0.83332   0.24992   0.00000  Uiso   1.00
C678   C     0.43865   0.92471   0.11516   0.00000  Uiso   1.00
C679   C     0.43167   0.97783   0.11492   0.00000  Uiso   1.00
C680   C     0.38715   0.99014   0.12551   0.00000  Uiso   1.00
C681   C     0.50004   0.83331   0.16489   0.00000  Uiso   1.00
C682   C     0.43623   0.74651   0.38096   0.00000  Uiso   1.00
C683   C     0.42615   0.70589   0.34992   0.00000  Uiso   1.00
C684   C     0.37983   0.69823   0.34596   0.00000  Uiso   1.00
C685   C     0.56134   0.92472   0.38485   0.00000  Uiso   1.00
C686   C     0.56831   0.97784   0.38509   0.00000  Uiso   1.00
C687   C     0.61284   0.99015   0.37449   0.00000  Uiso   1.00
C688   C     0.56377   0.74650   0.11902   0.00000  Uiso   1.00
C689   C     0.57386   0.70593   0.15012   0.00000  Uiso   1.00
C690   C     0.62018   0.69824   0.15404   0.00000  Uiso   1.00
C691   C     0.49996   0.83331   0.33511   0.00000  Uiso   1.00
C692   C     0.46913   0.69149   0.22974   0.00000  Uiso   1.00
C693   C     0.53102   0.97518   0.26996   0.00000  Uiso   1.00
C694   C     0.53087   0.69149   0.27026   0.00000  Uiso   1.00
C695   C     0.46898   0.97518   0.23004   0.00000  Uiso   1.00
C696   C     0.35462   0.79062   0.24990   0.00000  Uiso   1.00
Cu697  Cu    0.50000   0.88022   0.25000   0.00000  Uiso   1.00
Cu698  Cu    0.50000   0.78645   0.25000   0.00000  Uiso   1.00
H699   H     0.44445   0.71017   0.21340   0.00000  Uiso   1.00
H700   H     0.62937   0.90940   0.25011   0.00000  Uiso   1.00
H701   H     0.62936   0.75725   0.25016   0.00000  Uiso   1.00
H702   H     0.37063   0.90940   0.24992   0.00000  Uiso   1.00
H703   H     0.42621   0.90934   0.14594   0.00000  Uiso   1.00
H704   H     0.42123   0.90946   0.08682   0.00000  Uiso   1.00
H705   H     0.45225   0.99489   0.13936   0.00000  Uiso   1.00
H706   H     0.43954   0.99202   0.08200   0.00000  Uiso   1.00
H707   H     0.36602   0.97394   0.10104   0.00000  Uiso   1.00
H708   H     0.38314   0.69552   0.12453   0.00000  Uiso   1.00
H709   H     0.37907   0.97749   0.15889   0.00000  Uiso   1.00
H710   H     0.55592   0.95648   0.28582   0.00000  Uiso   1.00
H711   H     0.42220   0.77919   0.36721   0.00000  Uiso   1.00
H712   H     0.42270   0.73907   0.41377   0.00000  Uiso   1.00
H713   H     0.43872   0.71373   0.31689   0.00000  Uiso   1.00
H714   H     0.44083   0.67314   0.36226   0.00000  Uiso   1.00
H715   H     0.36686   0.68902   0.37851   0.00000  Uiso   1.00
H716   H     0.37354   0.66897   0.32275   0.00000  Uiso   1.00
H717   H     0.36449   0.73046   0.33344   0.00000  Uiso   1.00
H718   H     0.57379   0.90935   0.35406   0.00000  Uiso   1.00
H719   H     0.57876   0.90947   0.41319   0.00000  Uiso   1.00
H720   H     0.54773   0.99489   0.36064   0.00000  Uiso   1.00
H721   H     0.55555   0.71017   0.28660   0.00000  Uiso   1.00
H722   H     0.56044   0.99203   0.41800   0.00000  Uiso   1.00
H723   H     0.63397   0.97396   0.39897   0.00000  Uiso   1.00
H724   H     0.61684   0.69554   0.37547   0.00000  Uiso   1.00
H725   H     0.62092   0.97750   0.34111   0.00000  Uiso   1.00
H726   H     0.57783   0.77920   0.13270   0.00000  Uiso   1.00
H727   H     0.57728   0.73899   0.08621   0.00000  Uiso   1.00
H728   H     0.56132   0.71385   0.18314   0.00000  Uiso   1.00
H729   H     0.55915   0.67317   0.13784   0.00000  Uiso   1.00
H730   H     0.63311   0.68897   0.12150   0.00000  Uiso   1.00
H731   H     0.62647   0.66902   0.17729   0.00000  Uiso   1.00
H732   H     0.44408   0.95648   0.21418   0.00000  Uiso   1.00
H733   H     0.63554   0.73048   0.16650   0.00000  Uiso   1.00
H734   H     0.47966   0.90437   0.02971   0.00000  Uiso   1.00
H735   H     0.47987   0.76005   0.46925   0.00000  Uiso   1.00
H736   H     0.52033   0.90437   0.47030   0.00000  Uiso   1.00
H737   H     0.52013   0.76005   0.03075   0.00000  Uiso   1.00
H738   H     0.37064   0.75725   0.24980   0.00000  Uiso   1.00
N739   N     0.50000   0.95069   0.25000   0.00000  Uiso   1.00
N740   N     0.50000   0.71598   0.25000   0.00000  Uiso   1.00
O741   O     0.43988   0.87291   0.25000   0.00000  Uiso   1.00
O742   O     0.47941   0.75064   0.38459   0.00000  Uiso   1.00
O743   O     0.51853   0.91602   0.38629   0.00000  Uiso   1.00
O744   O     0.52059   0.75065   0.11541   0.00000  Uiso   1.00
O745   O     0.56012   0.79375   0.25001   0.00000  Uiso   1.00
O746   O     0.56012   0.87291   0.25001   0.00000  Uiso   1.00
O747   O     0.43988   0.79375   0.25000   0.00000  Uiso   1.00
O748   O     0.50000   0.87293   0.18573   0.00000  Uiso   1.00
O749   O     0.50000   0.79374   0.31427   0.00000  Uiso   1.00
O750   O     0.50000   0.87293   0.31427   0.00000  Uiso   1.00
O751   O     0.50000   0.79374   0.18573   0.00000  Uiso   1.00
O752   O     0.48146   0.91601   0.11372   0.00000  Uiso   1.00
C753   C     0.75399   0.83333   0.24995   0.00000  Uiso   1.00
C754   C     0.97872   0.87602   0.25006   0.00000  Uiso   1.00
C755   C     0.97872   0.79062   0.25007   0.00000  Uiso   1.00
C756   C     0.68795   0.87602   0.24996   0.00000  Uiso   1.00
C757   C     0.82214   0.87284   0.04708   0.00000  Uiso   1.00
C758   C     0.82239   0.79176   0.45231   0.00000  Uiso   1.00
C759   C     0.84453   0.87284   0.45292   0.00000  Uiso   1.00
C760   C     0.84428   0.79176   0.04769   0.00000  Uiso   1.00
C761   C     0.82225   0.87378   0.09280   0.00000  Uiso   1.00
C762   C     0.82211   0.79184   0.40654   0.00000  Uiso   1.00
C763   C     0.84441   0.87378   0.40720   0.00000  Uiso   1.00
C764   C     0.91267   0.83333   0.25005   0.00000  Uiso   1.00
C765   C     0.84456   0.79184   0.09346   0.00000  Uiso   1.00
C766   C     0.83342   0.83305   0.11655   0.00000  Uiso   1.00
C767   C     0.83325   0.83305   0.38345   0.00000  Uiso   1.00
C768   C     0.83317   0.83213   0.02419   0.00000  Uiso   1.00
C769   C     0.83349   0.83213   0.47581   0.00000  Uiso   1.00
C770   C     0.95727   0.83332   0.25008   0.00000  Uiso   1.00
C771   C     0.70939   0.83332   0.24992   0.00000  Uiso   1.00
C772   C     0.77198   0.92471   0.11516   0.00000  Uiso   1.00
C773   C     0.76501   0.97783   0.11492   0.00000  Uiso   1.00
C774   C     0.72048   0.99014   0.12551   0.00000  Uiso   1.00
C775   C     0.83338   0.83331   0.16489   0.00000  Uiso   1.00
C776   C     0.76956   0.74651   0.38096   0.00000  Uiso   1.00
C777   C     0.75948   0.70589   0.34992   0.00000  Uiso   1.00
C778   C     0.71316   0.69823   0.34596   0.00000  Uiso   1.00
C779   C     0.89467   0.92472   0.38485   0.00000  Uiso   1.00
C780   C     0.90164   0.97784   0.38509   0.00000  Uiso   1.00
C781   C     0.94617   0.99015   0.37449   0.00000  Uiso   1.00
C782   C     0.89711   0.74650   0.11902   0.00000  Uiso   1.00
C783   C     0.90719   0.70593   0.15012   0.00000  Uiso   1.00
C784   C     0.95351   0.69824   0.15404   0.00000  Uiso   1.00
C785   C     0.83329   0.83331   0.33511   0.00000  Uiso   1.00
C786   C     0.80246   0.69149   0.22974   0.00000  Uiso   1.00
C787   C     0.86435   0.97518   0.26996   0.00000  Uiso   1.00
C788   C     0.86420   0.69149   0.27026   0.00000  Uiso   1.00
C789   C     0.80232   0.97518   0.23004   0.00000  Uiso   1.00
C790   C     0.68795   0.79062   0.24990   0.00000  Uiso   1.00
Cu791  Cu    0.83333   0.88022   0.25000   0.00000  Uiso   1.00
Cu792  Cu    0.83333   0.78645   0.25000   0.00000  Uiso   1.00
H793   H     0.77778   0.71017   0.21340   0.00000  Uiso   1.00
H794   H     0.96270   0.90940   0.25011   0.00000  Uiso   1.00
H795   H     0.96269   0.75725   0.25016   0.00000  Uiso   1.00
H796   H     0.70397   0.90940   0.24992   0.00000  Uiso   1.00
H797   H     0.75954   0.90934   0.14594   0.00000  Uiso   1.00
H798   H     0.75457   0.90946   0.08682   0.00000  Uiso   1.00
H799   H     0.78559   0.99489   0.13936   0.00000  Uiso   1.00
H800   H     0.77287   0.99202   0.08200   0.00000  Uiso   1.00
H801   H     0.69935   0.97394   0.10104   0.00000  Uiso   1.00
H802   H     0.71647   0.69552   0.12453   0.00000  Uiso   1.00
H803   H     0.71240   0.97749   0.15889   0.00000  Uiso   1.00
H804   H     0.88925   0.95648   0.28582   0.00000  Uiso   1.00
H805   H     0.75553   0.77919   0.36721   0.00000  Uiso   1.00
H806   H     0.75603   0.73907   0.41377   0.00000  Uiso   1.00
H807   H     0.77205   0.71373   0.31689   0.00000  Uiso   1.00
H808   H     0.77416   0.67314   0.36226   0.00000  Uiso   1.00
H809   H     0.70019   0.68902   0.37851   0.00000  Uiso   1.00
H810   H     0.70687   0.66897   0.32275   0.00000  Uiso   1.00
H811   H     0.69783   0.73046   0.33344   0.00000  Uiso   1.00
H812   H     0.90712   0.90935   0.35406   0.00000  Uiso   1.00
H813   H     0.91209   0.90947   0.41319   0.00000  Uiso   1.00
H814   H     0.88107   0.99489   0.36064   0.00000  Uiso   1.00
H815   H     0.88888   0.71017   0.28660   0.00000  Uiso   1.00
H816   H     0.89378   0.99203   0.41800   0.00000  Uiso   1.00
H817   H     0.96730   0.97396   0.39897   0.00000  Uiso   1.00
H818   H     0.95018   0.69554   0.37547   0.00000  Uiso   1.00
H819   H     0.95425   0.97750   0.34111   0.00000  Uiso   1.00
H820   H     0.91116   0.77920   0.13270   0.00000  Uiso   1.00
H821   H     0.91061   0.73899   0.08621   0.00000  Uiso   1.00
H822   H     0.89465   0.71385   0.18314   0.00000  Uiso   1.00
H823   H     0.89248   0.67317   0.13784   0.00000  Uiso   1.00
H824   H     0.96645   0.68897   0.12150   0.00000  Uiso   1.00
H825   H     0.95980   0.66902   0.17729   0.00000  Uiso   1.00
H826   H     0.77742   0.95648   0.21418   0.00000  Uiso   1.00
H827   H     0.96887   0.73048   0.16650   0.00000  Uiso   1.00
H828   H     0.81300   0.90437   0.02971   0.00000  Uiso   1.00
H829   H     0.81321   0.76005   0.46925   0.00000  Uiso   1.00
H830   H     0.85367   0.90437   0.47030   0.00000  Uiso   1.00
H831   H     0.85346   0.76005   0.03075   0.00000  Uiso   1.00
H832   H     0.70397   0.75725   0.24980   0.00000  Uiso   1.00
N833   N     0.83333   0.95069   0.25000   0.00000  Uiso   1.00
N834   N     0.83333   0.71598   0.25000   0.00000  Uiso   1.00
O835   O     0.77321   0.87291   0.25000   0.00000  Uiso   1.00
O836   O     0.81274   0.75064   0.38459   0.00000  Uiso   1.00
O837   O     0.85186   0.91602   0.38629   0.00000  Uiso   1.00
O838   O     0.85393   0.75065   0.11541   0.00000  Uiso   1.00
O839   O     0.89345   0.79375   0.25001   0.00000  Uiso   1.00
O840   O     0.89345   0.87291   0.25001   0.00000  Uiso   1.00
O841   O     0.77321   0.79375   0.25000   0.00000  Uiso   1.00
O842   O     0.83333   0.87293   0.18573   0.00000  Uiso   1.00
O843   O     0.83334   0.79374   0.31427   0.00000  Uiso   1.00
O844   O     0.83334   0.87293   0.31427   0.00000  Uiso   1.00
O845   O     0.83333   0.79374   0.18573   0.00000  Uiso   1.00
O846   O     0.81480   0.91601   0.11372   0.00000  Uiso   1.00
C847   C     0.08733   0.16666   0.74995   0.00000  Uiso   1.00
C848   C     0.31205   0.20936   0.75006   0.00000  Uiso   1.00
C849   C     0.31205   0.12396   0.75007   0.00000  Uiso   1.00
C850   C     0.02128   0.20936   0.74996   0.00000  Uiso   1.00
C851   C     0.15547   0.20618   0.54708   0.00000  Uiso   1.00
C852   C     0.15573   0.12510   0.95231   0.00000  Uiso   1.00
C853   C     0.17786   0.20618   0.95292   0.00000  Uiso   1.00
C854   C     0.17761   0.12510   0.54769   0.00000  Uiso   1.00
C855   C     0.15559   0.20712   0.59280   0.00000  Uiso   1.00
C856   C     0.15545   0.12517   0.90654   0.00000  Uiso   1.00
C857   C     0.17774   0.20712   0.90720   0.00000  Uiso   1.00
C858   C     0.24601   0.16666   0.75005   0.00000  Uiso   1.00
C859   C     0.17789   0.12517   0.59346   0.00000  Uiso   1.00
C860   C     0.16675   0.16638   0.61655   0.00000  Uiso   1.00
C861   C     0.16658   0.16638   0.88345   0.00000  Uiso   1.00
C862   C     0.16651   0.16547   0.52419   0.00000  Uiso   1.00
C863   C     0.16683   0.16547   0.97581   0.00000  Uiso   1.00
C864   C     0.29061   0.16666   0.75008   0.00000  Uiso   1.00
C865   C     0.04273   0.16666   0.74992   0.00000  Uiso   1.00
C866   C     0.10532   0.25804   0.61516   0.00000  Uiso   1.00
C867   C     0.09834   0.31116   0.61492   0.00000  Uiso   1.00
C868   C     0.05381   0.32347   0.62551   0.00000  Uiso   1.00
C869   C     0.16671   0.16664   0.66489   0.00000  Uiso   1.00
C870   C     0.10290   0.07984   0.88096   0.00000  Uiso   1.00
C871   C     0.09281   0.03922   0.84992   0.00000  Uiso   1.00
C872   C     0.04649   0.03156   0.84596   0.00000  Uiso   1.00
C873   C     0.22801   0.25805   0.88485   0.00000  Uiso   1.00
C874   C     0.23498   0.31117   0.88509   0.00000  Uiso   1.00
C875   C     0.27951   0.32348   0.87449   0.00000  Uiso   1.00
C876   C     0.23044   0.07983   0.61902   0.00000  Uiso   1.00
C877   C     0.24053   0.03926   0.65012   0.00000  Uiso   1.00
C878   C     0.28685   0.03157   0.65404   0.00000  Uiso   1.00
C879   C     0.16662   0.16664   0.83511   0.00000  Uiso   1.00
C880   C     0.13580   0.02482   0.72974   0.00000  Uiso   1.00
C881   C     0.19768   0.30851   0.76996   0.00000  Uiso   1.00
C882   C     0.19754   0.02482   0.77026   0.00000  Uiso   1.00
C883   C     0.13565   0.30851   0.73004   0.00000  Uiso   1.00
C884   C     0.02128   0.12396   0.74990   0.00000  Uiso   1.00
Cu885  Cu    0.16667   0.21355   0.75000   0.00000  Uiso   1.00
Cu886  Cu    0.16667   0.11978   0.75000   0.00000  Uiso   1.00
H887   H     0.11112   0.04351   0.71340   0.00000  Uiso   1.00
H888   H     0.29603   0.24273   0.75011   0.00000  Uiso   1.00
H889   H     0.29603   0.09058   0.75016   0.00000  Uiso   1.00
H890   H     0.03730   0.24273   0.74992   0.00000  Uiso   1.00
H891   H     0.09287   0.24267   0.64594   0.00000  Uiso   1.00
H892   H     0.08790   0.24279   0.58682   0.00000  Uiso   1.00
H893   H     0.11892   0.32822   0.63936   0.00000  Uiso   1.00
H894   H     0.10620   0.32535   0.58200   0.00000  Uiso   1.00
H895   H     0.03269   0.30728   0.60104   0.00000  Uiso   1.00
H896   H     0.04980   0.02886   0.62453   0.00000  Uiso   1.00
H897   H     0.04573   0.31082   0.65889   0.00000  Uiso   1.00
H898   H     0.22258   0.28981   0.78582   0.00000  Uiso   1.00
H899   H     0.08886   0.11253   0.86721   0.00000  Uiso   1.00
H900   H     0.08936   0.07240   0.91377   0.00000  Uiso   1.00
H901   H     0.10539   0.04707   0.81689   0.00000  Uiso   1.00
H902   H     0.10750   0.00647   0.86226   0.00000  Uiso   1.00
H903   H     0.03353   0.02236   0.87851   0.00000  Uiso   1.00
H904   H     0.04021   0.00230   0.82275   0.00000  Uiso   1.00
H905   H     0.03116   0.06379   0.83344   0.00000  Uiso   1.00
H906   H     0.24046   0.24268   0.85406   0.00000  Uiso   1.00
H907   H     0.24543   0.24281   0.91319   0.00000  Uiso   1.00
H908   H     0.21440   0.32822   0.86064   0.00000  Uiso   1.00
H909   H     0.22222   0.04351   0.78660   0.00000  Uiso   1.00
H910   H     0.22711   0.32537   0.91800   0.00000  Uiso   1.00
H911   H     0.30063   0.30730   0.89897   0.00000  Uiso   1.00
H912   H     0.28351   0.02887   0.87547   0.00000  Uiso   1.00
H913   H     0.28759   0.31084   0.84111   0.00000  Uiso   1.00
H914   H     0.24450   0.11253   0.63270   0.00000  Uiso   1.00
H915   H     0.24395   0.07232   0.58621   0.00000  Uiso   1.00
H916   H     0.22798   0.04718   0.68314   0.00000  Uiso   1.00
H917   H     0.22582   0.00650   0.63784   0.00000  Uiso   1.00
H918   H     0.29978   0.02230   0.62150   0.00000  Uiso   1.00
H919   H     0.29314   0.00235   0.67729   0.00000  Uiso   1.00
H920   H     0.11075   0.28981   0.71418   0.00000  Uiso   1.00
H921   H     0.30221   0.06381   0.66650   0.00000  Uiso   1.00
H922   H     0.14633   0.23770   0.52971   0.00000  Uiso   1.00
H923   H     0.14654   0.09338   0.96925   0.00000  Uiso   1.00
H924   H     0.18700   0.23770   0.97030   0.00000  Uiso   1.00
H925   H     0.18680   0.09338   0.53075   0.00000  Uiso   1.00
H926   H     0.03730   0.09058   0.74980   0.00000  Uiso   1.00
N927   N     0.16667   0.28402   0.75000   0.00000  Uiso   1.00
N928   N     0.16667   0.04931   0.75000   0.00000  Uiso   1.00
O929   O     0.10655   0.20625   0.75000   0.00000  Uiso   1.00
O930   O     0.14608   0.08398   0.88459   0.00000  Uiso   1.00
O931   O     0.18520   0.24935   0.88629   0.00000  Uiso   1.00
O932   O     0.18726   0.08398   0.61541   0.00000  Uiso   1.00
O933   O     0.22679   0.12709   0.75001   0.00000  Uiso   1.00
O934   O     0.22679   0.20625   0.75001   0.00000  Uiso   1.00
O935   O     0.10655   0.12709   0.75000   0.00000  Uiso   1.00
O936   O     0.16666   0.20626   0.68573   0.00000  Uiso   1.00
O937   O     0.16667   0.12707   0.81427   0.00000  Uiso   1.00
O938   O     0.16667   0.20626   0.81427   0.00000  Uiso   1.00
O939   O     0.16666   0.12707   0.68573   0.00000  Uiso   1.00
O940   O     0.14813   0.24935   0.61372   0.00000  Uiso   1.00
C941   C     0.42066   0.16666   0.74995   0.00000  Uiso   1.00
C942   C     0.64538   0.20936   0.75006   0.00000  Uiso   1.00
C943   C     0.64538   0.12396   0.75007   0.00000  Uiso   1.00
C944   C     0.35462   0.20936   0.74996   0.00000  Uiso   1.00
C945   C     0.48880   0.20618   0.54708   0.00000  Uiso   1.00
C946   C     0.48906   0.12510   0.95231   0.00000  Uiso   1.00
C947   C     0.51119   0.20618   0.95292   0.00000  Uiso   1.00
C948   C     0.51094   0.12510   0.54769   0.00000  Uiso   1.00
C949   C     0.48892   0.20712   0.59280   0.00000  Uiso   1.00
C950   C     0.48878   0.12517   0.90654   0.00000  Uiso   1.00
C951   C     0.51108   0.20712   0.90720   0.00000  Uiso   1.00
C952   C     0.57934   0.16666   0.75005   0.00000  Uiso   1.00
C953   C     0.51122   0.12517   0.59346   0.00000  Uiso   1.00
C954   C     0.50008   0.16638   0.61655   0.00000  Uiso   1.00
C955   C     0.49991   0.16638   0.88345   0.00000  Uiso   1.00
C956   C     0.49984   0.16547   0.52419   0.00000  Uiso   1.00
C957   C     0.50016   0.16547   0.97581   0.00000  Uiso   1.00
C958   C     0.62394   0.16666   0.75008   0.00000  Uiso   1.00
C959   C     0.37606   0.16666   0.74992   0.00000  Uiso   1.00
C960   C     0.43865   0.25804   0.61516   0.00000  Uiso   1.00
C961   C     0.43167   0.31116   0.61492   0.00000  Uiso   1.00
C962   C     0.38715   0.32347   0.62551   0.00000  Uiso   1.00
C963   C     0.50004   0.16664   0.66489   0.00000  Uiso   1.00
C964   C     0.43623   0.07984   0.88096   0.00000  Uiso   1.00
C965   C     0.42615   0.03922   0.84992   0.00000  Uiso   1.00
C966   C     0.37983   0.03156   0.84596   0.00000  Uiso   1.00
C967   C     0.56134   0.25805   0.88485   0.00000  Uiso   1.00
C968   C     0.56831   0.31117   0.88509   0.00000  Uiso   1.00
C969   C     0.61284   0.32348   0.87449   0.00000  Uiso   1.00
C970   C     0.56377   0.07983   0.61902   0.00000  Uiso   1.00
C971   C     0.57386   0.03926   0.65012   0.00000  Uiso   1.00
C972   C     0.62018   0.03157   0.65404   0.00000  Uiso   1.00
C973   C     0.49996   0.16664   0.83511   0.00000  Uiso   1.00
C974   C     0.46913   0.02482   0.72974   0.00000  Uiso   1.00
C975   C     0.53102   0.30851   0.76996   0.00000  Uiso   1.00
C976   C     0.53087   0.02482   0.77026   0.00000  Uiso   1.00
C977   C     0.46898   0.30851   0.73004   0.00000  Uiso   1.00
C978   C     0.35462   0.12396   0.74990   0.00000  Uiso   1.00
Cu979  Cu    0.50000   0.21355   0.75000   0.00000  Uiso   1.00
Cu980  Cu    0.50000   0.11978   0.75000   0.00000  Uiso   1.00
H981   H     0.44445   0.04351   0.71340   0.00000  Uiso   1.00
H982   H     0.62937   0.24273   0.75011   0.00000  Uiso   1.00
H983   H     0.62936   0.09058   0.75016   0.00000  Uiso   1.00
H984   H     0.37063   0.24273   0.74992   0.00000  Uiso   1.00
H985   H     0.42621   0.24267   0.64594   0.00000  Uiso   1.00
H986   H     0.42123   0.24279   0.58682   0.00000  Uiso   1.00
H987   H     0.45225   0.32822   0.63936   0.00000  Uiso   1.00
H988   H     0.43954   0.32535   0.58200   0.00000  Uiso   1.00
H989   H     0.36602   0.30728   0.60104   0.00000  Uiso   1.00
H990   H     0.38314   0.02886   0.62453   0.00000  Uiso   1.00
H991   H     0.37907   0.31082   0.65889   0.00000  Uiso   1.00
H992   H     0.55592   0.28981   0.78582   0.00000  Uiso   1.00
H993   H     0.42220   0.11253   0.86721   0.00000  Uiso   1.00
H994   H     0.42270   0.07240   0.91377   0.00000  Uiso   1.00
H995   H     0.43872   0.04707   0.81689   0.00000  Uiso   1.00
H996   H     0.44083   0.00647   0.86226   0.00000  Uiso   1.00
H997   H     0.36686   0.02236   0.87851   0.00000  Uiso   1.00
H998   H     0.37354   0.00230   0.82275   0.00000  Uiso   1.00
H999   H     0.36449   0.06379   0.83344   0.00000  Uiso   1.00
H1000  H     0.57379   0.24268   0.85406   0.00000  Uiso   1.00
H1001  H     0.57876   0.24281   0.91319   0.00000  Uiso   1.00
H1002  H     0.54773   0.32822   0.86064   0.00000  Uiso   1.00
H1003  H     0.55555   0.04351   0.78660   0.00000  Uiso   1.00
H1004  H     0.56044   0.32537   0.91800   0.00000  Uiso   1.00
H1005  H     0.63397   0.30730   0.89897   0.00000  Uiso   1.00
H1006  H     0.61684   0.02887   0.87547   0.00000  Uiso   1.00
H1007  H     0.62092   0.31084   0.84111   0.00000  Uiso   1.00
H1008  H     0.57783   0.11253   0.63270   0.00000  Uiso   1.00
H1009  H     0.57728   0.07232   0.58621   0.00000  Uiso   1.00
H1010  H     0.56132   0.04718   0.68314   0.00000  Uiso   1.00
H1011  H     0.55915   0.00650   0.63784   0.00000  Uiso   1.00
H1012  H     0.63311   0.02230   0.62150   0.00000  Uiso   1.00
H1013  H     0.62647   0.00235   0.67729   0.00000  Uiso   1.00
H1014  H     0.44408   0.28981   0.71418   0.00000  Uiso   1.00
H1015  H     0.63554   0.06381   0.66650   0.00000  Uiso   1.00
H1016  H     0.47966   0.23770   0.52971   0.00000  Uiso   1.00
H1017  H     0.47987   0.09338   0.96925   0.00000  Uiso   1.00
H1018  H     0.52033   0.23770   0.97030   0.00000  Uiso   1.00
H1019  H     0.52013   0.09338   0.53075   0.00000  Uiso   1.00
H1020  H     0.37064   0.09058   0.74980   0.00000  Uiso   1.00
N1021  N     0.50000   0.28402   0.75000   0.00000  Uiso   1.00
N1022  N     0.50000   0.04931   0.75000   0.00000  Uiso   1.00
O1023  O     0.43988   0.20625   0.75000   0.00000  Uiso   1.00
O1024  O     0.47941   0.08398   0.88459   0.00000  Uiso   1.00
O1025  O     0.51853   0.24935   0.88629   0.00000  Uiso   1.00
O1026  O     0.52059   0.08398   0.61541   0.00000  Uiso   1.00
O1027  O     0.56012   0.12709   0.75001   0.00000  Uiso   1.00
O1028  O     0.56012   0.20625   0.75001   0.00000  Uiso   1.00
O1029  O     0.43988   0.12709   0.75000   0.00000  Uiso   1.00
O1030  O     0.50000   0.20626   0.68573   0.00000  Uiso   1.00
O1031  O     0.50000   0.12707   0.81427   0.00000  Uiso   1.00
O1032  O     0.50000   0.20626   0.81427   0.00000  Uiso   1.00
O1033  O     0.50000   0.12707   0.68573   0.00000  Uiso   1.00
O1034  O     0.48146   0.24935   0.61372   0.00000  Uiso   1.00
C1035  C     0.75399   0.16666   0.74995   0.00000  Uiso   1.00
C1036  C     0.97872   0.20936   0.75006   0.00000  Uiso   1.00
C1037  C     0.97872   0.12396   0.75007   0.00000  Uiso   1.00
C1038  C     0.68795   0.20936   0.74996   0.00000  Uiso   1.00
C1039  C     0.82214   0.20618   0.54708   0.00000  Uiso   1.00
C1040  C     0.82239   0.12510   0.95231   0.00000  Uiso   1.00
C1041  C     0.84453   0.20618   0.95292   0.00000  Uiso   1.00
C1042  C     0.84428   0.12510   0.54769   0.00000  Uiso   1.00
C1043  C     0.82225   0.20712   0.59280   0.00000  Uiso   1.00
C1044  C     0.82211   0.12517   0.90654   0.00000  Uiso   1.00
C1045  C     0.84441   0.20712   0.90720   0.00000  Uiso   1.00
C1046  C     0.91267   0.16666   0.75005   0.00000  Uiso   1.00
C1047  C     0.84456   0.12517   0.59346   0.00000  Uiso   1.00
C1048  C     0.83342   0.16638   0.61655   0.00000  Uiso   1.00
C1049  C     0.83325   0.16638   0.88345   0.00000  Uiso   1.00
C1050  C     0.83317   0.16547   0.52419   0.00000  Uiso   1.00
C1051  C     0.83349   0.16547   0.97581   0.00000  Uiso   1.00
C1052  C     0.95727   0.16666   0.75008   0.00000  Uiso   1.00
C1053  C     0.70939   0.16666   0.74992   0.00000  Uiso   1.00
C1054  C     0.77198   0.25804   0.61516   0.00000  Uiso   1.00
C1055  C     0.76501   0.31116   0.61492   0.00000  Uiso   1.00
C1056  C     0.72048   0.32347   0.62551   0.00000  Uiso   1.00
C1057  C     0.83338   0.16664   0.66489   0.00000  Uiso   1.00
C1058  C     0.76956   0.07984   0.88096   0.00000  Uiso   1.00
C1059  C     0.75948   0.03922   0.84992   0.00000  Uiso   1.00
C1060  C     0.71316   0.03156   0.84596   0.00000  Uiso   1.00
C1061  C     0.89467   0.25805   0.88485   0.00000  Uiso   1.00
C1062  C     0.90164   0.31117   0.88509   0.00000  Uiso   1.00
C1063  C     0.94617   0.32348   0.87449   0.00000  Uiso   1.00
C1064  C     0.89711   0.07983   0.61902   0.00000  Uiso   1.00
C1065  C     0.90719   0.03926   0.65012   0.00000  Uiso   1.00
C1066  C     0.95351   0.03157   0.65404   0.00000  Uiso   1.00
C1067  C     0.83329   0.16664   0.83511   0.00000  Uiso   1.00
C1068  C     0.80246   0.02482   0.72974   0.00000  Uiso   1.00
C1069  C     0.86435   0.30851   0.76996   0.00000  Uiso   1.00
C1070  C     0.86420   0.02482   0.77026   0.00000  Uiso   1.00
C1071  C     0.80232   0.30851   0.73004   0.00000  Uiso   1.00
C1072  C     0.68795   0.12396   0.74990   0.00000  Uiso   1.00
Cu1073 Cu    0.83333   0.21355   0.75000   0.00000  Uiso   1.00
Cu1074 Cu    0.83333   0.11978   0.75000   0.00000  Uiso   1.00
H1075  H     0.77778   0.04351   0.71340   0.00000  Uiso   1.00
H1076  H     0.96270   0.24273   0.75011   0.00000  Uiso   1.00
H1077  H     0.96269   0.09058   0.75016   0.00000  Uiso   1.00
H1078  H     0.70397   0.24273   0.74992   0.00000  Uiso   1.00
H1079  H     0.75954   0.24267   0.64594   0.00000  Uiso   1.00
H1080  H     0.75457   0.24279   0.58682   0.00000  Uiso   1.00
H1081  H     0.78559   0.32822   0.63936   0.00000  Uiso   1.00
H1082  H     0.77287   0.32535   0.58200   0.00000  Uiso   1.00
H1083  H     0.69935   0.30728   0.60104   0.00000  Uiso   1.00
H1084  H     0.71647   0.02886   0.62453   0.00000  Uiso   1.00
H1085  H     0.71240   0.31082   0.65889   0.00000  Uiso   1.00
H1086  H     0.88925   0.28981   0.78582   0.00000  Uiso   1.00
H1087  H     0.75553   0.11253   0.86721   0.00000  Uiso   1.00
H1088  H     0.75603   0.07240   0.91377   0.00000  Uiso   1.00
H1089  H     0.77205   0.04707   0.81689   0.00000  Uiso   1.00
H1090  H     0.77416   0.00647   0.86226   0.00000  Uiso   1.00
H1091  H     0.70019   0.02236   0.87851   0.00000  Uiso   1.00
H1092  H     0.70687   0.00230   0.82275   0.00000  Uiso   1.00
H1093  H     0.69783   0.06379   0.83344   0.00000  Uiso   1.00
H1094  H     0.90712   0.24268   0.85406   0.00000  Uiso   1.00
H1095  H     0.91209   0.24281   0.91319   0.00000  Uiso   1.00
H1096  H     0.88107   0.32822   0.86064   0.00000  Uiso   1.00
H1097  H     0.88888   0.04351   0.78660   0.00000  Uiso   1.00
H1098  H     0.89378   0.32537   0.91800   0.00000  Uiso   1.00
H1099  H     0.96730   0.30730   0.89897   0.00000  Uiso   1.00
H1100  H     0.95018   0.02887   0.87547   0.00000  Uiso   1.00
H1101  H     0.95425   0.31084   0.84111   0.00000  Uiso   1.00
H1102  H     0.91116   0.11253   0.63270   0.00000  Uiso   1.00
H1103  H     0.91061   0.07232   0.58621   0.00000  Uiso   1.00
H1104  H     0.89465   0.04718   0.68314   0.00000  Uiso   1.00
H1105  H     0.89248   0.00650   0.63784   0.00000  Uiso   1.00
H1106  H     0.96645   0.02230   0.62150   0.00000  Uiso   1.00
H1107  H     0.95980   0.00235   0.67729   0.00000  Uiso   1.00
H1108  H     0.77742   0.28981   0.71418   0.00000  Uiso   1.00
H1109  H     0.96887   0.06381   0.66650   0.00000  Uiso   1.00
H1110  H     0.81300   0.23770   0.52971   0.00000  Uiso   1.00
H1111  H     0.81321   0.09338   0.96925   0.00000  Uiso   1.00
H1112  H     0.85367   0.23770   0.97030   0.00000  Uiso   1.00
H1113  H     0.85346   0.09338   0.53075   0.00000  Uiso   1.00
H1114  H     0.70397   0.09058   0.74980   0.00000  Uiso   1.00
N1115  N     0.83333   0.28402   0.75000   0.00000  Uiso   1.00
N1116  N     0.83333   0.04931   0.75000   0.00000  Uiso   1.00
O1117  O     0.77321   0.20625   0.75000   0.00000  Uiso   1.00
O1118  O     0.81274   0.08398   0.88459   0.00000  Uiso   1.00
O1119  O     0.85186   0.24935   0.88629   0.00000  Uiso   1.00
O1120  O     0.85393   0.08398   0.61541   0.00000  Uiso   1.00
O1121  O     0.89345   0.12709   0.75001   0.00000  Uiso   1.00
O1122  O     0.89345   0.20625   0.75001   0.00000  Uiso   1.00
O1123  O     0.77321   0.12709   0.75000   0.00000  Uiso   1.00
O1124  O     0.83333   0.20626   0.68573   0.00000  Uiso   1.00
O1125  O     0.83334   0.12707   0.81427   0.00000  Uiso   1.00
O1126  O     0.83334   0.20626   0.81427   0.00000  Uiso   1.00
O1127  O     0.83333   0.12707   0.68573   0.00000  Uiso   1.00
O1128  O     0.81480   0.24935   0.61372   0.00000  Uiso   1.00
C1129  C     0.08733   0.50000   0.74995   0.00000  Uiso   1.00
C1130  C     0.31205   0.54269   0.75006   0.00000  Uiso   1.00
C1131  C     0.31205   0.45729   0.75007   0.00000  Uiso   1.00
C1132  C     0.02128   0.54269   0.74996   0.00000  Uiso   1.00
C1133  C     0.15547   0.53951   0.54708   0.00000  Uiso   1.00
C1134  C     0.15573   0.45843   0.95231   0.00000  Uiso   1.00
C1135  C     0.17786   0.53951   0.95292   0.00000  Uiso   1.00
C1136  C     0.17761   0.45843   0.54769   0.00000  Uiso   1.00
C1137  C     0.15559   0.54045   0.59280   0.00000  Uiso   1.00
C1138  C     0.15545   0.45850   0.90654   0.00000  Uiso   1.00
C1139  C     0.17774   0.54045   0.90720   0.00000  Uiso   1.00
C1140  C     0.24601   0.50000   0.75005   0.00000  Uiso   1.00
C1141  C     0.17789   0.45850   0.59346   0.00000  Uiso   1.00
C1142  C     0.16675   0.49971   0.61655   0.00000  Uiso   1.00
C1143  C     0.16658   0.49972   0.88345   0.00000  Uiso   1.00
C1144  C     0.16651   0.49880   0.52419   0.00000  Uiso   1.00
C1145  C     0.16683   0.49880   0.97581   0.00000  Uiso   1.00
C1146  C     0.29061   0.49999   0.75008   0.00000  Uiso   1.00
C1147  C     0.04273   0.49999   0.74992   0.00000  Uiso   1.00
C1148  C     0.10532   0.59138   0.61516   0.00000  Uiso   1.00
C1149  C     0.09834   0.64449   0.61492   0.00000  Uiso   1.00
C1150  C     0.05381   0.65680   0.62551   0.00000  Uiso   1.00
C1151  C     0.16671   0.49997   0.66489   0.00000  Uiso   1.00
C1152  C     0.10290   0.41318   0.88096   0.00000  Uiso   1.00
C1153  C     0.09281   0.37256   0.84992   0.00000  Uiso   1.00
C1154  C     0.04649   0.36489   0.84596   0.00000  Uiso   1.00
C1155  C     0.22801   0.59139   0.88485   0.00000  Uiso   1.00
C1156  C     0.23498   0.64450   0.88509   0.00000  Uiso   1.00
C1157  C     0.27951   0.65682   0.87449   0.00000  Uiso   1.00
C1158  C     0.23044   0.41316   0.61902   0.00000  Uiso   1.00
C1159  C     0.24053   0.37260   0.65012   0.00000  Uiso   1.00
C1160  C     0.28685   0.36491   0.65404   0.00000  Uiso   1.00
C1161  C     0.16662   0.49997   0.83511   0.00000  Uiso   1.00
C1162  C     0.13580   0.35816   0.72974   0.00000  Uiso   1.00
C1163  C     0.19768   0.64185   0.76996   0.00000  Uiso   1.00
C1164  C     0.19754   0.35816   0.77026   0.00000  Uiso   1.00
C1165  C     0.13565   0.64185   0.73004   0.00000  Uiso   1.00
C1166  C     0.02128   0.45729   0.74990   0.00000  Uiso   1.00
Cu1167 Cu    0.16667   0.54689   0.75000   0.00000  Uiso   1.00
Cu1168 Cu    0.16667   0.45311   0.75000   0.00000  Uiso   1.00
H1169  H     0.11112   0.37684   0.71340   0.00000  Uiso   1.00
H1170  H     0.29603   0.57607   0.75011   0.00000  Uiso   1.00
H1171  H     0.29603   0.42392   0.75016   0.00000  Uiso   1.00
H1172  H     0.03730   0.57607   0.74992   0.00000  Uiso   1.00
H1173  H     0.09287   0.57601   0.64594   0.00000  Uiso   1.00
H1174  H     0.08790   0.57613   0.58682   0.00000  Uiso   1.00
H1175  H     0.11892   0.66155   0.63936   0.00000  Uiso   1.00
H1176  H     0.10620   0.65869   0.58200   0.00000  Uiso   1.00
H1177  H     0.03269   0.64061   0.60104   0.00000  Uiso   1.00
H1178  H     0.04980   0.36219   0.62453   0.00000  Uiso   1.00
H1179  H     0.04573   0.64416   0.65889   0.00000  Uiso   1.00
H1180  H     0.22258   0.62315   0.78582   0.00000  Uiso   1.00
H1181  H     0.08886   0.44586   0.86721   0.00000  Uiso   1.00
H1182  H     0.08936   0.40574   0.91377   0.00000  Uiso   1.00
H1183  H     0.10539   0.38040   0.81689   0.00000  Uiso   1.00
H1184  H     0.10750   0.33981   0.86226   0.00000  Uiso   1.00
H1185  H     0.03353   0.35569   0.87851   0.00000  Uiso   1.00
H1186  H     0.04021   0.33564   0.82275   0.00000  Uiso   1.00
H1187  H     0.03116   0.39713   0.83344   0.00000  Uiso   1.00
H1188  H     0.24046   0.57601   0.85406   0.00000  Uiso   1.00
H1189  H     0.24543   0.57614   0.91319   0.00000  Uiso   1.00
H1190  H     0.21440   0.66156   0.86064   0.00000  Uiso   1.00
H1191  H     0.22222   0.37684   0.78660   0.00000  Uiso   1.00
H1192  H     0.22711   0.65870   0.91800   0.00000  Uiso   1.00
H1193  H     0.30063   0.64063   0.89897   0.00000  Uiso   1.00
H1194  H     0.28351   0.36221   0.87547   0.00000  Uiso   1.00
H1195  H     0.28759   0.64417   0.84111   0.00000  Uiso   1.00
H1196  H     0.24450   0.44586   0.63270   0.00000  Uiso   1.00
H1197  H     0.24395   0.40565   0.58621   0.00000  Uiso   1.00
H1198  H     0.22798   0.38051   0.68314   0.00000  Uiso   1.00
H1199  H     0.22582   0.33983   0.63784   0.00000  Uiso   1.00
H1200  H     0.29978   0.35563   0.62150   0.00000  Uiso   1.00
H1201  H     0.29314   0.33569   0.67729   0.00000  Uiso   1.00
H1202  H     0.11075   0.62315   0.71418   0.00000  Uiso   1.00
H1203  H     0.30221   0.39715   0.66650   0.00000  Uiso   1.00
H1204  H     0.14633   0.57104   0.52971   0.00000  Uiso   1.00
H1205  H     0.14654   0.42671   0.96925   0.00000  Uiso   1.00
H1206  H     0.18700   0.57104   0.97030   0.00000  Uiso   1.00
H1207  H     0.18680   0.42672   0.53075   0.00000  Uiso   1.00
H1208  H     0.03730   0.42392   0.74980   0.00000  Uiso   1.00
N1209  N     0.16667   0.61736   0.75000   0.00000  Uiso   1.00
N1210  N     0.16667   0.38264   0.75000   0.00000  Uiso   1.00
O1211  O     0.10655   0.53958   0.75000   0.00000  Uiso   1.00
O1212  O     0.14608   0.41731   0.88459   0.00000  Uiso   1.00
O1213  O     0.18520   0.58268   0.88629   0.00000  Uiso   1.00
O1214  O     0.18726   0.41731   0.61541   0.00000  Uiso   1.00
O1215  O     0.22679   0.46042   0.75001   0.00000  Uiso   1.00
O1216  O     0.22679   0.53958   0.75001   0.00000  Uiso   1.00
O1217  O     0.10655   0.46042   0.75000   0.00000  Uiso   1.00
O1218  O     0.16666   0.53959   0.68573   0.00000  Uiso   1.00
O1219  O     0.16667   0.46041   0.81427   0.00000  Uiso   1.00
O1220  O     0.16667   0.53959   0.81427   0.00000  Uiso   1.00
O1221  O     0.16666   0.46041   0.68573   0.00000  Uiso   1.00
O1222  O     0.14813   0.58268   0.61372   0.00000  Uiso   1.00
C1223  C     0.42066   0.50000   0.74995   0.00000  Uiso   1.00
C1224  C     0.64538   0.54269   0.75006   0.00000  Uiso   1.00
C1225  C     0.64538   0.45729   0.75007   0.00000  Uiso   1.00
C1226  C     0.35462   0.54269   0.74996   0.00000  Uiso   1.00
C1227  C     0.48880   0.53951   0.54708   0.00000  Uiso   1.00
C1228  C     0.48906   0.45843   0.95231   0.00000  Uiso   1.00
C1229  C     0.51119   0.53951   0.95292   0.00000  Uiso   1.00
C1230  C     0.51094   0.45843   0.54769   0.00000  Uiso   1.00
C1231  C     0.48892   0.54045   0.59280   0.00000  Uiso   1.00
C1232  C     0.48878   0.45850   0.90654   0.00000  Uiso   1.00
C1233  C     0.51108   0.54045   0.90720   0.00000  Uiso   1.00
C1234  C     0.57934   0.50000   0.75005   0.00000  Uiso   1.00
C1235  C     0.51122   0.45850   0.59346   0.00000  Uiso   1.00
C1236  C     0.50008   0.49971   0.61655   0.00000  Uiso   1.00
C1237  C     0.49991   0.49972   0.88345   0.00000  Uiso   1.00
C1238  C     0.49984   0.49880   0.52419   0.00000  Uiso   1.00
C1239  C     0.50016   0.49880   0.97581   0.00000  Uiso   1.00
C1240  C     0.62394   0.49999   0.75008   0.00000  Uiso   1.00
C1241  C     0.37606   0.49999   0.74992   0.00000  Uiso   1.00
C1242  C     0.43865   0.59138   0.61516   0.00000  Uiso   1.00
C1243  C     0.43167   0.64449   0.61492   0.00000  Uiso   1.00
C1244  C     0.38715   0.65680   0.62551   0.00000  Uiso   1.00
C1245  C     0.50004   0.49997   0.66489   0.00000  Uiso   1.00
C1246  C     0.43623   0.41318   0.88096   0.00000  Uiso   1.00
C1247  C     0.42615   0.37256   0.84992   0.00000  Uiso   1.00
C1248  C     0.37983   0.36489   0.84596   0.00000  Uiso   1.00
C1249  C     0.56134   0.59139   0.88485   0.00000  Uiso   1.00
C1250  C     0.56831   0.64450   0.88509   0.00000  Uiso   1.00
C1251  C     0.61284   0.65682   0.87449   0.00000  Uiso   1.00
C1252  C     0.56377   0.41316   0.61902   0.00000  Uiso   1.00
C1253  C     0.57386   0.37260   0.65012   0.00000  Uiso   1.00
C1254  C     0.62018   0.36491   0.65404   0.00000  Uiso   1.00
C1255  C     0.49996   0.49997   0.83511   0.00000  Uiso   1.00
C1256  C     0.46913   0.35816   0.72974   0.00000  Uiso   1.00
C1257  C     0.53102   0.64185   0.76996   0.00000  Uiso   1.00
C1258  C     0.53087   0.35816   0.77026   0.00000  Uiso   1.00
C1259  C     0.46898   0.64185   0.73004   0.00000  Uiso   1.00
C1260  C     0.35462   0.45729   0.74990   0.00000  Uiso   1.00
Cu1261 Cu    0.50000   0.54689   0.75000   0.00000  Uiso   1.00
Cu1262 Cu    0.50000   0.45311   0.75000   0.00000  Uiso   1.00
H1263  H     0.44445   0.37684   0.71340   0.00000  Uiso   1.00
H1264  H     0.62937   0.57607   0.75011   0.00000  Uiso   1.00
H1265  H     0.62936   0.42392   0.75016   0.00000  Uiso   1.00
H1266  H     0.37063   0.57607   0.74992   0.00000  Uiso   1.00
H1267  H     0.42621   0.57601   0.64594   0.00000  Uiso   1.00
H1268  H     0.42123   0.57613   0.58682   0.00000  Uiso   1.00
H1269  H     0.45225   0.66155   0.63936   0.00000  Uiso   1.00
H1270  H     0.43954   0.65869   0.58200   0.00000  Uiso   1.00
H1271  H     0.36602   0.64061   0.60104   0.00000  Uiso   1.00
H1272  H     0.38314   0.36219   0.62453   0.00000  Uiso   1.00
H1273  H     0.37907   0.64416   0.65889   0.00000  Uiso   1.00
H1274  H     0.55592   0.62315   0.78582   0.00000  Uiso   1.00
H1275  H     0.42220   0.44586   0.86721   0.00000  Uiso   1.00
H1276  H     0.42270   0.40574   0.91377   0.00000  Uiso   1.00
H1277  H     0.43872   0.38040   0.81689   0.00000  Uiso   1.00
H1278  H     0.44083   0.33981   0.86226   0.00000  Uiso   1.00
H1279  H     0.36686   0.35569   0.87851   0.00000  Uiso   1.00
H1280  H     0.37354   0.33564   0.82275   0.00000  Uiso   1.00
H1281  H     0.36449   0.39713   0.83344   0.00000  Uiso   1.00
H1282  H     0.57379   0.57601   0.85406   0.00000  Uiso   1.00
H1283  H     0.57876   0.57614   0.91319   0.00000  Uiso   1.00
H1284  H     0.54773   0.66156   0.86064   0.00000  Uiso   1.00
H1285  H     0.55555   0.37684   0.78660   0.00000  Uiso   1.00
H1286  H     0.56044   0.65870   0.91800   0.00000  Uiso   1.00
H1287  H     0.63397   0.64063   0.89897   0.00000  Uiso   1.00
H1288  H     0.61684   0.36221   0.87547   0.00000  Uiso   1.00
H1289  H     0.62092   0.64417   0.84111   0.00000  Uiso   1.00
H1290  H     0.57783   0.44586   0.63270   0.00000  Uiso   1.00
H1291  H     0.57728   0.40565   0.58621   0.00000  Uiso   1.00
H1292  H     0.56132   0.38051   0.68314   0.00000  Uiso   1.00
H1293  H     0.55915   0.33983   0.63784   0.00000  Uiso   1.00
H1294  H     0.63311   0.35563   0.62150   0.00000  Uiso   1.00
H1295  H     0.62647   0.33569   0.67729   0.00000  Uiso   1.00
H1296  H     0.44408   0.62315   0.71418   0.00000  Uiso   1.00
H1297  H     0.63554   0.39715   0.66650   0.00000  Uiso   1.00
H1298  H     0.47966   0.57104   0.52971   0.00000  Uiso   1.00
H1299  H     0.47987   0.42671   0.96925   0.00000  Uiso   1.00
H1300  H     0.52033   0.57104   0.97030   0.00000  Uiso   1.00
H1301  H     0.52013   0.42672   0.53075   0.00000  Uiso   1.00
H1302  H     0.37064   0.42392   0.74980   0.00000  Uiso   1.00
N1303  N     0.50000   0.61736   0.75000   0.00000  Uiso   1.00
N1304  N     0.50000   0.38264   0.75000   0.00000  Uiso   1.00
O1305  O     0.43988   0.53958   0.75000   0.00000  Uiso   1.00
O1306  O     0.47941   0.41731   0.88459   0.00000  Uiso   1.00
O1307  O     0.51853   0.58268   0.88629   0.00000  Uiso   1.00
O1308  O     0.52059   0.41731   0.61541   0.00000  Uiso   1.00
O1309  O     0.56012   0.46042   0.75001   0.00000  Uiso   1.00
O1310  O     0.56012   0.53958   0.75001   0.00000  Uiso   1.00
O1311  O     0.43988   0.46042   0.75000   0.00000  Uiso   1.00
O1312  O     0.50000   0.53959   0.68573   0.00000  Uiso   1.00
O1313  O     0.50000   0.46041   0.81427   0.00000  Uiso   1.00
O1314  O     0.50000   0.53959   0.81427   0.00000  Uiso   1.00
O1315  O     0.50000   0.46041   0.68573   0.00000  Uiso   1.00
O1316  O     0.48146   0.58268   0.61372   0.00000  Uiso   1.00
C1317  C     0.75399   0.50000   0.74995   0.00000  Uiso   1.00
C1318  C     0.97872   0.54269   0.75006   0.00000  Uiso   1.00
C1319  C     0.97872   0.45729   0.75007   0.00000  Uiso   1.00
C1320  C     0.68795   0.54269   0.74996   0.00000  Uiso   1.00
C1321  C     0.82214   0.53951   0.54708   0.00000  Uiso   1.00
C1322  C     0.82239   0.45843   0.95231   0.00000  Uiso   1.00
C1323  C     0.84453   0.53951   0.95292   0.00000  Uiso   1.00
C1324  C     0.84428   0.45843   0.54769   0.00000  Uiso   1.00
C1325  C     0.82225   0.54045   0.59280   0.00000  Uiso   1.00
C1326  C     0.82211   0.45850   0.90654   0.00000  Uiso   1.00
C1327  C     0.84441   0.54045   0.90720   0.00000  Uiso   1.00
C1328  C     0.91267   0.50000   0.75005   0.00000  Uiso   1.00
C1329  C     0.84456   0.45850   0.59346   0.00000  Uiso   1.00
C1330  C     0.83342   0.49971   0.61655   0.00000  Uiso   1.00
C1331  C     0.83325   0.49972   0.88345   0.00000  Uiso   1.00
C1332  C     0.83317   0.49880   0.52419   0.00000  Uiso   1.00
C1333  C     0.83349   0.49880   0.97581   0.00000  Uiso   1.00
C1334  C     0.95727   0.49999   0.75008   0.00000  Uiso   1.00
C1335  C     0.70939   0.49999   0.74992   0.00000  Uiso   1.00
C1336  C     0.77198   0.59138   0.61516   0.00000  Uiso   1.00
C1337  C     0.76501   0.64449   0.61492   0.00000  Uiso   1.00
C1338  C     0.72048   0.65680   0.62551   0.00000  Uiso   1.00
C1339  C     0.83338   0.49997   0.66489   0.00000  Uiso   1.00
C1340  C     0.76956   0.41318   0.88096   0.00000  Uiso   1.00
C1341  C     0.75948   0.37256   0.84992   0.00000  Uiso   1.00
C1342  C     0.71316   0.36489   0.84596   0.00000  Uiso   1.00
C1343  C     0.89467   0.59139   0.88485   0.00000  Uiso   1.00
C1344  C     0.90164   0.64450   0.88509   0.00000  Uiso   1.00
C1345  C     0.94617   0.65682   0.87449   0.00000  Uiso   1.00
C1346  C     0.89711   0.41316   0.61902   0.00000  Uiso   1.00
C1347  C     0.90719   0.37260   0.65012   0.00000  Uiso   1.00
C1348  C     0.95351   0.36491   0.65404   0.00000  Uiso   1.00
C1349  C     0.83329   0.49997   0.83511   0.00000  Uiso   1.00
C1350  C     0.80246   0.35816   0.72974   0.00000  Uiso   1.00
C1351  C     0.86435   0.64185   0.76996   0.00000  Uiso   1.00
C1352  C     0.86420   0.35816   0.77026   0.00000  Uiso   1.00
C1353  C     0.80232   0.64185   0.73004   0.00000  Uiso   1.00
C1354  C     0.68795   0.45729   0.74990   0.00000  Uiso   1.00
Cu1355 Cu    0.83333   0.54689   0.75000   0.00000  Uiso   1.00
Cu1356 Cu    0.83333   0.45311   0.75000   0.00000  Uiso   1.00
H1357  H     0.77778   0.37684   0.71340   0.00000  Uiso   1.00
H1358  H     0.96270   0.57607   0.75011   0.00000  Uiso   1.00
H1359  H     0.96269   0.42392   0.75016   0.00000  Uiso   1.00
H1360  H     0.70397   0.57607   0.74992   0.00000  Uiso   1.00
H1361  H     0.75954   0.57601   0.64594   0.00000  Uiso   1.00
H1362  H     0.75457   0.57613   0.58682   0.00000  Uiso   1.00
H1363  H     0.78559   0.66155   0.63936   0.00000  Uiso   1.00
H1364  H     0.77287   0.65869   0.58200   0.00000  Uiso   1.00
H1365  H     0.69935   0.64061   0.60104   0.00000  Uiso   1.00
H1366  H     0.71647   0.36219   0.62453   0.00000  Uiso   1.00
H1367  H     0.71240   0.64416   0.65889   0.00000  Uiso   1.00
H1368  H     0.88925   0.62315   0.78582   0.00000  Uiso   1.00
H1369  H     0.75553   0.44586   0.86721   0.00000  Uiso   1.00
H1370  H     0.75603   0.40574   0.91377   0.00000  Uiso   1.00
H1371  H     0.77205   0.38040   0.81689   0.00000  Uiso   1.00
H1372  H     0.77416   0.33981   0.86226   0.00000  Uiso   1.00
H1373  H     0.70019   0.35569   0.87851   0.00000  Uiso   1.00
H1374  H     0.70687   0.33564   0.82275   0.00000  Uiso   1.00
H1375  H     0.69783   0.39713   0.83344   0.00000  Uiso   1.00
H1376  H     0.90712   0.57601   0.85406   0.00000  Uiso   1.00
H1377  H     0.91209   0.57614   0.91319   0.00000  Uiso   1.00
H1378  H     0.88107   0.66156   0.86064   0.00000  Uiso   1.00
H1379  H     0.88888   0.37684   0.78660   0.00000  Uiso   1.00
H1380  H     0.89378   0.65870   0.91800   0.00000  Uiso   1.00
H1381  H     0.96730   0.64063   0.89897   0.00000  Uiso   1.00
H1382  H     0.95018   0.36221   0.87547   0.00000  Uiso   1.00
H1383  H     0.95425   0.64417   0.84111   0.00000  Uiso   1.00
H1384  H     0.91116   0.44586   0.63270   0.00000  Uiso   1.00
H1385  H     0.91061   0.40565   0.58621   0.00000  Uiso   1.00
H1386  H     0.89465   0.38051   0.68314   0.00000  Uiso   1.00
H1387  H     0.89248   0.33983   0.63784   0.00000  Uiso   1.00
H1388  H     0.96645   0.35563   0.62150   0.00000  Uiso   1.00
H1389  H     0.95980   0.33569   0.67729   0.00000  Uiso   1.00
H1390  H     0.77742   0.62315   0.71418   0.00000  Uiso   1.00
H1391  H     0.96887   0.39715   0.66650   0.00000  Uiso   1.00
H1392  H     0.81300   0.57104   0.52971   0.00000  Uiso   1.00
H1393  H     0.81321   0.42671   0.96925   0.00000  Uiso   1.00
H1394  H     0.85367   0.57104   0.97030   0.00000  Uiso   1.00
H1395  H     0.85346   0.42672   0.53075   0.00000  Uiso   1.00
H1396  H     0.70397   0.42392   0.74980   0.00000  Uiso   1.00
N1397  N     0.83333   0.61736   0.75000   0.00000  Uiso   1.00
N1398  N     0.83333   0.38264   0.75000   0.00000  Uiso   1.00
O1399  O     0.77321   0.53958   0.75000   0.00000  Uiso   1.00
O1400  O     0.81274   0.41731   0.88459   0.00000  Uiso   1.00
O1401  O     0.85186   0.58268   0.88629   0.00000  Uiso   1.00
O1402  O     0.85393   0.41731   0.61541   0.00000  Uiso   1.00
O1403  O     0.89345   0.46042   0.75001   0.00000  Uiso   1.00
O1404  O     0.89345   0.53958   0.75001   0.00000  Uiso   1.00
O1405  O     0.77321   0.46042   0.75000   0.00000  Uiso   1.00
O1406  O     0.83333   0.53959   0.68573   0.00000  Uiso   1.00
O1407  O     0.83334   0.46041   0.81427   0.00000  Uiso   1.00
O1408  O     0.83334   0.53959   0.81427   0.00000  Uiso   1.00
O1409  O     0.83333   0.46041   0.68573   0.00000  Uiso   1.00
O1410  O     0.81480   0.58268   0.61372   0.00000  Uiso   1.00
C1411  C     0.08733   0.83333   0.74995   0.00000  Uiso   1.00
C1412  C     0.31205   0.87602   0.75006   0.00000  Uiso   1.00
C1413  C     0.31205   0.79062   0.75007   0.00000  Uiso   1.00
C1414  C     0.02128   0.87602   0.74996   0.00000  Uiso   1.00
C1415  C     0.15547   0.87284   0.54708   0.00000  Uiso   1.00
C1416  C     0.15573   0.79176   0.95231   0.00000  Uiso   1.00
C1417  C     0.17786   0.87284   0.95292   0.00000  Uiso   1.00
C1418  C     0.17761   0.79176   0.54769   0.00000  Uiso   1.00
C1419  C     0.15559   0.87378   0.59280   0.00000  Uiso   1.00
C1420  C     0.15545   0.79184   0.90654   0.00000  Uiso   1.00
C1421  C     0.17774   0.87378   0.90720   0.00000  Uiso   1.00
C1422  C     0.24601   0.83333   0.75005   0.00000  Uiso   1.00
C1423  C     0.17789   0.79184   0.59346   0.00000  Uiso   1.00
C1424  C     0.16675   0.83305   0.61655   0.00000  Uiso   1.00
C1425  C     0.16658   0.83305   0.88345   0.00000  Uiso   1.00
C1426  C     0.16651   0.83213   0.52419   0.00000  Uiso   1.00
C1427  C     0.16683   0.83213   0.97581   0.00000  Uiso   1.00
C1428  C     0.29061   0.83332   0.75008   0.00000  Uiso   1.00
C1429  C     0.04273   0.83332   0.74992   0.00000  Uiso   1.00
C1430  C     0.10532   0.92471   0.61516   0.00000  Uiso   1.00
C1431  C     0.09834   0.97783   0.61492   0.00000  Uiso   1.00
C1432  C     0.05381   0.99014   0.62551   0.00000  Uiso   1.00
C1433  C     0.16671   0.83331   0.66489   0.00000  Uiso   1.00
C1434  C     0.10290   0.74651   0.88096   0.00000  Uiso   1.00
C1435  C     0.09281   0.70589   0.84992   0.00000  Uiso   1.00
C1436  C     0.04649   0.69823   0.84596   0.00000  Uiso   1.00
C1437  C     0.22801   0.92472   0.88485   0.00000  Uiso   1.00
C1438  C     0.23498   0.97784   0.88509   0.00000  Uiso   1.00
C1439  C     0.27951   0.99015   0.87449   0.00000  Uiso   1.00
C1440  C     0.23044   0.74650   0.61902   0.00000  Uiso   1.00
C1441  C     0.24053   0.70593   0.65012   0.00000  Uiso   1.00
C1442  C     0.28685   0.69824   0.65404   0.00000  Uiso   1.00
C1443  C     0.16662   0.83331   0.83511   0.00000  Uiso   1.00
C1444  C     0.13580   0.69149   0.72974   0.00000  Uiso   1.00
C1445  C     0.19768   0.97518   0.76996   0.00000  Uiso   1.00
C1446  C     0.19754   0.69149   0.77026   0.00000  Uiso   1.00
C1447  C     0.13565   0.97518   0.73004   0.00000  Uiso   1.00
C1448  C     0.02128   0.79062   0.74990   0.00000  Uiso   1.00
Cu1449 Cu    0.16667   0.88022   0.75000   0.00000  Uiso   1.00
Cu1450 Cu    0.16667   0.78645   0.75000   0.00000  Uiso   1.00
H1451  H     0.11112   0.71017   0.71340   0.00000  Uiso   1.00
H1452  H     0.29603   0.90940   0.75011   0.00000  Uiso   1.00
H1453  H     0.29603   0.75725   0.75016   0.00000  Uiso   1.00
H1454  H     0.03730   0.90940   0.74992   0.00000  Uiso   1.00
H1455  H     0.09287   0.90934   0.64594   0.00000  Uiso   1.00
H1456  H     0.08790   0.90946   0.58682   0.00000  Uiso   1.00
H1457  H     0.11892   0.99489   0.63936   0.00000  Uiso   1.00
H1458  H     0.10620   0.99202   0.58200   0.00000  Uiso   1.00
H1459  H     0.03269   0.97394   0.60104   0.00000  Uiso   1.00
H1460  H     0.04980   0.69552   0.62453   0.00000  Uiso   1.00
H1461  H     0.04573   0.97749   0.65889   0.00000  Uiso   1.00
H1462  H     0.22258   0.95648   0.78582   0.00000  Uiso   1.00
H1463  H     0.08886   0.77919   0.86721   0.00000  Uiso   1.00
H1464  H     0.08936   0.73907   0.91377   0.00000  Uiso   1.00
H1465  H     0.10539   0.71373   0.81689   0.00000  Uiso   1.00
H1466  H     0.10750   0.67314   0.86226   0.00000  Uiso   1.00
H1467  H     0.03353   0.68902   0.87851   0.00000  Uiso   1.00
H1468  H     0.04021   0.66897   0.82275   0.00000  Uiso   1.00
H1469  H     0.03116   0.73046   0.83344   0.00000  Uiso   1.00
H1470  H     0.24046   0.90935   0.85406   0.00000  Uiso   1.00
H1471  H     0.24543   0.90947   0.91319   0.00000  Uiso   1.00
H1472  H     0.21440   0.99489   0.86064   0.00000  Uiso   1.00
H1473  H     0.22222   0.71017   0.78660   0.00000  Uiso   1.00
H1474  H     0.22711   0.99203   0.91800   0.00000  Uiso   1.00
H1475  H     0.30063   0.97396   0.89897   0.00000  Uiso   1.00
H1476  H     0.28351   0.69554   0.87547   0.00000  Uiso   1.00
H1477  H     0.28759   0.97750   0.84111   0.00000  Uiso   1.00
H1478  H     0.24450   0.77920   0.63270   0.00000  Uiso   1.00
H1479  H     0.24395   0.73899   0.58621   0.00000  Uiso   1.00
H1480  H     0.22798   0.71385   0.68314   0.00000  Uiso   1.00
H1481  H     0.22582   0.67317   0.63784   0.00000  Uiso   1.00
H1482  H     0.29978   0.68897   0.62150   0.00000  Uiso   1.00
H1483  H     0.29314   0.66902   0.67729   0.00000  Uiso   1.00
H1484  H     0.11075   0.95648   0.71418   0.00000  Uiso   1.00
H1485  H     0.30221   0.73048   0.66650   0.00000  Uiso   1.00
H1486  H     0.14633   0.90437   0.52971   0.00000  Uiso   1.00
H1487  H     0.14654   0.76005   0.96925   0.00000  Uiso   1.00
H1488  H     0.18700   0.90437   0.97030   0.00000  Uiso   1.00
H1489  H     0.18680   0.76005   0.53075   0.00000  Uiso   1.00
H1490  H     0.03730   0.75725   0.74980   0.00000  Uiso   1.00
N1491  N     0.16667   0.95069   0.75000   0.00000  Uiso   1.00
N1492  N     0.16667   0.71598   0.75000   0.00000  Uiso   1.00
O1493  O     0.10655   0.87291   0.75000   0.00000  Uiso   1.00
O1494  O     0.14608   0.75064   0.88459   0.00000  Uiso   1.00
O1495  O     0.18520   0.91602   0.88629   0.00000  Uiso   1.00
O1496  O     0.18726   0.75065   0.61541   0.00000  Uiso   1.00
O1497  O     0.22679   0.79375   0.75001   0.00000  Uiso   1.00
O1498  O     0.22679   0.87291   0.75001   0.00000  Uiso   1.00
O1499  O     0.10655   0.79375   0.75000   0.00000  Uiso   1.00
O1500  O     0.16666   0.87293   0.68573   0.00000  Uiso   1.00
O1501  O     0.16667   0.79374   0.81427   0.00000  Uiso   1.00
O1502  O     0.16667   0.87293   0.81427   0.00000  Uiso   1.00
O1503  O     0.16666   0.79374   0.68573   0.00000  Uiso   1.00
O1504  O     0.14813   0.91601   0.61372   0.00000  Uiso   1.00
C1505  C     0.42066   0.83333   0.74995   0.00000  Uiso   1.00
C1506  C     0.64538   0.87602   0.75006   0.00000  Uiso   1.00
C1507  C     0.64538   0.79062   0.75007   0.00000  Uiso   1.00
C1508  C     0.35462   0.87602   0.74996   0.00000  Uiso   1.00
C1509  C     0.48880   0.87284   0.54708   0.00000  Uiso   1.00
C1510  C     0.48906   0.79176   0.95231   0.00000  Uiso   1.00
C1511  C     0.51119   0.87284   0.95292   0.00000  Uiso   1.00
C1512  C     0.51094   0.79176   0.54769   0.00000  Uiso   1.00
C1513  C     0.48892   0.87378   0.59280   0.00000  Uiso   1.00
C1514  C     0.48878   0.79184   0.90654   0.00000  Uiso   1.00
C1515  C     0.51108   0.87378   0.90720   0.00000  Uiso   1.00
C1516  C     0.57934   0.83333   0.75005   0.00000  Uiso   1.00
C1517  C     0.51122   0.79184   0.59346   0.00000  Uiso   1.00
C1518  C     0.50008   0.83305   0.61655   0.00000  Uiso   1.00
C1519  C     0.49991   0.83305   0.88345   0.00000  Uiso   1.00
C1520  C     0.49984   0.83213   0.52419   0.00000  Uiso   1.00
C1521  C     0.50016   0.83213   0.97581   0.00000  Uiso   1.00
C1522  C     0.62394   0.83332   0.75008   0.00000  Uiso   1.00
C1523  C     0.37606   0.83332   0.74992   0.00000  Uiso   1.00
C1524  C     0.43865   0.92471   0.61516   0.00000  Uiso   1.00
C1525  C     0.43167   0.97783   0.61492   0.00000  Uiso   1.00
C1526  C     0.38715   0.99014   0.62551   0.00000  Uiso   1.00
C1527  C     0.50004   0.83331   0.66489   0.00000  Uiso   1.00
C1528  C     0.43623   0.74651   0.88096   0.00000  Uiso   1.00
C1529  C     0.42615   0.70589   0.84992   0.00000  Uiso   1.00
C1530  C     0.37983   0.69823   0.84596   0.00000  Uiso   1.00
C1531  C     0.56134   0.92472   0.88485   0.00000  Uiso   1.00
C1532  C     0.56831   0.97784   0.88509   0.00000  Uiso   1.00
C1533  C     0.61284   0.99015   0.87449   0.00000  Uiso   1.00
C1534  C     0.56377   0.74650   0.61902   0.00000  Uiso   1.00
C1535  C     0.57386   0.70593   0.65012   0.00000  Uiso   1.00
C1536  C     0.62018   0.69824   0.65404   0.00000  Uiso   1.00
C1537  C     0.49996   0.83331   0.83511   0.00000  Uiso   1.00
C1538  C     0.46913   0.69149   0.72974   0.00000  Uiso   1.00
C1539  C     0.53102   0.97518   0.76996   0.00000  Uiso   1.00
C1540  C     0.53087   0.69149   0.77026   0.00000  Uiso   1.00
C1541  C     0.46898   0.97518   0.73004   0.00000  Uiso   1.00
C1542  C     0.35462   0.79062   0.74990   0.00000  Uiso   1.00
Cu1543 Cu    0.50000   0.88022   0.75000   0.00000  Uiso   1.00
Cu1544 Cu    0.50000   0.78645   0.75000   0.00000  Uiso   1.00
H1545  H     0.44445   0.71017   0.71340   0.00000  Uiso   1.00
H1546  H     0.62937   0.90940   0.75011   0.00000  Uiso   1.00
H1547  H     0.62936   0.75725   0.75016   0.00000  Uiso   1.00
H1548  H     0.37063   0.90940   0.74992   0.00000  Uiso   1.00
H1549  H     0.42621   0.90934   0.64594   0.00000  Uiso   1.00
H1550  H     0.42123   0.90946   0.58682   0.00000  Uiso   1.00
H1551  H     0.45225   0.99489   0.63936   0.00000  Uiso   1.00
H1552  H     0.43954   0.99202   0.58200   0.00000  Uiso   1.00
H1553  H     0.36602   0.97394   0.60104   0.00000  Uiso   1.00
H1554  H     0.38314   0.69552   0.62453   0.00000  Uiso   1.00
H1555  H     0.37907   0.97749   0.65889   0.00000  Uiso   1.00
H1556  H     0.55592   0.95648   0.78582   0.00000  Uiso   1.00
H1557  H     0.42220   0.77919   0.86721   0.00000  Uiso   1.00
H1558  H     0.42270   0.73907   0.91377   0.00000  Uiso   1.00
H1559  H     0.43872   0.71373   0.81689   0.00000  Uiso   1.00
H1560  H     0.44083   0.67314   0.86226   0.00000  Uiso   1.00
H1561  H     0.36686   0.68902   0.87851   0.00000  Uiso   1.00
H1562  H     0.37354   0.66897   0.82275   0.00000  Uiso   1.00
H1563  H     0.36449   0.73046   0.83344   0.00000  Uiso   1.00
H1564  H     0.57379   0.90935   0.85406   0.00000  Uiso   1.00
H1565  H     0.57876   0.90947   0.91319   0.00000  Uiso   1.00
H1566  H     0.54773   0.99489   0.86064   0.00000  Uiso   1.00
H1567  H     0.55555   0.71017   0.78660   0.00000  Uiso   1.00
H1568  H     0.56044   0.99203   0.91800   0.00000  Uiso   1.00
H1569  H     0.63397   0.97396   0.89897   0.00000  Uiso   1.00
H1570  H     0.61684   0.69554   0.87547   0.00000  Uiso   1.00
H1571  H     0.62092   0.97750   0.84111   0.00000  Uiso   1.00
H1572  H     0.57783   0.77920   0.63270   0.00000  Uiso   1.00
H1573  H     0.57728   0.73899   0.58621   0.00000  Uiso   1.00
H1574  H     0.56132   0.71385   0.68314   0.00000  Uiso   1.00
H1575  H     0.55915   0.67317   0.63784   0.00000  Uiso   1.00
H1576  H     0.63311   0.68897   0.62150   0.00000  Uiso   1.00
H1577  H     0.62647   0.66902   0.67729   0.00000  Uiso   1.00
H1578  H     0.44408   0.95648   0.71418   0.00000  Uiso   1.00
H1579  H     0.63554   0.73048   0.66650   0.00000  Uiso   1.00
H1580  H     0.47966   0.90437   0.52971   0.00000  Uiso   1.00
H1581  H     0.47987   0.76005   0.96925   0.00000  Uiso   1.00
H1582  H     0.52033   0.90437   0.97030   0.00000  Uiso   1.00
H1583  H     0.52013   0.76005   0.53075   0.00000  Uiso   1.00
H1584  H     0.37064   0.75725   0.74980   0.00000  Uiso   1.00
N1585  N     0.50000   0.95069   0.75000   0.00000  Uiso   1.00
N1586  N     0.50000   0.71598   0.75000   0.00000  Uiso   1.00
O1587  O     0.43988   0.87291   0.75000   0.00000  Uiso   1.00
O1588  O     0.47941   0.75064   0.88459   0.00000  Uiso   1.00
O1589  O     0.51853   0.91602   0.88629   0.00000  Uiso   1.00
O1590  O     0.52059   0.75065   0.61541   0.00000  Uiso   1.00
O1591  O     0.56012   0.79375   0.75001   0.00000  Uiso   1.00
O1592  O     0.56012   0.87291   0.75001   0.00000  Uiso   1.00
O1593  O     0.43988   0.79375   0.75000   0.00000  Uiso   1.00
O1594  O     0.50000   0.87293   0.68573   0.00000  Uiso   1.00
O1595  O     0.50000   0.79374   0.81427   0.00000  Uiso   1.00
O1596  O     0.50000   0.87293   0.81427   0.00000  Uiso   1.00
O1597  O     0.50000   0.79374   0.68573   0.00000  Uiso   1.00
O1598  O     0.48146   0.91601   0.61372   0.00000  Uiso   1.00
C1599  C     0.75399   0.83333   0.74995   0.00000  Uiso   1.00
C1600  C     0.97872   0.87602   0.75006   0.00000  Uiso   1.00
C1601  C     0.97872   0.79062   0.75007   0.00000  Uiso   1.00
C1602  C     0.68795   0.87602   0.74996   0.00000  Uiso   1.00
C1603  C     0.82214   0.87284   0.54708   0.00000  Uiso   1.00
C1604  C     0.82239   0.79176   0.95231   0.00000  Uiso   1.00
C1605  C     0.84453   0.87284   0.95292   0.00000  Uiso   1.00
C1606  C     0.84428   0.79176   0.54769   0.00000  Uiso   1.00
C1607  C     0.82225   0.87378   0.59280   0.00000  Uiso   1.00
C1608  C     0.82211   0.79184   0.90654   0.00000  Uiso   1.00
C1609  C     0.84441   0.87378   0.90720   0.00000  Uiso   1.00
C1610  C     0.91267   0.83333   0.75005   0.00000  Uiso   1.00
C1611  C     0.84456   0.79184   0.59346   0.00000  Uiso   1.00
C1612  C     0.83342   0.83305   0.61655   0.00000  Uiso   1.00
C1613  C     0.83325   0.83305   0.88345   0.00000  Uiso   1.00
C1614  C     0.83317   0.83213   0.52419   0.00000  Uiso   1.00
C1615  C     0.83349   0.83213   0.97581   0.00000  Uiso   1.00
C1616  C     0.95727   0.83332   0.75008   0.00000  Uiso   1.00
C1617  C     0.70939   0.83332   0.74992   0.00000  Uiso   1.00
C1618  C     0.77198   0.92471   0.61516   0.00000  Uiso   1.00
C1619  C     0.76501   0.97783   0.61492   0.00000  Uiso   1.00
C1620  C     0.72048   0.99014   0.62551   0.00000  Uiso   1.00
C1621  C     0.83338   0.83331   0.66489   0.00000  Uiso   1.00
C1622  C     0.76956   0.74651   0.88096   0.00000  Uiso   1.00
C1623  C     0.75948   0.70589   0.84992   0.00000  Uiso   1.00
C1624  C     0.71316   0.69823   0.84596   0.00000  Uiso   1.00
C1625  C     0.89467   0.92472   0.88485   0.00000  Uiso   1.00
C1626  C     0.90164   0.97784   0.88509   0.00000  Uiso   1.00
C1627  C     0.94617   0.99015   0.87449   0.00000  Uiso   1.00
C1628  C     0.89711   0.74650   0.61902   0.00000  Uiso   1.00
C1629  C     0.90719   0.70593   0.65012   0.00000  Uiso   1.00
C1630  C     0.95351   0.69824   0.65404   0.00000  Uiso   1.00
C1631  C     0.83329   0.83331   0.83511   0.00000  Uiso   1.00
C1632  C     0.80246   0.69149   0.72974   0.00000  Uiso   1.00
C1633  C     0.86435   0.97518   0.76996   0.00000  Uiso   1.00
C1634  C     0.86420   0.69149   0.77026   0.00000  Uiso   1.00
C1635  C     0.80232   0.97518   0.73004   0.00000  Uiso   1.00
C1636  C     0.68795   0.79062   0.74990   0.00000  Uiso   1.00
Cu1637 Cu    0.83333   0.88022   0.75000   0.00000  Uiso   1.00
Cu1638 Cu    0.83333   0.78645   0.75000   0.00000  Uiso   1.00
H1639  H     0.77778   0.71017   0.71340   0.00000  Uiso   1.00
H1640  H     0.96270   0.90940   0.75011   0.00000  Uiso   1.00
H1641  H     0.96269   0.75725   0.75016   0.00000  Uiso   1.00
H1642  H     0.70397   0.90940   0.74992   0.00000  Uiso   1.00
H1643  H     0.75954   0.90934   0.64594   0.00000  Uiso   1.00
H1644  H     0.75457   0.90946   0.58682   0.00000  Uiso   1.00
H1645  H     0.78559   0.99489   0.63936   0.00000  Uiso   1.00
H1646  H     0.77287   0.99202   0.58200   0.00000  Uiso   1.00
H1647  H     0.69935   0.97394   0.60104   0.00000  Uiso   1.00
H1648  H     0.71647   0.69552   0.62453   0.00000  Uiso   1.00
H1649  H     0.71240   0.97749   0.65889   0.00000  Uiso   1.00
H1650  H     0.88925   0.95648   0.78582   0.00000  Uiso   1.00
H1651  H     0.75553   0.77919   0.86721   0.00000  Uiso   1.00
H1652  H     0.75603   0.73907   0.91377   0.00000  Uiso   1.00
H1653  H     0.77205   0.71373   0.81689   0.00000  Uiso   1.00
H1654  H     0.77416   0.67314   0.86226   0.00000  Uiso   1.00
H1655  H     0.70019   0.68902   0.87851   0.00000  Uiso   1.00
H1656  H     0.70687   0.66897   0.82275   0.00000  Uiso   1.00
H1657  H     0.69783   0.73046   0.83344   0.00000  Uiso   1.00
H1658  H     0.90712   0.90935   0.85406   0.00000  Uiso   1.00
H1659  H     0.91209   0.90947   0.91319   0.00000  Uiso   1.00
H1660  H     0.88107   0.99489   0.86064   0.00000  Uiso   1.00
H1661  H     0.88888   0.71017   0.78660   0.00000  Uiso   1.00
H1662  H     0.89378   0.99203   0.91800   0.00000  Uiso   1.00
H1663  H     0.96730   0.97396   0.89897   0.00000  Uiso   1.00
H1664  H     0.95018   0.69554   0.87547   0.00000  Uiso   1.00
H1665  H     0.95425   0.97750   0.84111   0.00000  Uiso   1.00
H1666  H     0.91116   0.77920   0.63270   0.00000  Uiso   1.00
H1667  H     0.91061   0.73899   0.58621   0.00000  Uiso   1.00
H1668  H     0.89465   0.71385   0.68314   0.00000  Uiso   1.00
H1669  H     0.89248   0.67317   0.63784   0.00000  Uiso   1.00
H1670  H     0.96645   0.68897   0.62150   0.00000  Uiso   1.00
H1671  H     0.95980   0.66902   0.67729   0.00000  Uiso   1.00
H1672  H     0.77742   0.95648   0.71418   0.00000  Uiso   1.00
H1673  H     0.96887   0.73048   0.66650   0.00000  Uiso   1.00
H1674  H     0.81300   0.90437   0.52971   0.00000  Uiso   1.00
H1675  H     0.81321   0.76005   0.96925   0.00000  Uiso   1.00
H1676  H     0.85367   0.90437   0.97030   0.00000  Uiso   1.00
H1677  H     0.85346   0.76005   0.53075   0.00000  Uiso   1.00
H1678  H     0.70397   0.75725   0.74980   0.00000  Uiso   1.00
N1679  N     0.83333   0.95069   0.75000   0.00000  Uiso   1.00
N1680  N     0.83333   0.71598   0.75000   0.00000  Uiso   1.00
O1681  O     0.77321   0.87291   0.75000   0.00000  Uiso   1.00
O1682  O     0.81274   0.75064   0.88459   0.00000  Uiso   1.00
O1683  O     0.85186   0.91602   0.88629   0.00000  Uiso   1.00
O1684  O     0.85393   0.75065   0.61541   0.00000  Uiso   1.00
O1685  O     0.89345   0.79375   0.75001   0.00000  Uiso   1.00
O1686  O     0.89345   0.87291   0.75001   0.00000  Uiso   1.00
O1687  O     0.77321   0.79375   0.75000   0.00000  Uiso   1.00
O1688  O     0.83333   0.87293   0.68573   0.00000  Uiso   1.00
O1689  O     0.83334   0.79374   0.81427   0.00000  Uiso   1.00
O1690  O     0.83334   0.87293   0.81427   0.00000  Uiso   1.00
O1691  O     0.83333   0.79374   0.68573   0.00000  Uiso   1.00
O1692  O     0.81480   0.91601   0.61372   0.00000  Uiso   1.00
loop_
_geom_bond_atom_site_label_1
_geom_bond_atom_site_label_2
_geom_bond_distance
_geom_bond_site_symmetry_2
_ccdc_geom_bond_type
C1     C19     1.449   .     S
C1     O89     1.288   .     A
C1     O83     1.288   .     A
C2     C18     1.401   .     A
C2     H42     1.083   .     S
C2     C98     1.383   .     S
C3     H43     1.083   .     S
C3     C18     1.401   .     A
C3     C132    1.383   .     S
C4     C19     1.401   .     A
C4     H44     1.083   .     S
C4     C190    1.383   1_455 S
C5     C16     1.400   .     A
C5     C9      1.392   .     A
C5     H76     1.083   .     S
C6     H77     1.083   .     S
C6     C17     1.400   .     A
C6     C10     1.394   .     A
C7     C11     1.392   .     A
C7     C17     1.400   .     A
C7     H78     1.083   .     S
C8     C13     1.394   .     A
C8     H79     1.083   .     S
C8     C16     1.400   .     A
C9     C14     1.413   .     A
C9     O94     1.383   .     S
C10    C15     1.416   .     A
C10    O84     1.383   .     S
C11    C15     1.413   .     A
C11    O85     1.383   .     S
C12    O88     1.288   .     A
C12    O87     1.288   .     A
C12    C18     1.449   .     S
C13    O86     1.383   .     S
C13    C14     1.416   .     A
C14    C23     1.472   .     S
C15    C33     1.472   .     S
C16    C863    1.473   1_554 S
C17    C862    1.473   .     S
C19    C38     1.401   .     A
C20    H45     1.112   .     S
C20    O94     1.414   .     S
C20    C21     1.529   .     S
C20    H46     1.117   .     S
C21    H48     1.112   .     S
C21    C22     1.525   .     S
C21    H47     1.110   .     S
C22    H49     1.111   .     S
C22    H51     1.111   .     S
C22    H332    1.110   .     S
C23    O93     1.293   .     A
C23    O90     1.294   .     A
C24    H54     1.114   .     S
C24    C25     1.528   .     S
C24    H53     1.117   .     S
C24    O84     1.412   .     S
C25    H56     1.112   .     S
C25    C26     1.525   .     S
C25    H55     1.110   .     S
C26    H59     1.111   .     S
C26    H58     1.111   .     S
C26    H57     1.110   .     S
C27    H60     1.112   .     S
C27    O85     1.414   .     S
C27    H61     1.117   .     S
C27    C28     1.529   .     S
C28    C29     1.525   .     S
C28    H64     1.112   .     S
C28    H62     1.110   .     S
C29    H67     1.111   .     S
C29    H65     1.111   .     S
C29    H348    1.110   .     S
C30    C31     1.528   .     S
C30    O86     1.412   .     S
C30    H69     1.114   .     S
C30    H68     1.117   .     S
C31    H70     1.110   .     S
C31    H71     1.112   .     S
C31    C32     1.525   .     S
C32    H75     1.111   .     S
C32    H72     1.110   .     S
C32    H73     1.111   .     S
C33    O91     1.293   .     A
C33    O92     1.294   .     A
C34    H41     1.081   .     S
C34    N82     1.366   .     A
C34    C601    1.413   1_545 S
C35    N81     1.366   .     A
C35    H52     1.080   .     S
C35    C318    1.413   .     S
C36    N82     1.366   .     A
C36    H63     1.081   .     S
C36    C599    1.413   1_545 S
C37    H74     1.080   .     S
C37    N81     1.366   .     A
C37    C316    1.413   .     S
C38    H80     1.083   .     S
C38    C191    1.383   1_455 S
Cu39   O90     1.968   .     S
Cu39   O88     1.964   .     S
Cu39   N81     2.006   .     S
Cu39   Cu40    2.670   .     S
Cu39   O92     1.968   .     S
Cu39   O83     1.964   .     S
Cu40   O93     1.968   .     S
Cu40   O87     1.964   .     S
Cu40   O89     1.964   .     S
Cu40   N82     2.006   .     S
Cu40   O91     1.968   .     S
H50    C586    1.110   1_545 S
H66    C593    1.110   1_545 S
C95    C113    1.449   .     S
C95    O183    1.288   .     A
C95    O177    1.288   .     A
C96    C112    1.401   .     A
C96    H136    1.083   .     S
C96    C192    1.383   .     S
C97    H137    1.083   .     S
C97    C112    1.401   .     A
C97    C226    1.383   .     S
C98    C113    1.401   .     A
C98    H138    1.083   .     S
C99    C110    1.400   .     A
C99    C103    1.392   .     A
C99    H170    1.083   .     S
C100   H171    1.083   .     S
C100   C111    1.400   .     A
C100   C104    1.394   .     A
C101   C105    1.392   .     A
C101   C111    1.400   .     A
C101   H172    1.083   .     S
C102   C107    1.394   .     A
C102   H173    1.083   .     S
C102   C110    1.400   .     A
C103   C108    1.413   .     A
C103   O188    1.383   .     S
C104   C109    1.416   .     A
C104   O178    1.383   .     S
C105   C109    1.413   .     A
C105   O179    1.383   .     S
C106   O182    1.288   .     A
C106   O181    1.288   .     A
C106   C112    1.449   .     S
C107   O180    1.383   .     S
C107   C108    1.416   .     A
C108   C117    1.472   .     S
C109   C127    1.472   .     S
C110   C957    1.473   1_554 S
C111   C956    1.473   .     S
C113   C132    1.401   .     A
C114   H139    1.112   .     S
C114   O188    1.414   .     S
C114   C115    1.529   .     S
C114   H140    1.117   .     S
C115   H142    1.112   .     S
C115   C116    1.525   .     S
C115   H141    1.110   .     S
C116   H143    1.111   .     S
C116   H145    1.111   .     S
C116   H426    1.110   .     S
C117   O187    1.293   .     A
C117   O184    1.294   .     A
C118   H148    1.114   .     S
C118   C119    1.528   .     S
C118   H147    1.117   .     S
C118   O178    1.412   .     S
C119   H150    1.112   .     S
C119   C120    1.525   .     S
C119   H149    1.110   .     S
C120   H153    1.111   .     S
C120   H152    1.111   .     S
C120   H151    1.110   .     S
C121   H154    1.112   .     S
C121   O179    1.414   .     S
C121   H155    1.117   .     S
C121   C122    1.529   .     S
C122   C123    1.525   .     S
C122   H158    1.112   .     S
C122   H156    1.110   .     S
C123   H161    1.111   .     S
C123   H159    1.111   .     S
C123   H442    1.110   .     S
C124   C125    1.528   .     S
C124   O180    1.412   .     S
C124   H163    1.114   .     S
C124   H162    1.117   .     S
C125   H164    1.110   .     S
C125   H165    1.112   .     S
C125   C126    1.525   .     S
C126   H169    1.111   .     S
C126   H166    1.110   .     S
C126   H167    1.111   .     S
C127   O185    1.293   .     A
C127   O186    1.294   .     A
C128   H135    1.081   .     S
C128   N176    1.366   .     A
C128   C695    1.413   1_545 S
C129   N175    1.366   .     A
C129   H146    1.080   .     S
C129   C412    1.413   .     S
C130   N176    1.366   .     A
C130   H157    1.081   .     S
C130   C693    1.413   1_545 S
C131   H168    1.080   .     S
C131   N175    1.366   .     A
C131   C410    1.413   .     S
C132   H174    1.083   .     S
Cu133  O184    1.968   .     S
Cu133  O182    1.964   .     S
Cu133  N175    2.006   .     S
Cu133  Cu134   2.670   .     S
Cu133  O186    1.968   .     S
Cu133  O177    1.964   .     S
Cu134  O187    1.968   .     S
Cu134  O181    1.964   .     S
Cu134  O183    1.964   .     S
Cu134  N176    2.006   .     S
Cu134  O185    1.968   .     S
H144   C680    1.110   1_545 S
H160   C687    1.110   1_545 S
C189   C207    1.449   .     S
C189   O277    1.288   .     A
C189   O271    1.288   .     A
C190   C206    1.401   .     A
C190   H230    1.083   .     S
C190   C4      1.383   1_655 S
C191   H231    1.083   .     S
C191   C206    1.401   .     A
C191   C38     1.383   1_655 S
C192   C207    1.401   .     A
C192   H232    1.083   .     S
C193   C204    1.400   .     A
C193   C197    1.392   .     A
C193   H264    1.083   .     S
C194   H265    1.083   .     S
C194   C205    1.400   .     A
C194   C198    1.394   .     A
C195   C199    1.392   .     A
C195   C205    1.400   .     A
C195   H266    1.083   .     S
C196   C201    1.394   .     A
C196   H267    1.083   .     S
C196   C204    1.400   .     A
C197   C202    1.413   .     A
C197   O282    1.383   .     S
C198   C203    1.416   .     A
C198   O272    1.383   .     S
C199   C203    1.413   .     A
C199   O273    1.383   .     S
C200   O276    1.288   .     A
C200   O275    1.288   .     A
C200   C206    1.449   .     S
C201   O274    1.383   .     S
C201   C202    1.416   .     A
C202   C211    1.472   .     S
C203   C221    1.472   .     S
C204   C1051   1.473   1_554 S
C205   C1050   1.473   .     S
C207   C226    1.401   .     A
C208   H233    1.112   .     S
C208   O282    1.414   .     S
C208   C209    1.529   .     S
C208   H234    1.117   .     S
C209   H236    1.112   .     S
C209   C210    1.525   .     S
C209   H235    1.110   .     S
C210   H237    1.111   .     S
C210   H239    1.111   .     S
C210   H520    1.110   .     S
C211   O281    1.293   .     A
C211   O278    1.294   .     A
C212   H242    1.114   .     S
C212   C213    1.528   .     S
C212   H241    1.117   .     S
C212   O272    1.412   .     S
C213   H244    1.112   .     S
C213   C214    1.525   .     S
C213   H243    1.110   .     S
C214   H247    1.111   .     S
C214   H246    1.111   .     S
C214   H245    1.110   .     S
C215   H248    1.112   .     S
C215   O273    1.414   .     S
C215   H249    1.117   .     S
C215   C216    1.529   .     S
C216   C217    1.525   .     S
C216   H252    1.112   .     S
C216   H250    1.110   .     S
C217   H255    1.111   .     S
C217   H253    1.111   .     S
C217   H536    1.110   .     S
C218   C219    1.528   .     S
C218   O274    1.412   .     S
C218   H257    1.114   .     S
C218   H256    1.117   .     S
C219   H258    1.110   .     S
C219   H259    1.112   .     S
C219   C220    1.525   .     S
C220   H263    1.111   .     S
C220   H260    1.110   .     S
C220   H261    1.111   .     S
C221   O279    1.293   .     A
C221   O280    1.294   .     A
C222   H229    1.081   .     S
C222   N270    1.366   .     A
C222   C789    1.413   1_545 S
C223   N269    1.366   .     A
C223   H240    1.080   .     S
C223   C506    1.413   .     S
C224   N270    1.366   .     A
C224   H251    1.081   .     S
C224   C787    1.413   1_545 S
C225   H262    1.080   .     S
C225   N269    1.366   .     A
C225   C504    1.413   .     S
C226   H268    1.083   .     S
Cu227  O278    1.968   .     S
Cu227  O276    1.964   .     S
Cu227  N269    2.006   .     S
Cu227  Cu228   2.670   .     S
Cu227  O280    1.968   .     S
Cu227  O271    1.964   .     S
Cu228  O281    1.968   .     S
Cu228  O275    1.964   .     S
Cu228  O277    1.964   .     S
Cu228  N270    2.006   .     S
Cu228  O279    1.968   .     S
H238   C774    1.110   1_545 S
H254   C781    1.110   1_545 S
C283   C301    1.449   .     S
C283   O371    1.288   .     A
C283   O365    1.288   .     A
C284   C300    1.401   .     A
C284   H324    1.083   .     S
C284   C380    1.383   .     S
C285   H325    1.083   .     S
C285   C300    1.401   .     A
C285   C414    1.383   .     S
C286   C301    1.401   .     A
C286   H326    1.083   .     S
C286   C472    1.383   1_455 S
C287   C298    1.400   .     A
C287   C291    1.392   .     A
C287   H358    1.083   .     S
C288   H359    1.083   .     S
C288   C299    1.400   .     A
C288   C292    1.394   .     A
C289   C293    1.392   .     A
C289   C299    1.400   .     A
C289   H360    1.083   .     S
C290   C295    1.394   .     A
C290   H361    1.083   .     S
C290   C298    1.400   .     A
C291   C296    1.413   .     A
C291   O376    1.383   .     S
C292   C297    1.416   .     A
C292   O366    1.383   .     S
C293   C297    1.413   .     A
C293   O367    1.383   .     S
C294   O370    1.288   .     A
C294   O369    1.288   .     A
C294   C300    1.449   .     S
C295   O368    1.383   .     S
C295   C296    1.416   .     A
C296   C305    1.472   .     S
C297   C315    1.472   .     S
C298   C1145   1.473   1_554 S
C299   C1144   1.473   .     S
C301   C320    1.401   .     A
C302   H327    1.112   .     S
C302   O376    1.414   .     S
C302   C303    1.529   .     S
C302   H328    1.117   .     S
C303   H330    1.112   .     S
C303   C304    1.525   .     S
C303   H329    1.110   .     S
C304   H331    1.111   .     S
C304   H333    1.111   .     S
C304   H614    1.110   .     S
C305   O375    1.293   .     A
C305   O372    1.294   .     A
C306   H336    1.114   .     S
C306   C307    1.528   .     S
C306   H335    1.117   .     S
C306   O366    1.412   .     S
C307   H338    1.112   .     S
C307   C308    1.525   .     S
C307   H337    1.110   .     S
C308   H341    1.111   .     S
C308   H340    1.111   .     S
C308   H339    1.110   .     S
C309   H342    1.112   .     S
C309   O367    1.414   .     S
C309   H343    1.117   .     S
C309   C310    1.529   .     S
C310   C311    1.525   .     S
C310   H346    1.112   .     S
C310   H344    1.110   .     S
C311   H349    1.111   .     S
C311   H347    1.111   .     S
C311   H630    1.110   .     S
C312   C313    1.528   .     S
C312   O368    1.412   .     S
C312   H351    1.114   .     S
C312   H350    1.117   .     S
C313   H352    1.110   .     S
C313   H353    1.112   .     S
C313   C314    1.525   .     S
C314   H357    1.111   .     S
C314   H354    1.110   .     S
C314   H355    1.111   .     S
C315   O373    1.293   .     A
C315   O374    1.294   .     A
C316   H323    1.081   .     S
C316   N364    1.366   .     A
C317   N363    1.366   .     A
C317   H334    1.080   .     S
C317   C600    1.413   .     S
C318   N364    1.366   .     A
C318   H345    1.081   .     S
C319   H356    1.080   .     S
C319   N363    1.366   .     A
C319   C598    1.413   .     S
C320   H362    1.083   .     S
C320   C473    1.383   1_455 S
Cu321  O372    1.968   .     S
Cu321  O370    1.964   .     S
Cu321  N363    2.006   .     S
Cu321  Cu322   2.670   .     S
Cu321  O374    1.968   .     S
Cu321  O365    1.964   .     S
Cu322  O375    1.968   .     S
Cu322  O369    1.964   .     S
Cu322  O371    1.964   .     S
Cu322  N364    2.006   .     S
Cu322  O373    1.968   .     S
C377   C395    1.449   .     S
C377   O465    1.288   .     A
C377   O459    1.288   .     A
C378   C394    1.401   .     A
C378   H418    1.083   .     S
C378   C474    1.383   .     S
C379   H419    1.083   .     S
C379   C394    1.401   .     A
C379   C508    1.383   .     S
C380   C395    1.401   .     A
C380   H420    1.083   .     S
C381   C392    1.400   .     A
C381   C385    1.392   .     A
C381   H452    1.083   .     S
C382   H453    1.083   .     S
C382   C393    1.400   .     A
C382   C386    1.394   .     A
C383   C387    1.392   .     A
C383   C393    1.400   .     A
C383   H454    1.083   .     S
C384   C389    1.394   .     A
C384   H455    1.083   .     S
C384   C392    1.400   .     A
C385   C390    1.413   .     A
C385   O470    1.383   .     S
C386   C391    1.416   .     A
C386   O460    1.383   .     S
C387   C391    1.413   .     A
C387   O461    1.383   .     S
C388   O464    1.288   .     A
C388   O463    1.288   .     A
C388   C394    1.449   .     S
C389   O462    1.383   .     S
C389   C390    1.416   .     A
C390   C399    1.472   .     S
C391   C409    1.472   .     S
C392   C1239   1.473   1_554 S
C393   C1238   1.473   .     S
C395   C414    1.401   .     A
C396   H421    1.112   .     S
C396   O470    1.414   .     S
C396   C397    1.529   .     S
C396   H422    1.117   .     S
C397   H424    1.112   .     S
C397   C398    1.525   .     S
C397   H423    1.110   .     S
C398   H425    1.111   .     S
C398   H427    1.111   .     S
C398   H708    1.110   .     S
C399   O469    1.293   .     A
C399   O466    1.294   .     A
C400   H430    1.114   .     S
C400   C401    1.528   .     S
C400   H429    1.117   .     S
C400   O460    1.412   .     S
C401   H432    1.112   .     S
C401   C402    1.525   .     S
C401   H431    1.110   .     S
C402   H435    1.111   .     S
C402   H434    1.111   .     S
C402   H433    1.110   .     S
C403   H436    1.112   .     S
C403   O461    1.414   .     S
C403   H437    1.117   .     S
C403   C404    1.529   .     S
C404   C405    1.525   .     S
C404   H440    1.112   .     S
C404   H438    1.110   .     S
C405   H443    1.111   .     S
C405   H441    1.111   .     S
C405   H724    1.110   .     S
C406   C407    1.528   .     S
C406   O462    1.412   .     S
C406   H445    1.114   .     S
C406   H444    1.117   .     S
C407   H446    1.110   .     S
C407   H447    1.112   .     S
C407   C408    1.525   .     S
C408   H451    1.111   .     S
C408   H448    1.110   .     S
C408   H449    1.111   .     S
C409   O467    1.293   .     A
C409   O468    1.294   .     A
C410   H417    1.081   .     S
C410   N458    1.366   .     A
C411   N457    1.366   .     A
C411   H428    1.080   .     S
C411   C694    1.413   .     S
C412   N458    1.366   .     A
C412   H439    1.081   .     S
C413   H450    1.080   .     S
C413   N457    1.366   .     A
C413   C692    1.413   .     S
C414   H456    1.083   .     S
Cu415  O466    1.968   .     S
Cu415  O464    1.964   .     S
Cu415  N457    2.006   .     S
Cu415  Cu416   2.670   .     S
Cu415  O468    1.968   .     S
Cu415  O459    1.964   .     S
Cu416  O469    1.968   .     S
Cu416  O463    1.964   .     S
Cu416  O465    1.964   .     S
Cu416  N458    2.006   .     S
Cu416  O467    1.968   .     S
C471   C489    1.449   .     S
C471   O559    1.288   .     A
C471   O553    1.288   .     A
C472   C488    1.401   .     A
C472   H512    1.083   .     S
C472   C286    1.383   1_655 S
C473   H513    1.083   .     S
C473   C488    1.401   .     A
C473   C320    1.383   1_655 S
C474   C489    1.401   .     A
C474   H514    1.083   .     S
C475   C486    1.400   .     A
C475   C479    1.392   .     A
C475   H546    1.083   .     S
C476   H547    1.083   .     S
C476   C487    1.400   .     A
C476   C480    1.394   .     A
C477   C481    1.392   .     A
C477   C487    1.400   .     A
C477   H548    1.083   .     S
C478   C483    1.394   .     A
C478   H549    1.083   .     S
C478   C486    1.400   .     A
C479   C484    1.413   .     A
C479   O564    1.383   .     S
C480   C485    1.416   .     A
C480   O554    1.383   .     S
C481   C485    1.413   .     A
C481   O555    1.383   .     S
C482   O558    1.288   .     A
C482   O557    1.288   .     A
C482   C488    1.449   .     S
C483   O556    1.383   .     S
C483   C484    1.416   .     A
C484   C493    1.472   .     S
C485   C503    1.472   .     S
C486   C1333   1.473   1_554 S
C487   C1332   1.473   .     S
C489   C508    1.401   .     A
C490   H515    1.112   .     S
C490   O564    1.414   .     S
C490   C491    1.529   .     S
C490   H516    1.117   .     S
C491   H518    1.112   .     S
C491   C492    1.525   .     S
C491   H517    1.110   .     S
C492   H519    1.111   .     S
C492   H521    1.111   .     S
C492   H802    1.110   .     S
C493   O563    1.293   .     A
C493   O560    1.294   .     A
C494   H524    1.114   .     S
C494   C495    1.528   .     S
C494   H523    1.117   .     S
C494   O554    1.412   .     S
C495   H526    1.112   .     S
C495   C496    1.525   .     S
C495   H525    1.110   .     S
C496   H529    1.111   .     S
C496   H528    1.111   .     S
C496   H527    1.110   .     S
C497   H530    1.112   .     S
C497   O555    1.414   .     S
C497   H531    1.117   .     S
C497   C498    1.529   .     S
C498   C499    1.525   .     S
C498   H534    1.112   .     S
C498   H532    1.110   .     S
C499   H537    1.111   .     S
C499   H535    1.111   .     S
C499   H818    1.110   .     S
C500   C501    1.528   .     S
C500   O556    1.412   .     S
C500   H539    1.114   .     S
C500   H538    1.117   .     S
C501   H540    1.110   .     S
C501   H541    1.112   .     S
C501   C502    1.525   .     S
C502   H545    1.111   .     S
C502   H542    1.110   .     S
C502   H543    1.111   .     S
C503   O561    1.293   .     A
C503   O562    1.294   .     A
C504   H511    1.081   .     S
C504   N552    1.366   .     A
C505   N551    1.366   .     A
C505   H522    1.080   .     S
C505   C788    1.413   .     S
C506   N552    1.366   .     A
C506   H533    1.081   .     S
C507   H544    1.080   .     S
C507   N551    1.366   .     A
C507   C786    1.413   .     S
C508   H550    1.083   .     S
Cu509  O560    1.968   .     S
Cu509  O558    1.964   .     S
Cu509  N551    2.006   .     S
Cu509  Cu510   2.670   .     S
Cu509  O562    1.968   .     S
Cu509  O553    1.964   .     S
Cu510  O563    1.968   .     S
Cu510  O557    1.964   .     S
Cu510  O559    1.964   .     S
Cu510  N552    2.006   .     S
Cu510  O561    1.968   .     S
C565   C583    1.449   .     S
C565   O653    1.288   .     A
C565   O647    1.288   .     A
C566   C582    1.401   .     A
C566   H606    1.083   .     S
C566   C662    1.383   .     S
C567   H607    1.083   .     S
C567   C582    1.401   .     A
C567   C696    1.383   .     S
C568   C583    1.401   .     A
C568   H608    1.083   .     S
C568   C754    1.383   1_455 S
C569   C580    1.400   .     A
C569   C573    1.392   .     A
C569   H640    1.083   .     S
C570   H641    1.083   .     S
C570   C581    1.400   .     A
C570   C574    1.394   .     A
C571   C575    1.392   .     A
C571   C581    1.400   .     A
C571   H642    1.083   .     S
C572   C577    1.394   .     A
C572   H643    1.083   .     S
C572   C580    1.400   .     A
C573   C578    1.413   .     A
C573   O658    1.383   .     S
C574   C579    1.416   .     A
C574   O648    1.383   .     S
C575   C579    1.413   .     A
C575   O649    1.383   .     S
C576   O652    1.288   .     A
C576   O651    1.288   .     A
C576   C582    1.449   .     S
C577   O650    1.383   .     S
C577   C578    1.416   .     A
C578   C587    1.472   .     S
C579   C597    1.472   .     S
C580   C1427   1.473   1_554 S
C581   C1426   1.473   .     S
C583   C602    1.401   .     A
C584   H609    1.112   .     S
C584   O658    1.414   .     S
C584   C585    1.529   .     S
C584   H610    1.117   .     S
C585   H612    1.112   .     S
C585   C586    1.525   .     S
C585   H611    1.110   .     S
C586   H613    1.111   .     S
C586   H615    1.111   .     S
C586   H50     1.110   1_565 S
C587   O657    1.293   .     A
C587   O654    1.294   .     A
C588   H618    1.114   .     S
C588   C589    1.528   .     S
C588   H617    1.117   .     S
C588   O648    1.412   .     S
C589   H620    1.112   .     S
C589   C590    1.525   .     S
C589   H619    1.110   .     S
C590   H623    1.111   .     S
C590   H622    1.111   .     S
C590   H621    1.110   .     S
C591   H624    1.112   .     S
C591   O649    1.414   .     S
C591   H625    1.117   .     S
C591   C592    1.529   .     S
C592   C593    1.525   .     S
C592   H628    1.112   .     S
C592   H626    1.110   .     S
C593   H631    1.111   .     S
C593   H629    1.111   .     S
C593   H66     1.110   1_565 S
C594   C595    1.528   .     S
C594   O650    1.412   .     S
C594   H633    1.114   .     S
C594   H632    1.117   .     S
C595   H634    1.110   .     S
C595   H635    1.112   .     S
C595   C596    1.525   .     S
C596   H639    1.111   .     S
C596   H636    1.110   .     S
C596   H637    1.111   .     S
C597   O655    1.293   .     A
C597   O656    1.294   .     A
C598   H605    1.081   .     S
C598   N646    1.366   .     A
C599   N645    1.366   .     A
C599   H616    1.080   .     S
C599   C36     1.413   1_565 S
C600   N646    1.366   .     A
C600   H627    1.081   .     S
C601   H638    1.080   .     S
C601   N645    1.366   .     A
C601   C34     1.413   1_565 S
C602   H644    1.083   .     S
C602   C755    1.383   1_455 S
Cu603  O654    1.968   .     S
Cu603  O652    1.964   .     S
Cu603  N645    2.006   .     S
Cu603  Cu604   2.670   .     S
Cu603  O656    1.968   .     S
Cu603  O647    1.964   .     S
Cu604  O657    1.968   .     S
Cu604  O651    1.964   .     S
Cu604  O653    1.964   .     S
Cu604  N646    2.006   .     S
Cu604  O655    1.968   .     S
C659   C677    1.449   .     S
C659   O747    1.288   .     A
C659   O741    1.288   .     A
C660   C676    1.401   .     A
C660   H700    1.083   .     S
C660   C756    1.383   .     S
C661   H701    1.083   .     S
C661   C676    1.401   .     A
C661   C790    1.383   .     S
C662   C677    1.401   .     A
C662   H702    1.083   .     S
C663   C674    1.400   .     A
C663   C667    1.392   .     A
C663   H734    1.083   .     S
C664   H735    1.083   .     S
C664   C675    1.400   .     A
C664   C668    1.394   .     A
C665   C669    1.392   .     A
C665   C675    1.400   .     A
C665   H736    1.083   .     S
C666   C671    1.394   .     A
C666   H737    1.083   .     S
C666   C674    1.400   .     A
C667   C672    1.413   .     A
C667   O752    1.383   .     S
C668   C673    1.416   .     A
C668   O742    1.383   .     S
C669   C673    1.413   .     A
C669   O743    1.383   .     S
C670   O746    1.288   .     A
C670   O745    1.288   .     A
C670   C676    1.449   .     S
C671   O744    1.383   .     S
C671   C672    1.416   .     A
C672   C681    1.472   .     S
C673   C691    1.472   .     S
C674   C1521   1.473   1_554 S
C675   C1520   1.473   .     S
C677   C696    1.401   .     A
C678   H703    1.112   .     S
C678   O752    1.414   .     S
C678   C679    1.529   .     S
C678   H704    1.117   .     S
C679   H706    1.112   .     S
C679   C680    1.525   .     S
C679   H705    1.110   .     S
C680   H707    1.111   .     S
C680   H709    1.111   .     S
C680   H144    1.110   1_565 S
C681   O751    1.293   .     A
C681   O748    1.294   .     A
C682   H712    1.114   .     S
C682   C683    1.528   .     S
C682   H711    1.117   .     S
C682   O742    1.412   .     S
C683   H714    1.112   .     S
C683   C684    1.525   .     S
C683   H713    1.110   .     S
C684   H717    1.111   .     S
C684   H716    1.111   .     S
C684   H715    1.110   .     S
C685   H718    1.112   .     S
C685   O743    1.414   .     S
C685   H719    1.117   .     S
C685   C686    1.529   .     S
C686   C687    1.525   .     S
C686   H722    1.112   .     S
C686   H720    1.110   .     S
C687   H725    1.111   .     S
C687   H723    1.111   .     S
C687   H160    1.110   1_565 S
C688   C689    1.528   .     S
C688   O744    1.412   .     S
C688   H727    1.114   .     S
C688   H726    1.117   .     S
C689   H728    1.110   .     S
C689   H729    1.112   .     S
C689   C690    1.525   .     S
C690   H733    1.111   .     S
C690   H730    1.110   .     S
C690   H731    1.111   .     S
C691   O749    1.293   .     A
C691   O750    1.294   .     A
C692   H699    1.081   .     S
C692   N740    1.366   .     A
C693   N739    1.366   .     A
C693   H710    1.080   .     S
C693   C130    1.413   1_565 S
C694   N740    1.366   .     A
C694   H721    1.081   .     S
C695   H732    1.080   .     S
C695   N739    1.366   .     A
C695   C128    1.413   1_565 S
C696   H738    1.083   .     S
Cu697  O748    1.968   .     S
Cu697  O746    1.964   .     S
Cu697  N739    2.006   .     S
Cu697  Cu698   2.670   .     S
Cu697  O750    1.968   .     S
Cu697  O741    1.964   .     S
Cu698  O751    1.968   .     S
Cu698  O745    1.964   .     S
Cu698  O747    1.964   .     S
Cu698  N740    2.006   .     S
Cu698  O749    1.968   .     S
C753   C771    1.449   .     S
C753   O841    1.288   .     A
C753   O835    1.288   .     A
C754   C770    1.401   .     A
C754   H794    1.083   .     S
C754   C568    1.383   1_655 S
C755   H795    1.083   .     S
C755   C770    1.401   .     A
C755   C602    1.383   1_655 S
C756   C771    1.401   .     A
C756   H796    1.083   .     S
C757   C768    1.400   .     A
C757   C761    1.392   .     A
C757   H828    1.083   .     S
C758   H829    1.083   .     S
C758   C769    1.400   .     A
C758   C762    1.394   .     A
C759   C763    1.392   .     A
C759   C769    1.400   .     A
C759   H830    1.083   .     S
C760   C765    1.394   .     A
C760   H831    1.083   .     S
C760   C768    1.400   .     A
C761   C766    1.413   .     A
C761   O846    1.383   .     S
C762   C767    1.416   .     A
C762   O836    1.383   .     S
C763   C767    1.413   .     A
C763   O837    1.383   .     S
C764   O840    1.288   .     A
C764   O839    1.288   .     A
C764   C770    1.449   .     S
C765   O838    1.383   .     S
C765   C766    1.416   .     A
C766   C775    1.472   .     S
C767   C785    1.472   .     S
C768   C1615   1.473   1_554 S
C769   C1614   1.473   .     S
C771   C790    1.401   .     A
C772   H797    1.112   .     S
C772   O846    1.414   .     S
C772   C773    1.529   .     S
C772   H798    1.117   .     S
C773   H800    1.112   .     S
C773   C774    1.525   .     S
C773   H799    1.110   .     S
C774   H801    1.111   .     S
C774   H803    1.111   .     S
C774   H238    1.110   1_565 S
C775   O845    1.293   .     A
C775   O842    1.294   .     A
C776   H806    1.114   .     S
C776   C777    1.528   .     S
C776   H805    1.117   .     S
C776   O836    1.412   .     S
C777   H808    1.112   .     S
C777   C778    1.525   .     S
C777   H807    1.110   .     S
C778   H811    1.111   .     S
C778   H810    1.111   .     S
C778   H809    1.110   .     S
C779   H812    1.112   .     S
C779   O837    1.414   .     S
C779   H813    1.117   .     S
C779   C780    1.529   .     S
C780   C781    1.525   .     S
C780   H816    1.112   .     S
C780   H814    1.110   .     S
C781   H819    1.111   .     S
C781   H817    1.111   .     S
C781   H254    1.110   1_565 S
C782   C783    1.528   .     S
C782   O838    1.412   .     S
C782   H821    1.114   .     S
C782   H820    1.117   .     S
C783   H822    1.110   .     S
C783   H823    1.112   .     S
C783   C784    1.525   .     S
C784   H827    1.111   .     S
C784   H824    1.110   .     S
C784   H825    1.111   .     S
C785   O843    1.293   .     A
C785   O844    1.294   .     A
C786   H793    1.081   .     S
C786   N834    1.366   .     A
C787   N833    1.366   .     A
C787   H804    1.080   .     S
C787   C224    1.413   1_565 S
C788   N834    1.366   .     A
C788   H815    1.081   .     S
C789   H826    1.080   .     S
C789   N833    1.366   .     A
C789   C222    1.413   1_565 S
C790   H832    1.083   .     S
Cu791  O842    1.968   .     S
Cu791  O840    1.964   .     S
Cu791  N833    2.006   .     S
Cu791  Cu792   2.670   .     S
Cu791  O844    1.968   .     S
Cu791  O835    1.964   .     S
Cu792  O845    1.968   .     S
Cu792  O839    1.964   .     S
Cu792  O841    1.964   .     S
Cu792  N834    2.006   .     S
Cu792  O843    1.968   .     S
C847   C865    1.449   .     S
C847   O935    1.288   .     A
C847   O929    1.288   .     A
C848   C864    1.401   .     A
C848   H888    1.083   .     S
C848   C944    1.383   .     S
C849   H889    1.083   .     S
C849   C864    1.401   .     A
C849   C978    1.383   .     S
C850   C865    1.401   .     A
C850   H890    1.083   .     S
C850   C1036   1.383   1_455 S
C851   C862    1.400   .     A
C851   C855    1.392   .     A
C851   H922    1.083   .     S
C852   H923    1.083   .     S
C852   C863    1.400   .     A
C852   C856    1.394   .     A
C853   C857    1.392   .     A
C853   C863    1.400   .     A
C853   H924    1.083   .     S
C854   C859    1.394   .     A
C854   H925    1.083   .     S
C854   C862    1.400   .     A
C855   C860    1.413   .     A
C855   O940    1.383   .     S
C856   C861    1.416   .     A
C856   O930    1.383   .     S
C857   C861    1.413   .     A
C857   O931    1.383   .     S
C858   O934    1.288   .     A
C858   O933    1.288   .     A
C858   C864    1.449   .     S
C859   O932    1.383   .     S
C859   C860    1.416   .     A
C860   C869    1.472   .     S
C861   C879    1.472   .     S
C863   C16     1.473   1_556 S
C865   C884    1.401   .     A
C866   H891    1.112   .     S
C866   O940    1.414   .     S
C866   C867    1.529   .     S
C866   H892    1.117   .     S
C867   H894    1.112   .     S
C867   C868    1.525   .     S
C867   H893    1.110   .     S
C868   H895    1.111   .     S
C868   H897    1.111   .     S
C868   H1178   1.110   .     S
C869   O939    1.293   .     A
C869   O936    1.294   .     A
C870   H900    1.114   .     S
C870   C871    1.528   .     S
C870   H899    1.117   .     S
C870   O930    1.412   .     S
C871   H902    1.112   .     S
C871   C872    1.525   .     S
C871   H901    1.110   .     S
C872   H905    1.111   .     S
C872   H904    1.111   .     S
C872   H903    1.110   .     S
C873   H906    1.112   .     S
C873   O931    1.414   .     S
C873   H907    1.117   .     S
C873   C874    1.529   .     S
C874   C875    1.525   .     S
C874   H910    1.112   .     S
C874   H908    1.110   .     S
C875   H913    1.111   .     S
C875   H911    1.111   .     S
C875   H1194   1.110   .     S
C876   C877    1.528   .     S
C876   O932    1.412   .     S
C876   H915    1.114   .     S
C876   H914    1.117   .     S
C877   H916    1.110   .     S
C877   H917    1.112   .     S
C877   C878    1.525   .     S
C878   H921    1.111   .     S
C878   H918    1.110   .     S
C878   H919    1.111   .     S
C879   O937    1.293   .     A
C879   O938    1.294   .     A
C880   H887    1.081   .     S
C880   N928    1.366   .     A
C880   C1447   1.413   1_545 S
C881   N927    1.366   .     A
C881   H898    1.080   .     S
C881   C1164   1.413   .     S
C882   N928    1.366   .     A
C882   H909    1.081   .     S
C882   C1445   1.413   1_545 S
C883   H920    1.080   .     S
C883   N927    1.366   .     A
C883   C1162   1.413   .     S
C884   H926    1.083   .     S
C884   C1037   1.383   1_455 S
Cu885  O936    1.968   .     S
Cu885  O934    1.964   .     S
Cu885  N927    2.006   .     S
Cu885  Cu886   2.670   .     S
Cu885  O938    1.968   .     S
Cu885  O929    1.964   .     S
Cu886  O939    1.968   .     S
Cu886  O933    1.964   .     S
Cu886  O935    1.964   .     S
Cu886  N928    2.006   .     S
Cu886  O937    1.968   .     S
H896   C1432   1.110   1_545 S
H912   C1439   1.110   1_545 S
C941   C959    1.449   .     S
C941   O1029   1.288   .     A
C941   O1023   1.288   .     A
C942   C958    1.401   .     A
C942   H982    1.083   .     S
C942   C1038   1.383   .     S
C943   H983    1.083   .     S
C943   C958    1.401   .     A
C943   C1072   1.383   .     S
C944   C959    1.401   .     A
C944   H984    1.083   .     S
C945   C956    1.400   .     A
C945   C949    1.392   .     A
C945   H1016   1.083   .     S
C946   H1017   1.083   .     S
C946   C957    1.400   .     A
C946   C950    1.394   .     A
C947   C951    1.392   .     A
C947   C957    1.400   .     A
C947   H1018   1.083   .     S
C948   C953    1.394   .     A
C948   H1019   1.083   .     S
C948   C956    1.400   .     A
C949   C954    1.413   .     A
C949   O1034   1.383   .     S
C950   C955    1.416   .     A
C950   O1024   1.383   .     S
C951   C955    1.413   .     A
C951   O1025   1.383   .     S
C952   O1028   1.288   .     A
C952   O1027   1.288   .     A
C952   C958    1.449   .     S
C953   O1026   1.383   .     S
C953   C954    1.416   .     A
C954   C963    1.472   .     S
C955   C973    1.472   .     S
C957   C110    1.473   1_556 S
C959   C978    1.401   .     A
C960   H985    1.112   .     S
C960   O1034   1.414   .     S
C960   C961    1.529   .     S
C960   H986    1.117   .     S
C961   H988    1.112   .     S
C961   C962    1.525   .     S
C961   H987    1.110   .     S
C962   H989    1.111   .     S
C962   H991    1.111   .     S
C962   H1272   1.110   .     S
C963   O1033   1.293   .     A
C963   O1030   1.294   .     A
C964   H994    1.114   .     S
C964   C965    1.528   .     S
C964   H993    1.117   .     S
C964   O1024   1.412   .     S
C965   H996    1.112   .     S
C965   C966    1.525   .     S
C965   H995    1.110   .     S
C966   H999    1.111   .     S
C966   H998    1.111   .     S
C966   H997    1.110   .     S
C967   H1000   1.112   .     S
C967   O1025   1.414   .     S
C967   H1001   1.117   .     S
C967   C968    1.529   .     S
C968   C969    1.525   .     S
C968   H1004   1.112   .     S
C968   H1002   1.110   .     S
C969   H1007   1.111   .     S
C969   H1005   1.111   .     S
C969   H1288   1.110   .     S
C970   C971    1.528   .     S
C970   O1026   1.412   .     S
C970   H1009   1.114   .     S
C970   H1008   1.117   .     S
C971   H1010   1.110   .     S
C971   H1011   1.112   .     S
C971   C972    1.525   .     S
C972   H1015   1.111   .     S
C972   H1012   1.110   .     S
C972   H1013   1.111   .     S
C973   O1031   1.293   .     A
C973   O1032   1.294   .     A
C974   H981    1.081   .     S
C974   N1022   1.366   .     A
C974   C1541   1.413   1_545 S
C975   N1021   1.366   .     A
C975   H992    1.080   .     S
C975   C1258   1.413   .     S
C976   N1022   1.366   .     A
C976   H1003   1.081   .     S
C976   C1539   1.413   1_545 S
C977   H1014   1.080   .     S
C977   N1021   1.366   .     A
C977   C1256   1.413   .     S
C978   H1020   1.083   .     S
Cu979  O1030   1.968   .     S
Cu979  O1028   1.964   .     S
Cu979  N1021   2.006   .     S
Cu979  Cu980   2.670   .     S
Cu979  O1032   1.968   .     S
Cu979  O1023   1.964   .     S
Cu980  O1033   1.968   .     S
Cu980  O1027   1.964   .     S
Cu980  O1029   1.964   .     S
Cu980  N1022   2.006   .     S
Cu980  O1031   1.968   .     S
H990   C1526   1.110   1_545 S
H1006  C1533   1.110   1_545 S
C1035  C1053   1.449   .     S
C1035  O1123   1.288   .     A
C1035  O1117   1.288   .     A
C1036  C1052   1.401   .     A
C1036  H1076   1.083   .     S
C1036  C850    1.383   1_655 S
C1037  H1077   1.083   .     S
C1037  C1052   1.401   .     A
C1037  C884    1.383   1_655 S
C1038  C1053   1.401   .     A
C1038  H1078   1.083   .     S
C1039  C1050   1.400   .     A
C1039  C1043   1.392   .     A
C1039  H1110   1.083   .     S
C1040  H1111   1.083   .     S
C1040  C1051   1.400   .     A
C1040  C1044   1.394   .     A
C1041  C1045   1.392   .     A
C1041  C1051   1.400   .     A
C1041  H1112   1.083   .     S
C1042  C1047   1.394   .     A
C1042  H1113   1.083   .     S
C1042  C1050   1.400   .     A
C1043  C1048   1.413   .     A
C1043  O1128   1.383   .     S
C1044  C1049   1.416   .     A
C1044  O1118   1.383   .     S
C1045  C1049   1.413   .     A
C1045  O1119   1.383   .     S
C1046  O1122   1.288   .     A
C1046  O1121   1.288   .     A
C1046  C1052   1.449   .     S
C1047  O1120   1.383   .     S
C1047  C1048   1.416   .     A
C1048  C1057   1.472   .     S
C1049  C1067   1.472   .     S
C1051  C204    1.473   1_556 S
C1053  C1072   1.401   .     A
C1054  H1079   1.112   .     S
C1054  O1128   1.414   .     S
C1054  C1055   1.529   .     S
C1054  H1080   1.117   .     S
C1055  H1082   1.112   .     S
C1055  C1056   1.525   .     S
C1055  H1081   1.110   .     S
C1056  H1083   1.111   .     S
C1056  H1085   1.111   .     S
C1056  H1366   1.110   .     S
C1057  O1127   1.293   .     A
C1057  O1124   1.294   .     A
C1058  H1088   1.114   .     S
C1058  C1059   1.528   .     S
C1058  H1087   1.117   .     S
C1058  O1118   1.412   .     S
C1059  H1090   1.112   .     S
C1059  C1060   1.525   .     S
C1059  H1089   1.110   .     S
C1060  H1093   1.111   .     S
C1060  H1092   1.111   .     S
C1060  H1091   1.110   .     S
C1061  H1094   1.112   .     S
C1061  O1119   1.414   .     S
C1061  H1095   1.117   .     S
C1061  C1062   1.529   .     S
C1062  C1063   1.525   .     S
C1062  H1098   1.112   .     S
C1062  H1096   1.110   .     S
C1063  H1101   1.111   .     S
C1063  H1099   1.111   .     S
C1063  H1382   1.110   .     S
C1064  C1065   1.528   .     S
C1064  O1120   1.412   .     S
C1064  H1103   1.114   .     S
C1064  H1102   1.117   .     S
C1065  H1104   1.110   .     S
C1065  H1105   1.112   .     S
C1065  C1066   1.525   .     S
C1066  H1109   1.111   .     S
C1066  H1106   1.110   .     S
C1066  H1107   1.111   .     S
C1067  O1125   1.293   .     A
C1067  O1126   1.294   .     A
C1068  H1075   1.081   .     S
C1068  N1116   1.366   .     A
C1068  C1635   1.413   1_545 S
C1069  N1115   1.366   .     A
C1069  H1086   1.080   .     S
C1069  C1352   1.413   .     S
C1070  N1116   1.366   .     A
C1070  H1097   1.081   .     S
C1070  C1633   1.413   1_545 S
C1071  H1108   1.080   .     S
C1071  N1115   1.366   .     A
C1071  C1350   1.413   .     S
C1072  H1114   1.083   .     S
Cu1073 O1124   1.968   .     S
Cu1073 O1122   1.964   .     S
Cu1073 N1115   2.006   .     S
Cu1073 Cu1074  2.670   .     S
Cu1073 O1126   1.968   .     S
Cu1073 O1117   1.964   .     S
Cu1074 O1127   1.968   .     S
Cu1074 O1121   1.964   .     S
Cu1074 O1123   1.964   .     S
Cu1074 N1116   2.006   .     S
Cu1074 O1125   1.968   .     S
H1084  C1620   1.110   1_545 S
H1100  C1627   1.110   1_545 S
C1129  C1147   1.449   .     S
C1129  O1217   1.288   .     A
C1129  O1211   1.288   .     A
C1130  C1146   1.401   .     A
C1130  H1170   1.083   .     S
C1130  C1226   1.383   .     S
C1131  H1171   1.083   .     S
C1131  C1146   1.401   .     A
C1131  C1260   1.383   .     S
C1132  C1147   1.401   .     A
C1132  H1172   1.083   .     S
C1132  C1318   1.383   1_455 S
C1133  C1144   1.400   .     A
C1133  C1137   1.392   .     A
C1133  H1204   1.083   .     S
C1134  H1205   1.083   .     S
C1134  C1145   1.400   .     A
C1134  C1138   1.394   .     A
C1135  C1139   1.392   .     A
C1135  C1145   1.400   .     A
C1135  H1206   1.083   .     S
C1136  C1141   1.394   .     A
C1136  H1207   1.083   .     S
C1136  C1144   1.400   .     A
C1137  C1142   1.413   .     A
C1137  O1222   1.383   .     S
C1138  C1143   1.416   .     A
C1138  O1212   1.383   .     S
C1139  C1143   1.413   .     A
C1139  O1213   1.383   .     S
C1140  O1216   1.288   .     A
C1140  O1215   1.288   .     A
C1140  C1146   1.449   .     S
C1141  O1214   1.383   .     S
C1141  C1142   1.416   .     A
C1142  C1151   1.472   .     S
C1143  C1161   1.472   .     S
C1145  C298    1.473   1_556 S
C1147  C1166   1.401   .     A
C1148  H1173   1.112   .     S
C1148  O1222   1.414   .     S
C1148  C1149   1.529   .     S
C1148  H1174   1.117   .     S
C1149  H1176   1.112   .     S
C1149  C1150   1.525   .     S
C1149  H1175   1.110   .     S
C1150  H1177   1.111   .     S
C1150  H1179   1.111   .     S
C1150  H1460   1.110   .     S
C1151  O1221   1.293   .     A
C1151  O1218   1.294   .     A
C1152  H1182   1.114   .     S
C1152  C1153   1.528   .     S
C1152  H1181   1.117   .     S
C1152  O1212   1.412   .     S
C1153  H1184   1.112   .     S
C1153  C1154   1.525   .     S
C1153  H1183   1.110   .     S
C1154  H1187   1.111   .     S
C1154  H1186   1.111   .     S
C1154  H1185   1.110   .     S
C1155  H1188   1.112   .     S
C1155  O1213   1.414   .     S
C1155  H1189   1.117   .     S
C1155  C1156   1.529   .     S
C1156  C1157   1.525   .     S
C1156  H1192   1.112   .     S
C1156  H1190   1.110   .     S
C1157  H1195   1.111   .     S
C1157  H1193   1.111   .     S
C1157  H1476   1.110   .     S
C1158  C1159   1.528   .     S
C1158  O1214   1.412   .     S
C1158  H1197   1.114   .     S
C1158  H1196   1.117   .     S
C1159  H1198   1.110   .     S
C1159  H1199   1.112   .     S
C1159  C1160   1.525   .     S
C1160  H1203   1.111   .     S
C1160  H1200   1.110   .     S
C1160  H1201   1.111   .     S
C1161  O1219   1.293   .     A
C1161  O1220   1.294   .     A
C1162  H1169   1.081   .     S
C1162  N1210   1.366   .     A
C1163  N1209   1.366   .     A
C1163  H1180   1.080   .     S
C1163  C1446   1.413   .     S
C1164  N1210   1.366   .     A
C1164  H1191   1.081   .     S
C1165  H1202   1.080   .     S
C1165  N1209   1.366   .     A
C1165  C1444   1.413   .     S
C1166  H1208   1.083   .     S
C1166  C1319   1.383   1_455 S
Cu1167 O1218   1.968   .     S
Cu1167 O1216   1.964   .     S
Cu1167 N1209   2.006   .     S
Cu1167 Cu1168  2.670   .     S
Cu1167 O1220   1.968   .     S
Cu1167 O1211   1.964   .     S
Cu1168 O1221   1.968   .     S
Cu1168 O1215   1.964   .     S
Cu1168 O1217   1.964   .     S
Cu1168 N1210   2.006   .     S
Cu1168 O1219   1.968   .     S
C1223  C1241   1.449   .     S
C1223  O1311   1.288   .     A
C1223  O1305   1.288   .     A
C1224  C1240   1.401   .     A
C1224  H1264   1.083   .     S
C1224  C1320   1.383   .     S
C1225  H1265   1.083   .     S
C1225  C1240   1.401   .     A
C1225  C1354   1.383   .     S
C1226  C1241   1.401   .     A
C1226  H1266   1.083   .     S
C1227  C1238   1.400   .     A
C1227  C1231   1.392   .     A
C1227  H1298   1.083   .     S
C1228  H1299   1.083   .     S
C1228  C1239   1.400   .     A
C1228  C1232   1.394   .     A
C1229  C1233   1.392   .     A
C1229  C1239   1.400   .     A
C1229  H1300   1.083   .     S
C1230  C1235   1.394   .     A
C1230  H1301   1.083   .     S
C1230  C1238   1.400   .     A
C1231  C1236   1.413   .     A
C1231  O1316   1.383   .     S
C1232  C1237   1.416   .     A
C1232  O1306   1.383   .     S
C1233  C1237   1.413   .     A
C1233  O1307   1.383   .     S
C1234  O1310   1.288   .     A
C1234  O1309   1.288   .     A
C1234  C1240   1.449   .     S
C1235  O1308   1.383   .     S
C1235  C1236   1.416   .     A
C1236  C1245   1.472   .     S
C1237  C1255   1.472   .     S
C1239  C392    1.473   1_556 S
C1241  C1260   1.401   .     A
C1242  H1267   1.112   .     S
C1242  O1316   1.414   .     S
C1242  C1243   1.529   .     S
C1242  H1268   1.117   .     S
C1243  H1270   1.112   .     S
C1243  C1244   1.525   .     S
C1243  H1269   1.110   .     S
C1244  H1271   1.111   .     S
C1244  H1273   1.111   .     S
C1244  H1554   1.110   .     S
C1245  O1315   1.293   .     A
C1245  O1312   1.294   .     A
C1246  H1276   1.114   .     S
C1246  C1247   1.528   .     S
C1246  H1275   1.117   .     S
C1246  O1306   1.412   .     S
C1247  H1278   1.112   .     S
C1247  C1248   1.525   .     S
C1247  H1277   1.110   .     S
C1248  H1281   1.111   .     S
C1248  H1280   1.111   .     S
C1248  H1279   1.110   .     S
C1249  H1282   1.112   .     S
C1249  O1307   1.414   .     S
C1249  H1283   1.117   .     S
C1249  C1250   1.529   .     S
C1250  C1251   1.525   .     S
C1250  H1286   1.112   .     S
C1250  H1284   1.110   .     S
C1251  H1289   1.111   .     S
C1251  H1287   1.111   .     S
C1251  H1570   1.110   .     S
C1252  C1253   1.528   .     S
C1252  O1308   1.412   .     S
C1252  H1291   1.114   .     S
C1252  H1290   1.117   .     S
C1253  H1292   1.110   .     S
C1253  H1293   1.112   .     S
C1253  C1254   1.525   .     S
C1254  H1297   1.111   .     S
C1254  H1294   1.110   .     S
C1254  H1295   1.111   .     S
C1255  O1313   1.293   .     A
C1255  O1314   1.294   .     A
C1256  H1263   1.081   .     S
C1256  N1304   1.366   .     A
C1257  N1303   1.366   .     A
C1257  H1274   1.080   .     S
C1257  C1540   1.413   .     S
C1258  N1304   1.366   .     A
C1258  H1285   1.081   .     S
C1259  H1296   1.080   .     S
C1259  N1303   1.366   .     A
C1259  C1538   1.413   .     S
C1260  H1302   1.083   .     S
Cu1261 O1312   1.968   .     S
Cu1261 O1310   1.964   .     S
Cu1261 N1303   2.006   .     S
Cu1261 Cu1262  2.670   .     S
Cu1261 O1314   1.968   .     S
Cu1261 O1305   1.964   .     S
Cu1262 O1315   1.968   .     S
Cu1262 O1309   1.964   .     S
Cu1262 O1311   1.964   .     S
Cu1262 N1304   2.006   .     S
Cu1262 O1313   1.968   .     S
C1317  C1335   1.449   .     S
C1317  O1405   1.288   .     A
C1317  O1399   1.288   .     A
C1318  C1334   1.401   .     A
C1318  H1358   1.083   .     S
C1318  C1132   1.383   1_655 S
C1319  H1359   1.083   .     S
C1319  C1334   1.401   .     A
C1319  C1166   1.383   1_655 S
C1320  C1335   1.401   .     A
C1320  H1360   1.083   .     S
C1321  C1332   1.400   .     A
C1321  C1325   1.392   .     A
C1321  H1392   1.083   .     S
C1322  H1393   1.083   .     S
C1322  C1333   1.400   .     A
C1322  C1326   1.394   .     A
C1323  C1327   1.392   .     A
C1323  C1333   1.400   .     A
C1323  H1394   1.083   .     S
C1324  C1329   1.394   .     A
C1324  H1395   1.083   .     S
C1324  C1332   1.400   .     A
C1325  C1330   1.413   .     A
C1325  O1410   1.383   .     S
C1326  C1331   1.416   .     A
C1326  O1400   1.383   .     S
C1327  C1331   1.413   .     A
C1327  O1401   1.383   .     S
C1328  O1404   1.288   .     A
C1328  O1403   1.288   .     A
C1328  C1334   1.449   .     S
C1329  O1402   1.383   .     S
C1329  C1330   1.416   .     A
C1330  C1339   1.472   .     S
C1331  C1349   1.472   .     S
C1333  C486    1.473   1_556 S
C1335  C1354   1.401   .     A
C1336  H1361   1.112   .     S
C1336  O1410   1.414   .     S
C1336  C1337   1.529   .     S
C1336  H1362   1.117   .     S
C1337  H1364   1.112   .     S
C1337  C1338   1.525   .     S
C1337  H1363   1.110   .     S
C1338  H1365   1.111   .     S
C1338  H1367   1.111   .     S
C1338  H1648   1.110   .     S
C1339  O1409   1.293   .     A
C1339  O1406   1.294   .     A
C1340  H1370   1.114   .     S
C1340  C1341   1.528   .     S
C1340  H1369   1.117   .     S
C1340  O1400   1.412   .     S
C1341  H1372   1.112   .     S
C1341  C1342   1.525   .     S
C1341  H1371   1.110   .     S
C1342  H1375   1.111   .     S
C1342  H1374   1.111   .     S
C1342  H1373   1.110   .     S
C1343  H1376   1.112   .     S
C1343  O1401   1.414   .     S
C1343  H1377   1.117   .     S
C1343  C1344   1.529   .     S
C1344  C1345   1.525   .     S
C1344  H1380   1.112   .     S
C1344  H1378   1.110   .     S
C1345  H1383   1.111   .     S
C1345  H1381   1.111   .     S
C1345  H1664   1.110   .     S
C1346  C1347   1.528   .     S
C1346  O1402   1.412   .     S
C1346  H1385   1.114   .     S
C1346  H1384   1.117   .     S
C1347  H1386   1.110   .     S
C1347  H1387   1.112   .     S
C1347  C1348   1.525   .     S
C1348  H1391   1.111   .     S
C1348  H1388   1.110   .     S
C1348  H1389   1.111   .     S
C1349  O1407   1.293   .     A
C1349  O1408   1.294   .     A
C1350  H1357   1.081   .     S
C1350  N1398   1.366   .     A
C1351  N1397   1.366   .     A
C1351  H1368   1.080   .     S
C1351  C1634   1.413   .     S
C1352  N1398   1.366   .     A
C1352  H1379   1.081   .     S
C1353  H1390   1.080   .     S
C1353  N1397   1.366   .     A
C1353  C1632   1.413   .     S
C1354  H1396   1.083   .     S
Cu1355 O1406   1.968   .     S
Cu1355 O1404   1.964   .     S
Cu1355 N1397   2.006   .     S
Cu1355 Cu1356  2.670   .     S
Cu1355 O1408   1.968   .     S
Cu1355 O1399   1.964   .     S
Cu1356 O1409   1.968   .     S
Cu1356 O1403   1.964   .     S
Cu1356 O1405   1.964   .     S
Cu1356 N1398   2.006   .     S
Cu1356 O1407   1.968   .     S
C1411  C1429   1.449   .     S
C1411  O1499   1.288   .     A
C1411  O1493   1.288   .     A
C1412  C1428   1.401   .     A
C1412  H1452   1.083   .     S
C1412  C1508   1.383   .     S
C1413  H1453   1.083   .     S
C1413  C1428   1.401   .     A
C1413  C1542   1.383   .     S
C1414  C1429   1.401   .     A
C1414  H1454   1.083   .     S
C1414  C1600   1.383   1_455 S
C1415  C1426   1.400   .     A
C1415  C1419   1.392   .     A
C1415  H1486   1.083   .     S
C1416  H1487   1.083   .     S
C1416  C1427   1.400   .     A
C1416  C1420   1.394   .     A
C1417  C1421   1.392   .     A
C1417  C1427   1.400   .     A
C1417  H1488   1.083   .     S
C1418  C1423   1.394   .     A
C1418  H1489   1.083   .     S
C1418  C1426   1.400   .     A
C1419  C1424   1.413   .     A
C1419  O1504   1.383   .     S
C1420  C1425   1.416   .     A
C1420  O1494   1.383   .     S
C1421  C1425   1.413   .     A
C1421  O1495   1.383   .     S
C1422  O1498   1.288   .     A
C1422  O1497   1.288   .     A
C1422  C1428   1.449   .     S
C1423  O1496   1.383   .     S
C1423  C1424   1.416   .     A
C1424  C1433   1.472   .     S
C1425  C1443   1.472   .     S
C1427  C580    1.473   1_556 S
C1429  C1448   1.401   .     A
C1430  H1455   1.112   .     S
C1430  O1504   1.414   .     S
C1430  C1431   1.529   .     S
C1430  H1456   1.117   .     S
C1431  H1458   1.112   .     S
C1431  C1432   1.525   .     S
C1431  H1457   1.110   .     S
C1432  H1459   1.111   .     S
C1432  H1461   1.111   .     S
C1432  H896    1.110   1_565 S
C1433  O1503   1.293   .     A
C1433  O1500   1.294   .     A
C1434  H1464   1.114   .     S
C1434  C1435   1.528   .     S
C1434  H1463   1.117   .     S
C1434  O1494   1.412   .     S
C1435  H1466   1.112   .     S
C1435  C1436   1.525   .     S
C1435  H1465   1.110   .     S
C1436  H1469   1.111   .     S
C1436  H1468   1.111   .     S
C1436  H1467   1.110   .     S
C1437  H1470   1.112   .     S
C1437  O1495   1.414   .     S
C1437  H1471   1.117   .     S
C1437  C1438   1.529   .     S
C1438  C1439   1.525   .     S
C1438  H1474   1.112   .     S
C1438  H1472   1.110   .     S
C1439  H1477   1.111   .     S
C1439  H1475   1.111   .     S
C1439  H912    1.110   1_565 S
C1440  C1441   1.528   .     S
C1440  O1496   1.412   .     S
C1440  H1479   1.114   .     S
C1440  H1478   1.117   .     S
C1441  H1480   1.110   .     S
C1441  H1481   1.112   .     S
C1441  C1442   1.525   .     S
C1442  H1485   1.111   .     S
C1442  H1482   1.110   .     S
C1442  H1483   1.111   .     S
C1443  O1501   1.293   .     A
C1443  O1502   1.294   .     A
C1444  H1451   1.081   .     S
C1444  N1492   1.366   .     A
C1445  N1491   1.366   .     A
C1445  H1462   1.080   .     S
C1445  C882    1.413   1_565 S
C1446  N1492   1.366   .     A
C1446  H1473   1.081   .     S
C1447  H1484   1.080   .     S
C1447  N1491   1.366   .     A
C1447  C880    1.413   1_565 S
C1448  H1490   1.083   .     S
C1448  C1601   1.383   1_455 S
Cu1449 O1500   1.968   .     S
Cu1449 O1498   1.964   .     S
Cu1449 N1491   2.006   .     S
Cu1449 Cu1450  2.670   .     S
Cu1449 O1502   1.968   .     S
Cu1449 O1493   1.964   .     S
Cu1450 O1503   1.968   .     S
Cu1450 O1497   1.964   .     S
Cu1450 O1499   1.964   .     S
Cu1450 N1492   2.006   .     S
Cu1450 O1501   1.968   .     S
C1505  C1523   1.449   .     S
C1505  O1593   1.288   .     A
C1505  O1587   1.288   .     A
C1506  C1522   1.401   .     A
C1506  H1546   1.083   .     S
C1506  C1602   1.383   .     S
C1507  H1547   1.083   .     S
C1507  C1522   1.401   .     A
C1507  C1636   1.383   .     S
C1508  C1523   1.401   .     A
C1508  H1548   1.083   .     S
C1509  C1520   1.400   .     A
C1509  C1513   1.392   .     A
C1509  H1580   1.083   .     S
C1510  H1581   1.083   .     S
C1510  C1521   1.400   .     A
C1510  C1514   1.394   .     A
C1511  C1515   1.392   .     A
C1511  C1521   1.400   .     A
C1511  H1582   1.083   .     S
C1512  C1517   1.394   .     A
C1512  H1583   1.083   .     S
C1512  C1520   1.400   .     A
C1513  C1518   1.413   .     A
C1513  O1598   1.383   .     S
C1514  C1519   1.416   .     A
C1514  O1588   1.383   .     S
C1515  C1519   1.413   .     A
C1515  O1589   1.383   .     S
C1516  O1592   1.288   .     A
C1516  O1591   1.288   .     A
C1516  C1522   1.449   .     S
C1517  O1590   1.383   .     S
C1517  C1518   1.416   .     A
C1518  C1527   1.472   .     S
C1519  C1537   1.472   .     S
C1521  C674    1.473   1_556 S
C1523  C1542   1.401   .     A
C1524  H1549   1.112   .     S
C1524  O1598   1.414   .     S
C1524  C1525   1.529   .     S
C1524  H1550   1.117   .     S
C1525  H1552   1.112   .     S
C1525  C1526   1.525   .     S
C1525  H1551   1.110   .     S
C1526  H1553   1.111   .     S
C1526  H1555   1.111   .     S
C1526  H990    1.110   1_565 S
C1527  O1597   1.293   .     A
C1527  O1594   1.294   .     A
C1528  H1558   1.114   .     S
C1528  C1529   1.528   .     S
C1528  H1557   1.117   .     S
C1528  O1588   1.412   .     S
C1529  H1560   1.112   .     S
C1529  C1530   1.525   .     S
C1529  H1559   1.110   .     S
C1530  H1563   1.111   .     S
C1530  H1562   1.111   .     S
C1530  H1561   1.110   .     S
C1531  H1564   1.112   .     S
C1531  O1589   1.414   .     S
C1531  H1565   1.117   .     S
C1531  C1532   1.529   .     S
C1532  C1533   1.525   .     S
C1532  H1568   1.112   .     S
C1532  H1566   1.110   .     S
C1533  H1571   1.111   .     S
C1533  H1569   1.111   .     S
C1533  H1006   1.110   1_565 S
C1534  C1535   1.528   .     S
C1534  O1590   1.412   .     S
C1534  H1573   1.114   .     S
C1534  H1572   1.117   .     S
C1535  H1574   1.110   .     S
C1535  H1575   1.112   .     S
C1535  C1536   1.525   .     S
C1536  H1579   1.111   .     S
C1536  H1576   1.110   .     S
C1536  H1577   1.111   .     S
C1537  O1595   1.293   .     A
C1537  O1596   1.294   .     A
C1538  H1545   1.081   .     S
C1538  N1586   1.366   .     A
C1539  N1585   1.366   .     A
C1539  H1556   1.080   .     S
C1539  C976    1.413   1_565 S
C1540  N1586   1.366   .     A
C1540  H1567   1.081   .     S
C1541  H1578   1.080   .     S
C1541  N1585   1.366   .     A
C1541  C974    1.413   1_565 S
C1542  H1584   1.083   .     S
Cu1543 O1594   1.968   .     S
Cu1543 O1592   1.964   .     S
Cu1543 N1585   2.006   .     S
Cu1543 Cu1544  2.670   .     S
Cu1543 O1596   1.968   .     S
Cu1543 O1587   1.964   .     S
Cu1544 O1597   1.968   .     S
Cu1544 O1591   1.964   .     S
Cu1544 O1593   1.964   .     S
Cu1544 N1586   2.006   .     S
Cu1544 O1595   1.968   .     S
C1599  C1617   1.449   .     S
C1599  O1687   1.288   .     A
C1599  O1681   1.288   .     A
C1600  C1616   1.401   .     A
C1600  H1640   1.083   .     S
C1600  C1414   1.383   1_655 S
C1601  H1641   1.083   .     S
C1601  C1616   1.401   .     A
C1601  C1448   1.383   1_655 S
C1602  C1617   1.401   .     A
C1602  H1642   1.083   .     S
C1603  C1614   1.400   .     A
C1603  C1607   1.392   .     A
C1603  H1674   1.083   .     S
C1604  H1675   1.083   .     S
C1604  C1615   1.400   .     A
C1604  C1608   1.394   .     A
C1605  C1609   1.392   .     A
C1605  C1615   1.400   .     A
C1605  H1676   1.083   .     S
C1606  C1611   1.394   .     A
C1606  H1677   1.083   .     S
C1606  C1614   1.400   .     A
C1607  C1612   1.413   .     A
C1607  O1692   1.383   .     S
C1608  C1613   1.416   .     A
C1608  O1682   1.383   .     S
C1609  C1613   1.413   .     A
C1609  O1683   1.383   .     S
C1610  O1686   1.288   .     A
C1610  O1685   1.288   .     A
C1610  C1616   1.449   .     S
C1611  O1684   1.383   .     S
C1611  C1612   1.416   .     A
C1612  C1621   1.472   .     S
C1613  C1631   1.472   .     S
C1615  C768    1.473   1_556 S
C1617  C1636   1.401   .     A
C1618  H1643   1.112   .     S
C1618  O1692   1.414   .     S
C1618  C1619   1.529   .     S
C1618  H1644   1.117   .     S
C1619  H1646   1.112   .     S
C1619  C1620   1.525   .     S
C1619  H1645   1.110   .     S
C1620  H1647   1.111   .     S
C1620  H1649   1.111   .     S
C1620  H1084   1.110   1_565 S
C1621  O1691   1.293   .     A
C1621  O1688   1.294   .     A
C1622  H1652   1.114   .     S
C1622  C1623   1.528   .     S
C1622  H1651   1.117   .     S
C1622  O1682   1.412   .     S
C1623  H1654   1.112   .     S
C1623  C1624   1.525   .     S
C1623  H1653   1.110   .     S
C1624  H1657   1.111   .     S
C1624  H1656   1.111   .     S
C1624  H1655   1.110   .     S
C1625  H1658   1.112   .     S
C1625  O1683   1.414   .     S
C1625  H1659   1.117   .     S
C1625  C1626   1.529   .     S
C1626  C1627   1.525   .     S
C1626  H1662   1.112   .     S
C1626  H1660   1.110   .     S
C1627  H1665   1.111   .     S
C1627  H1663   1.111   .     S
C1627  H1100   1.110   1_565 S
C1628  C1629   1.528   .     S
C1628  O1684   1.412   .     S
C1628  H1667   1.114   .     S
C1628  H1666   1.117   .     S
C1629  H1668   1.110   .     S
C1629  H1669   1.112   .     S
C1629  C1630   1.525   .     S
C1630  H1673   1.111   .     S
C1630  H1670   1.110   .     S
C1630  H1671   1.111   .     S
C1631  O1689   1.293   .     A
C1631  O1690   1.294   .     A
C1632  H1639   1.081   .     S
C1632  N1680   1.366   .     A
C1633  N1679   1.366   .     A
C1633  H1650   1.080   .     S
C1633  C1070   1.413   1_565 S
C1634  N1680   1.366   .     A
C1634  H1661   1.081   .     S
C1635  H1672   1.080   .     S
C1635  N1679   1.366   .     A
C1635  C1068   1.413   1_565 S
C1636  H1678   1.083   .     S
Cu1637 O1688   1.968   .     S
Cu1637 O1686   1.964   .     S
Cu1637 N1679   2.006   .     S
Cu1637 Cu1638  2.670   .     S
Cu1637 O1690   1.968   .     S
Cu1637 O1681   1.964   .     S
Cu1638 O1691   1.968   .     S
Cu1638 O1685   1.964   .     S
Cu1638 O1687   1.964   .     S
Cu1638 N1680   2.006   .     S
Cu1638 O1689   1.968   .     S
