data_str_m3_o1_o17_pcu_sym.59
_audit_creation_date              2020-01-03
_audit_creation_method            'Materials Studio'
_symmetry_space_group_name_H-M    'P1'
_symmetry_Int_Tables_number       1
_symmetry_cell_setting            triclinic
loop_
_symmetry_equiv_pos_as_xyz
  x,y,z
_cell_length_a                    32.1539
_cell_length_b                    29.4767
_cell_length_c                    30.0145
_cell_angle_alpha                 89.9587
_cell_angle_beta                  90.1197
_cell_angle_gamma                 90.0011
loop_
_atom_site_label
_atom_site_type_symbol
_atom_site_fract_x
_atom_site_fract_y
_atom_site_fract_z
_atom_site_U_iso_or_equiv
_atom_site_adp_type
_atom_site_occupancy
Br1    Br    0.13276   0.02974   0.44891   0.00000  Uiso   1.00
Br2    Br    0.20057   0.30360   0.05109   0.00000  Uiso   1.00
C3     C     0.08661   0.16667   0.24997   0.00000  Uiso   1.00
C4     C     0.04247   0.16666   0.24996   0.00000  Uiso   1.00
C5     C     0.19224   0.02398   0.27807   0.00000  Uiso   1.00
C6     C     0.14109   0.30935   0.22193   0.00000  Uiso   1.00
C7     C     0.14109   0.02402   0.22193   0.00000  Uiso   1.00
C8     C     0.19224   0.30931   0.27807   0.00000  Uiso   1.00
C9     C     0.16665   0.16669   0.16328   0.00000  Uiso   1.00
C10    C     0.16668   0.16664   0.33672   0.00000  Uiso   1.00
C11    C     0.17634   0.20638   0.40745   0.00000  Uiso   1.00
C12    C     0.15700   0.12695   0.09255   0.00000  Uiso   1.00
C13    C     0.16667   0.16656   0.38462   0.00000  Uiso   1.00
C14    C     0.24672   0.16667   0.25003   0.00000  Uiso   1.00
C15    C     0.16666   0.16678   0.11538   0.00000  Uiso   1.00
C16    C     0.15698   0.12661   0.40741   0.00000  Uiso   1.00
C17    C     0.17635   0.20672   0.09259   0.00000  Uiso   1.00
C18    C     0.15673   0.12598   0.45366   0.00000  Uiso   1.00
C19    C     0.17660   0.20735   0.04634   0.00000  Uiso   1.00
C20    C     0.16663   0.16646   0.47680   0.00000  Uiso   1.00
C21    C     0.16671   0.16687   0.02320   0.00000  Uiso   1.00
C22    C     0.17648   0.20662   0.45349   0.00000  Uiso   1.00
C23    C     0.15686   0.12672   0.04651   0.00000  Uiso   1.00
C24    C     0.14682   0.08614   0.47738   0.00000  Uiso   1.00
C25    C     0.14693   0.08688   0.02365   0.00000  Uiso   1.00
C26    C     0.18651   0.24719   0.02262   0.00000  Uiso   1.00
C27    C     0.18640   0.24646   0.47635   0.00000  Uiso   1.00
C28    C     0.02132   0.12619   0.25850   0.00000  Uiso   1.00
C29    C     0.31202   0.20715   0.24150   0.00000  Uiso   1.00
C30    C     0.31205   0.12619   0.25854   0.00000  Uiso   1.00
C31    C     0.02129   0.20714   0.24146   0.00000  Uiso   1.00
C32    C     0.29086   0.16667   0.25003   0.00000  Uiso   1.00
H33    H     0.18407   0.23715   0.38941   0.00000  Uiso   1.00
H34    H     0.03750   0.23858   0.23452   0.00000  Uiso   1.00
H35    H     0.21267   0.04220   0.30048   0.00000  Uiso   1.00
H36    H     0.12066   0.29114   0.19952   0.00000  Uiso   1.00
H37    H     0.12067   0.04227   0.19951   0.00000  Uiso   1.00
H38    H     0.21267   0.29106   0.30049   0.00000  Uiso   1.00
H39    H     0.14927   0.09619   0.11059   0.00000  Uiso   1.00
H40    H     0.14936   0.09634   0.38877   0.00000  Uiso   1.00
H41    H     0.18397   0.23700   0.11123   0.00000  Uiso   1.00
H42    H     0.13920   0.05622   0.04180   0.00000  Uiso   1.00
H43    H     0.19414   0.27711   0.45820   0.00000  Uiso   1.00
H44    H     0.03756   0.09474   0.26540   0.00000  Uiso   1.00
H45    H     0.29578   0.23860   0.23460   0.00000  Uiso   1.00
H46    H     0.29583   0.09475   0.26548   0.00000  Uiso   1.00
N47    N     0.16667   0.28573   0.25000   0.00000  Uiso   1.00
N48    N     0.16667   0.04760   0.25000   0.00000  Uiso   1.00
O49    O     0.10559   0.20487   0.24999   0.00000  Uiso   1.00
O50    O     0.22774   0.12846   0.25000   0.00000  Uiso   1.00
O51    O     0.22774   0.20487   0.25000   0.00000  Uiso   1.00
O52    O     0.10559   0.12846   0.24999   0.00000  Uiso   1.00
O53    O     0.16666   0.20489   0.18392   0.00000  Uiso   1.00
O54    O     0.16667   0.12844   0.31607   0.00000  Uiso   1.00
O55    O     0.16667   0.20489   0.31607   0.00000  Uiso   1.00
O56    O     0.16666   0.12844   0.18392   0.00000  Uiso   1.00
Zn57   Zn    0.16667   0.21771   0.25000   0.00000  Uiso   1.00
Zn58   Zn    0.16667   0.11563   0.25000   0.00000  Uiso   1.00
Br59   Br    0.46609   0.02974   0.44891   0.00000  Uiso   1.00
Br60   Br    0.53391   0.30360   0.05109   0.00000  Uiso   1.00
C61    C     0.41994   0.16667   0.24997   0.00000  Uiso   1.00
C62    C     0.37580   0.16666   0.24996   0.00000  Uiso   1.00
C63    C     0.52557   0.02398   0.27807   0.00000  Uiso   1.00
C64    C     0.47443   0.30935   0.22193   0.00000  Uiso   1.00
C65    C     0.47443   0.02402   0.22193   0.00000  Uiso   1.00
C66    C     0.52557   0.30931   0.27807   0.00000  Uiso   1.00
C67    C     0.49998   0.16669   0.16328   0.00000  Uiso   1.00
C68    C     0.50002   0.16664   0.33672   0.00000  Uiso   1.00
C69    C     0.50967   0.20638   0.40745   0.00000  Uiso   1.00
C70    C     0.49033   0.12695   0.09255   0.00000  Uiso   1.00
C71    C     0.50000   0.16656   0.38462   0.00000  Uiso   1.00
C72    C     0.58006   0.16667   0.25003   0.00000  Uiso   1.00
C73    C     0.50000   0.16678   0.11538   0.00000  Uiso   1.00
C74    C     0.49032   0.12661   0.40741   0.00000  Uiso   1.00
C75    C     0.50968   0.20672   0.09259   0.00000  Uiso   1.00
C76    C     0.49007   0.12598   0.45366   0.00000  Uiso   1.00
C77    C     0.50993   0.20735   0.04634   0.00000  Uiso   1.00
C78    C     0.49996   0.16646   0.47680   0.00000  Uiso   1.00
C79    C     0.50004   0.16687   0.02320   0.00000  Uiso   1.00
C80    C     0.50981   0.20662   0.45349   0.00000  Uiso   1.00
C81    C     0.49019   0.12672   0.04651   0.00000  Uiso   1.00
C82    C     0.48015   0.08614   0.47738   0.00000  Uiso   1.00
C83    C     0.48027   0.08688   0.02365   0.00000  Uiso   1.00
C84    C     0.51985   0.24719   0.02262   0.00000  Uiso   1.00
C85    C     0.51973   0.24646   0.47635   0.00000  Uiso   1.00
C86    C     0.35465   0.12619   0.25850   0.00000  Uiso   1.00
C87    C     0.64535   0.20715   0.24150   0.00000  Uiso   1.00
C88    C     0.64538   0.12619   0.25854   0.00000  Uiso   1.00
C89    C     0.35462   0.20714   0.24146   0.00000  Uiso   1.00
C90    C     0.62420   0.16667   0.25003   0.00000  Uiso   1.00
H91    H     0.51740   0.23715   0.38941   0.00000  Uiso   1.00
H92    H     0.37084   0.23858   0.23452   0.00000  Uiso   1.00
H93    H     0.54601   0.04220   0.30048   0.00000  Uiso   1.00
H94    H     0.45399   0.29114   0.19952   0.00000  Uiso   1.00
H95    H     0.45400   0.04227   0.19951   0.00000  Uiso   1.00
H96    H     0.54600   0.29106   0.30049   0.00000  Uiso   1.00
H97    H     0.48260   0.09619   0.11059   0.00000  Uiso   1.00
H98    H     0.48270   0.09634   0.38877   0.00000  Uiso   1.00
H99    H     0.51730   0.23700   0.11123   0.00000  Uiso   1.00
H100   H     0.47253   0.05622   0.04180   0.00000  Uiso   1.00
H101   H     0.52747   0.27711   0.45820   0.00000  Uiso   1.00
H102   H     0.37089   0.09474   0.26540   0.00000  Uiso   1.00
H103   H     0.62911   0.23860   0.23460   0.00000  Uiso   1.00
H104   H     0.62917   0.09475   0.26548   0.00000  Uiso   1.00
N105   N     0.50000   0.28573   0.25000   0.00000  Uiso   1.00
N106   N     0.50000   0.04760   0.25000   0.00000  Uiso   1.00
O107   O     0.43892   0.20487   0.24999   0.00000  Uiso   1.00
O108   O     0.56108   0.12846   0.25000   0.00000  Uiso   1.00
O109   O     0.56108   0.20487   0.25000   0.00000  Uiso   1.00
O110   O     0.43892   0.12846   0.24999   0.00000  Uiso   1.00
O111   O     0.49999   0.20489   0.18392   0.00000  Uiso   1.00
O112   O     0.50001   0.12844   0.31607   0.00000  Uiso   1.00
O113   O     0.50001   0.20489   0.31607   0.00000  Uiso   1.00
O114   O     0.49999   0.12844   0.18392   0.00000  Uiso   1.00
Zn115  Zn    0.50000   0.21771   0.25000   0.00000  Uiso   1.00
Zn116  Zn    0.50000   0.11563   0.25000   0.00000  Uiso   1.00
Br117  Br    0.79943   0.02974   0.44891   0.00000  Uiso   1.00
Br118  Br    0.86724   0.30360   0.05109   0.00000  Uiso   1.00
C119   C     0.75328   0.16667   0.24997   0.00000  Uiso   1.00
C120   C     0.70914   0.16666   0.24996   0.00000  Uiso   1.00
C121   C     0.85891   0.02398   0.27807   0.00000  Uiso   1.00
C122   C     0.80776   0.30935   0.22193   0.00000  Uiso   1.00
C123   C     0.80776   0.02402   0.22193   0.00000  Uiso   1.00
C124   C     0.85891   0.30931   0.27807   0.00000  Uiso   1.00
C125   C     0.83332   0.16669   0.16328   0.00000  Uiso   1.00
C126   C     0.83335   0.16664   0.33672   0.00000  Uiso   1.00
C127   C     0.84300   0.20638   0.40745   0.00000  Uiso   1.00
C128   C     0.82366   0.12695   0.09255   0.00000  Uiso   1.00
C129   C     0.83334   0.16656   0.38462   0.00000  Uiso   1.00
C130   C     0.91339   0.16667   0.25003   0.00000  Uiso   1.00
C131   C     0.83333   0.16678   0.11538   0.00000  Uiso   1.00
C132   C     0.82365   0.12661   0.40741   0.00000  Uiso   1.00
C133   C     0.84302   0.20672   0.09259   0.00000  Uiso   1.00
C134   C     0.82340   0.12598   0.45366   0.00000  Uiso   1.00
C135   C     0.84327   0.20735   0.04634   0.00000  Uiso   1.00
C136   C     0.83330   0.16646   0.47680   0.00000  Uiso   1.00
C137   C     0.83337   0.16687   0.02320   0.00000  Uiso   1.00
C138   C     0.84314   0.20662   0.45349   0.00000  Uiso   1.00
C139   C     0.82352   0.12672   0.04651   0.00000  Uiso   1.00
C140   C     0.81349   0.08614   0.47738   0.00000  Uiso   1.00
C141   C     0.81360   0.08688   0.02365   0.00000  Uiso   1.00
C142   C     0.85318   0.24719   0.02262   0.00000  Uiso   1.00
C143   C     0.85307   0.24646   0.47635   0.00000  Uiso   1.00
C144   C     0.68798   0.12619   0.25850   0.00000  Uiso   1.00
C145   C     0.97868   0.20715   0.24150   0.00000  Uiso   1.00
C146   C     0.97871   0.12619   0.25854   0.00000  Uiso   1.00
C147   C     0.68795   0.20714   0.24146   0.00000  Uiso   1.00
C148   C     0.95753   0.16667   0.25003   0.00000  Uiso   1.00
H149   H     0.85073   0.23715   0.38941   0.00000  Uiso   1.00
H150   H     0.70417   0.23858   0.23452   0.00000  Uiso   1.00
H151   H     0.87934   0.04220   0.30048   0.00000  Uiso   1.00
H152   H     0.78733   0.29114   0.19952   0.00000  Uiso   1.00
H153   H     0.78733   0.04227   0.19951   0.00000  Uiso   1.00
H154   H     0.87933   0.29106   0.30049   0.00000  Uiso   1.00
H155   H     0.81593   0.09619   0.11059   0.00000  Uiso   1.00
H156   H     0.81603   0.09634   0.38877   0.00000  Uiso   1.00
H157   H     0.85064   0.23700   0.11123   0.00000  Uiso   1.00
H158   H     0.80586   0.05622   0.04180   0.00000  Uiso   1.00
H159   H     0.86080   0.27711   0.45820   0.00000  Uiso   1.00
H160   H     0.70422   0.09474   0.26540   0.00000  Uiso   1.00
H161   H     0.96244   0.23860   0.23460   0.00000  Uiso   1.00
H162   H     0.96250   0.09475   0.26548   0.00000  Uiso   1.00
N163   N     0.83333   0.28573   0.25000   0.00000  Uiso   1.00
N164   N     0.83333   0.04760   0.25000   0.00000  Uiso   1.00
O165   O     0.77226   0.20487   0.24999   0.00000  Uiso   1.00
O166   O     0.89441   0.12846   0.25000   0.00000  Uiso   1.00
O167   O     0.89441   0.20487   0.25000   0.00000  Uiso   1.00
O168   O     0.77226   0.12846   0.24999   0.00000  Uiso   1.00
O169   O     0.83333   0.20489   0.18392   0.00000  Uiso   1.00
O170   O     0.83334   0.12844   0.31607   0.00000  Uiso   1.00
O171   O     0.83334   0.20489   0.31607   0.00000  Uiso   1.00
O172   O     0.83333   0.12844   0.18392   0.00000  Uiso   1.00
Zn173  Zn    0.83333   0.21771   0.25000   0.00000  Uiso   1.00
Zn174  Zn    0.83333   0.11563   0.25000   0.00000  Uiso   1.00
Br175  Br    0.13276   0.36307   0.44891   0.00000  Uiso   1.00
Br176  Br    0.20057   0.63693   0.05109   0.00000  Uiso   1.00
C177   C     0.08661   0.50000   0.24997   0.00000  Uiso   1.00
C178   C     0.04247   0.50000   0.24996   0.00000  Uiso   1.00
C179   C     0.19224   0.35732   0.27807   0.00000  Uiso   1.00
C180   C     0.14109   0.64269   0.22193   0.00000  Uiso   1.00
C181   C     0.14109   0.35736   0.22193   0.00000  Uiso   1.00
C182   C     0.19224   0.64264   0.27807   0.00000  Uiso   1.00
C183   C     0.16665   0.50002   0.16328   0.00000  Uiso   1.00
C184   C     0.16668   0.49998   0.33672   0.00000  Uiso   1.00
C185   C     0.17634   0.53971   0.40745   0.00000  Uiso   1.00
C186   C     0.15700   0.46029   0.09255   0.00000  Uiso   1.00
C187   C     0.16667   0.49989   0.38462   0.00000  Uiso   1.00
C188   C     0.24672   0.50000   0.25003   0.00000  Uiso   1.00
C189   C     0.16666   0.50011   0.11538   0.00000  Uiso   1.00
C190   C     0.15698   0.45995   0.40741   0.00000  Uiso   1.00
C191   C     0.17635   0.54005   0.09259   0.00000  Uiso   1.00
C192   C     0.15673   0.45931   0.45366   0.00000  Uiso   1.00
C193   C     0.17660   0.54069   0.04634   0.00000  Uiso   1.00
C194   C     0.16663   0.49980   0.47680   0.00000  Uiso   1.00
C195   C     0.16671   0.50020   0.02320   0.00000  Uiso   1.00
C196   C     0.17648   0.53995   0.45349   0.00000  Uiso   1.00
C197   C     0.15686   0.46005   0.04651   0.00000  Uiso   1.00
C198   C     0.14682   0.41947   0.47738   0.00000  Uiso   1.00
C199   C     0.14693   0.42021   0.02365   0.00000  Uiso   1.00
C200   C     0.18651   0.58053   0.02262   0.00000  Uiso   1.00
C201   C     0.18640   0.57979   0.47635   0.00000  Uiso   1.00
C202   C     0.02132   0.45952   0.25850   0.00000  Uiso   1.00
C203   C     0.31202   0.54048   0.24150   0.00000  Uiso   1.00
C204   C     0.31205   0.45953   0.25854   0.00000  Uiso   1.00
C205   C     0.02129   0.54047   0.24146   0.00000  Uiso   1.00
C206   C     0.29086   0.50001   0.25003   0.00000  Uiso   1.00
H207   H     0.18407   0.57048   0.38941   0.00000  Uiso   1.00
H208   H     0.03750   0.57192   0.23452   0.00000  Uiso   1.00
H209   H     0.21267   0.37553   0.30048   0.00000  Uiso   1.00
H210   H     0.12066   0.62447   0.19952   0.00000  Uiso   1.00
H211   H     0.12067   0.37560   0.19951   0.00000  Uiso   1.00
H212   H     0.21267   0.62440   0.30049   0.00000  Uiso   1.00
H213   H     0.14927   0.42952   0.11059   0.00000  Uiso   1.00
H214   H     0.14936   0.42967   0.38877   0.00000  Uiso   1.00
H215   H     0.18397   0.57033   0.11123   0.00000  Uiso   1.00
H216   H     0.13920   0.38956   0.04180   0.00000  Uiso   1.00
H217   H     0.19414   0.61044   0.45820   0.00000  Uiso   1.00
H218   H     0.03756   0.42807   0.26540   0.00000  Uiso   1.00
H219   H     0.29578   0.57193   0.23460   0.00000  Uiso   1.00
H220   H     0.29583   0.42808   0.26548   0.00000  Uiso   1.00
N221   N     0.16667   0.61907   0.25000   0.00000  Uiso   1.00
N222   N     0.16667   0.38093   0.25000   0.00000  Uiso   1.00
O223   O     0.10559   0.53821   0.24999   0.00000  Uiso   1.00
O224   O     0.22774   0.46179   0.25000   0.00000  Uiso   1.00
O225   O     0.22774   0.53821   0.25000   0.00000  Uiso   1.00
O226   O     0.10559   0.46179   0.24999   0.00000  Uiso   1.00
O227   O     0.16666   0.53823   0.18392   0.00000  Uiso   1.00
O228   O     0.16667   0.46177   0.31607   0.00000  Uiso   1.00
O229   O     0.16667   0.53823   0.31607   0.00000  Uiso   1.00
O230   O     0.16666   0.46177   0.18392   0.00000  Uiso   1.00
Zn231  Zn    0.16667   0.55104   0.25000   0.00000  Uiso   1.00
Zn232  Zn    0.16667   0.44896   0.25000   0.00000  Uiso   1.00
Br233  Br    0.46609   0.36307   0.44891   0.00000  Uiso   1.00
Br234  Br    0.53391   0.63693   0.05109   0.00000  Uiso   1.00
C235   C     0.41994   0.50000   0.24997   0.00000  Uiso   1.00
C236   C     0.37580   0.50000   0.24996   0.00000  Uiso   1.00
C237   C     0.52557   0.35732   0.27807   0.00000  Uiso   1.00
C238   C     0.47443   0.64269   0.22193   0.00000  Uiso   1.00
C239   C     0.47443   0.35736   0.22193   0.00000  Uiso   1.00
C240   C     0.52557   0.64264   0.27807   0.00000  Uiso   1.00
C241   C     0.49998   0.50002   0.16328   0.00000  Uiso   1.00
C242   C     0.50002   0.49998   0.33672   0.00000  Uiso   1.00
C243   C     0.50967   0.53971   0.40745   0.00000  Uiso   1.00
C244   C     0.49033   0.46029   0.09255   0.00000  Uiso   1.00
C245   C     0.50000   0.49989   0.38462   0.00000  Uiso   1.00
C246   C     0.58006   0.50000   0.25003   0.00000  Uiso   1.00
C247   C     0.50000   0.50011   0.11538   0.00000  Uiso   1.00
C248   C     0.49032   0.45995   0.40741   0.00000  Uiso   1.00
C249   C     0.50968   0.54005   0.09259   0.00000  Uiso   1.00
C250   C     0.49007   0.45931   0.45366   0.00000  Uiso   1.00
C251   C     0.50993   0.54069   0.04634   0.00000  Uiso   1.00
C252   C     0.49996   0.49980   0.47680   0.00000  Uiso   1.00
C253   C     0.50004   0.50020   0.02320   0.00000  Uiso   1.00
C254   C     0.50981   0.53995   0.45349   0.00000  Uiso   1.00
C255   C     0.49019   0.46005   0.04651   0.00000  Uiso   1.00
C256   C     0.48015   0.41947   0.47738   0.00000  Uiso   1.00
C257   C     0.48027   0.42021   0.02365   0.00000  Uiso   1.00
C258   C     0.51985   0.58053   0.02262   0.00000  Uiso   1.00
C259   C     0.51973   0.57979   0.47635   0.00000  Uiso   1.00
C260   C     0.35465   0.45952   0.25850   0.00000  Uiso   1.00
C261   C     0.64535   0.54048   0.24150   0.00000  Uiso   1.00
C262   C     0.64538   0.45953   0.25854   0.00000  Uiso   1.00
C263   C     0.35462   0.54047   0.24146   0.00000  Uiso   1.00
C264   C     0.62420   0.50001   0.25003   0.00000  Uiso   1.00
H265   H     0.51740   0.57048   0.38941   0.00000  Uiso   1.00
H266   H     0.37084   0.57192   0.23452   0.00000  Uiso   1.00
H267   H     0.54601   0.37553   0.30048   0.00000  Uiso   1.00
H268   H     0.45399   0.62447   0.19952   0.00000  Uiso   1.00
H269   H     0.45400   0.37560   0.19951   0.00000  Uiso   1.00
H270   H     0.54600   0.62440   0.30049   0.00000  Uiso   1.00
H271   H     0.48260   0.42952   0.11059   0.00000  Uiso   1.00
H272   H     0.48270   0.42967   0.38877   0.00000  Uiso   1.00
H273   H     0.51730   0.57033   0.11123   0.00000  Uiso   1.00
H274   H     0.47253   0.38956   0.04180   0.00000  Uiso   1.00
H275   H     0.52747   0.61044   0.45820   0.00000  Uiso   1.00
H276   H     0.37089   0.42807   0.26540   0.00000  Uiso   1.00
H277   H     0.62911   0.57193   0.23460   0.00000  Uiso   1.00
H278   H     0.62917   0.42808   0.26548   0.00000  Uiso   1.00
N279   N     0.50000   0.61907   0.25000   0.00000  Uiso   1.00
N280   N     0.50000   0.38093   0.25000   0.00000  Uiso   1.00
O281   O     0.43892   0.53821   0.24999   0.00000  Uiso   1.00
O282   O     0.56108   0.46179   0.25000   0.00000  Uiso   1.00
O283   O     0.56108   0.53821   0.25000   0.00000  Uiso   1.00
O284   O     0.43892   0.46179   0.24999   0.00000  Uiso   1.00
O285   O     0.49999   0.53823   0.18392   0.00000  Uiso   1.00
O286   O     0.50001   0.46177   0.31607   0.00000  Uiso   1.00
O287   O     0.50001   0.53823   0.31607   0.00000  Uiso   1.00
O288   O     0.49999   0.46177   0.18392   0.00000  Uiso   1.00
Zn289  Zn    0.50000   0.55104   0.25000   0.00000  Uiso   1.00
Zn290  Zn    0.50000   0.44896   0.25000   0.00000  Uiso   1.00
Br291  Br    0.79943   0.36307   0.44891   0.00000  Uiso   1.00
Br292  Br    0.86724   0.63693   0.05109   0.00000  Uiso   1.00
C293   C     0.75328   0.50000   0.24997   0.00000  Uiso   1.00
C294   C     0.70914   0.50000   0.24996   0.00000  Uiso   1.00
C295   C     0.85891   0.35732   0.27807   0.00000  Uiso   1.00
C296   C     0.80776   0.64269   0.22193   0.00000  Uiso   1.00
C297   C     0.80776   0.35736   0.22193   0.00000  Uiso   1.00
C298   C     0.85891   0.64264   0.27807   0.00000  Uiso   1.00
C299   C     0.83332   0.50002   0.16328   0.00000  Uiso   1.00
C300   C     0.83335   0.49998   0.33672   0.00000  Uiso   1.00
C301   C     0.84300   0.53971   0.40745   0.00000  Uiso   1.00
C302   C     0.82366   0.46029   0.09255   0.00000  Uiso   1.00
C303   C     0.83334   0.49989   0.38462   0.00000  Uiso   1.00
C304   C     0.91339   0.50000   0.25003   0.00000  Uiso   1.00
C305   C     0.83333   0.50011   0.11538   0.00000  Uiso   1.00
C306   C     0.82365   0.45995   0.40741   0.00000  Uiso   1.00
C307   C     0.84302   0.54005   0.09259   0.00000  Uiso   1.00
C308   C     0.82340   0.45931   0.45366   0.00000  Uiso   1.00
C309   C     0.84327   0.54069   0.04634   0.00000  Uiso   1.00
C310   C     0.83330   0.49980   0.47680   0.00000  Uiso   1.00
C311   C     0.83337   0.50020   0.02320   0.00000  Uiso   1.00
C312   C     0.84314   0.53995   0.45349   0.00000  Uiso   1.00
C313   C     0.82352   0.46005   0.04651   0.00000  Uiso   1.00
C314   C     0.81349   0.41947   0.47738   0.00000  Uiso   1.00
C315   C     0.81360   0.42021   0.02365   0.00000  Uiso   1.00
C316   C     0.85318   0.58053   0.02262   0.00000  Uiso   1.00
C317   C     0.85307   0.57979   0.47635   0.00000  Uiso   1.00
C318   C     0.68798   0.45952   0.25850   0.00000  Uiso   1.00
C319   C     0.97868   0.54048   0.24150   0.00000  Uiso   1.00
C320   C     0.97871   0.45953   0.25854   0.00000  Uiso   1.00
C321   C     0.68795   0.54047   0.24146   0.00000  Uiso   1.00
C322   C     0.95753   0.50001   0.25003   0.00000  Uiso   1.00
H323   H     0.85073   0.57048   0.38941   0.00000  Uiso   1.00
H324   H     0.70417   0.57192   0.23452   0.00000  Uiso   1.00
H325   H     0.87934   0.37553   0.30048   0.00000  Uiso   1.00
H326   H     0.78733   0.62447   0.19952   0.00000  Uiso   1.00
H327   H     0.78733   0.37560   0.19951   0.00000  Uiso   1.00
H328   H     0.87933   0.62440   0.30049   0.00000  Uiso   1.00
H329   H     0.81593   0.42952   0.11059   0.00000  Uiso   1.00
H330   H     0.81603   0.42967   0.38877   0.00000  Uiso   1.00
H331   H     0.85064   0.57033   0.11123   0.00000  Uiso   1.00
H332   H     0.80586   0.38956   0.04180   0.00000  Uiso   1.00
H333   H     0.86080   0.61044   0.45820   0.00000  Uiso   1.00
H334   H     0.70422   0.42807   0.26540   0.00000  Uiso   1.00
H335   H     0.96244   0.57193   0.23460   0.00000  Uiso   1.00
H336   H     0.96250   0.42808   0.26548   0.00000  Uiso   1.00
N337   N     0.83333   0.61907   0.25000   0.00000  Uiso   1.00
N338   N     0.83333   0.38093   0.25000   0.00000  Uiso   1.00
O339   O     0.77226   0.53821   0.24999   0.00000  Uiso   1.00
O340   O     0.89441   0.46179   0.25000   0.00000  Uiso   1.00
O341   O     0.89441   0.53821   0.25000   0.00000  Uiso   1.00
O342   O     0.77226   0.46179   0.24999   0.00000  Uiso   1.00
O343   O     0.83333   0.53823   0.18392   0.00000  Uiso   1.00
O344   O     0.83334   0.46177   0.31607   0.00000  Uiso   1.00
O345   O     0.83334   0.53823   0.31607   0.00000  Uiso   1.00
O346   O     0.83333   0.46177   0.18392   0.00000  Uiso   1.00
Zn347  Zn    0.83333   0.55104   0.25000   0.00000  Uiso   1.00
Zn348  Zn    0.83333   0.44896   0.25000   0.00000  Uiso   1.00
Br349  Br    0.13276   0.69640   0.44891   0.00000  Uiso   1.00
Br350  Br    0.20057   0.97026   0.05109   0.00000  Uiso   1.00
C351   C     0.08661   0.83333   0.24997   0.00000  Uiso   1.00
C352   C     0.04247   0.83333   0.24996   0.00000  Uiso   1.00
C353   C     0.19224   0.69065   0.27807   0.00000  Uiso   1.00
C354   C     0.14109   0.97602   0.22193   0.00000  Uiso   1.00
C355   C     0.14109   0.69069   0.22193   0.00000  Uiso   1.00
C356   C     0.19224   0.97598   0.27807   0.00000  Uiso   1.00
C357   C     0.16665   0.83336   0.16328   0.00000  Uiso   1.00
C358   C     0.16668   0.83331   0.33672   0.00000  Uiso   1.00
C359   C     0.17634   0.87305   0.40745   0.00000  Uiso   1.00
C360   C     0.15700   0.79362   0.09255   0.00000  Uiso   1.00
C361   C     0.16667   0.83322   0.38462   0.00000  Uiso   1.00
C362   C     0.24672   0.83333   0.25003   0.00000  Uiso   1.00
C363   C     0.16666   0.83344   0.11538   0.00000  Uiso   1.00
C364   C     0.15698   0.79328   0.40741   0.00000  Uiso   1.00
C365   C     0.17635   0.87339   0.09259   0.00000  Uiso   1.00
C366   C     0.15673   0.79265   0.45366   0.00000  Uiso   1.00
C367   C     0.17660   0.87402   0.04634   0.00000  Uiso   1.00
C368   C     0.16663   0.83313   0.47680   0.00000  Uiso   1.00
C369   C     0.16671   0.83354   0.02320   0.00000  Uiso   1.00
C370   C     0.17648   0.87328   0.45349   0.00000  Uiso   1.00
C371   C     0.15686   0.79338   0.04651   0.00000  Uiso   1.00
C372   C     0.14682   0.75281   0.47738   0.00000  Uiso   1.00
C373   C     0.14693   0.75354   0.02365   0.00000  Uiso   1.00
C374   C     0.18651   0.91386   0.02262   0.00000  Uiso   1.00
C375   C     0.18640   0.91312   0.47635   0.00000  Uiso   1.00
C376   C     0.02132   0.79285   0.25850   0.00000  Uiso   1.00
C377   C     0.31202   0.87381   0.24150   0.00000  Uiso   1.00
C378   C     0.31205   0.79286   0.25854   0.00000  Uiso   1.00
C379   C     0.02129   0.87381   0.24146   0.00000  Uiso   1.00
C380   C     0.29086   0.83334   0.25003   0.00000  Uiso   1.00
H381   H     0.18407   0.90381   0.38941   0.00000  Uiso   1.00
H382   H     0.03750   0.90525   0.23452   0.00000  Uiso   1.00
H383   H     0.21267   0.70886   0.30048   0.00000  Uiso   1.00
H384   H     0.12066   0.95780   0.19952   0.00000  Uiso   1.00
H385   H     0.12067   0.70894   0.19951   0.00000  Uiso   1.00
H386   H     0.21267   0.95773   0.30049   0.00000  Uiso   1.00
H387   H     0.14927   0.76285   0.11059   0.00000  Uiso   1.00
H388   H     0.14936   0.76300   0.38877   0.00000  Uiso   1.00
H389   H     0.18397   0.90366   0.11123   0.00000  Uiso   1.00
H390   H     0.13920   0.72289   0.04180   0.00000  Uiso   1.00
H391   H     0.19414   0.94378   0.45820   0.00000  Uiso   1.00
H392   H     0.03756   0.76140   0.26540   0.00000  Uiso   1.00
H393   H     0.29578   0.90526   0.23460   0.00000  Uiso   1.00
H394   H     0.29583   0.76142   0.26548   0.00000  Uiso   1.00
N395   N     0.16667   0.95240   0.25000   0.00000  Uiso   1.00
N396   N     0.16667   0.71427   0.25000   0.00000  Uiso   1.00
O397   O     0.10559   0.87154   0.24999   0.00000  Uiso   1.00
O398   O     0.22774   0.79513   0.25000   0.00000  Uiso   1.00
O399   O     0.22774   0.87154   0.25000   0.00000  Uiso   1.00
O400   O     0.10559   0.79513   0.24999   0.00000  Uiso   1.00
O401   O     0.16666   0.87156   0.18392   0.00000  Uiso   1.00
O402   O     0.16667   0.79511   0.31607   0.00000  Uiso   1.00
O403   O     0.16667   0.87156   0.31607   0.00000  Uiso   1.00
O404   O     0.16666   0.79511   0.18392   0.00000  Uiso   1.00
Zn405  Zn    0.16667   0.88437   0.25000   0.00000  Uiso   1.00
Zn406  Zn    0.16667   0.78229   0.25000   0.00000  Uiso   1.00
Br407  Br    0.46609   0.69640   0.44891   0.00000  Uiso   1.00
Br408  Br    0.53391   0.97026   0.05109   0.00000  Uiso   1.00
C409   C     0.41994   0.83333   0.24997   0.00000  Uiso   1.00
C410   C     0.37580   0.83333   0.24996   0.00000  Uiso   1.00
C411   C     0.52557   0.69065   0.27807   0.00000  Uiso   1.00
C412   C     0.47443   0.97602   0.22193   0.00000  Uiso   1.00
C413   C     0.47443   0.69069   0.22193   0.00000  Uiso   1.00
C414   C     0.52557   0.97598   0.27807   0.00000  Uiso   1.00
C415   C     0.49998   0.83336   0.16328   0.00000  Uiso   1.00
C416   C     0.50002   0.83331   0.33672   0.00000  Uiso   1.00
C417   C     0.50967   0.87305   0.40745   0.00000  Uiso   1.00
C418   C     0.49033   0.79362   0.09255   0.00000  Uiso   1.00
C419   C     0.50000   0.83322   0.38462   0.00000  Uiso   1.00
C420   C     0.58006   0.83333   0.25003   0.00000  Uiso   1.00
C421   C     0.50000   0.83344   0.11538   0.00000  Uiso   1.00
C422   C     0.49032   0.79328   0.40741   0.00000  Uiso   1.00
C423   C     0.50968   0.87339   0.09259   0.00000  Uiso   1.00
C424   C     0.49007   0.79265   0.45366   0.00000  Uiso   1.00
C425   C     0.50993   0.87402   0.04634   0.00000  Uiso   1.00
C426   C     0.49996   0.83313   0.47680   0.00000  Uiso   1.00
C427   C     0.50004   0.83354   0.02320   0.00000  Uiso   1.00
C428   C     0.50981   0.87328   0.45349   0.00000  Uiso   1.00
C429   C     0.49019   0.79338   0.04651   0.00000  Uiso   1.00
C430   C     0.48015   0.75281   0.47738   0.00000  Uiso   1.00
C431   C     0.48027   0.75354   0.02365   0.00000  Uiso   1.00
C432   C     0.51985   0.91386   0.02262   0.00000  Uiso   1.00
C433   C     0.51973   0.91312   0.47635   0.00000  Uiso   1.00
C434   C     0.35465   0.79285   0.25850   0.00000  Uiso   1.00
C435   C     0.64535   0.87381   0.24150   0.00000  Uiso   1.00
C436   C     0.64538   0.79286   0.25854   0.00000  Uiso   1.00
C437   C     0.35462   0.87381   0.24146   0.00000  Uiso   1.00
C438   C     0.62420   0.83334   0.25003   0.00000  Uiso   1.00
H439   H     0.51740   0.90381   0.38941   0.00000  Uiso   1.00
H440   H     0.37084   0.90525   0.23452   0.00000  Uiso   1.00
H441   H     0.54601   0.70886   0.30048   0.00000  Uiso   1.00
H442   H     0.45399   0.95780   0.19952   0.00000  Uiso   1.00
H443   H     0.45400   0.70894   0.19951   0.00000  Uiso   1.00
H444   H     0.54600   0.95773   0.30049   0.00000  Uiso   1.00
H445   H     0.48260   0.76285   0.11059   0.00000  Uiso   1.00
H446   H     0.48270   0.76300   0.38877   0.00000  Uiso   1.00
H447   H     0.51730   0.90366   0.11123   0.00000  Uiso   1.00
H448   H     0.47253   0.72289   0.04180   0.00000  Uiso   1.00
H449   H     0.52747   0.94378   0.45820   0.00000  Uiso   1.00
H450   H     0.37089   0.76140   0.26540   0.00000  Uiso   1.00
H451   H     0.62911   0.90526   0.23460   0.00000  Uiso   1.00
H452   H     0.62917   0.76142   0.26548   0.00000  Uiso   1.00
N453   N     0.50000   0.95240   0.25000   0.00000  Uiso   1.00
N454   N     0.50000   0.71427   0.25000   0.00000  Uiso   1.00
O455   O     0.43892   0.87154   0.24999   0.00000  Uiso   1.00
O456   O     0.56108   0.79513   0.25000   0.00000  Uiso   1.00
O457   O     0.56108   0.87154   0.25000   0.00000  Uiso   1.00
O458   O     0.43892   0.79513   0.24999   0.00000  Uiso   1.00
O459   O     0.49999   0.87156   0.18392   0.00000  Uiso   1.00
O460   O     0.50001   0.79511   0.31607   0.00000  Uiso   1.00
O461   O     0.50001   0.87156   0.31607   0.00000  Uiso   1.00
O462   O     0.49999   0.79511   0.18392   0.00000  Uiso   1.00
Zn463  Zn    0.50000   0.88437   0.25000   0.00000  Uiso   1.00
Zn464  Zn    0.50000   0.78229   0.25000   0.00000  Uiso   1.00
Br465  Br    0.79943   0.69640   0.44891   0.00000  Uiso   1.00
Br466  Br    0.86724   0.97026   0.05109   0.00000  Uiso   1.00
C467   C     0.75328   0.83333   0.24997   0.00000  Uiso   1.00
C468   C     0.70914   0.83333   0.24996   0.00000  Uiso   1.00
C469   C     0.85891   0.69065   0.27807   0.00000  Uiso   1.00
C470   C     0.80776   0.97602   0.22193   0.00000  Uiso   1.00
C471   C     0.80776   0.69069   0.22193   0.00000  Uiso   1.00
C472   C     0.85891   0.97598   0.27807   0.00000  Uiso   1.00
C473   C     0.83332   0.83336   0.16328   0.00000  Uiso   1.00
C474   C     0.83335   0.83331   0.33672   0.00000  Uiso   1.00
C475   C     0.84300   0.87305   0.40745   0.00000  Uiso   1.00
C476   C     0.82366   0.79362   0.09255   0.00000  Uiso   1.00
C477   C     0.83334   0.83322   0.38462   0.00000  Uiso   1.00
C478   C     0.91339   0.83333   0.25003   0.00000  Uiso   1.00
C479   C     0.83333   0.83344   0.11538   0.00000  Uiso   1.00
C480   C     0.82365   0.79328   0.40741   0.00000  Uiso   1.00
C481   C     0.84302   0.87339   0.09259   0.00000  Uiso   1.00
C482   C     0.82340   0.79265   0.45366   0.00000  Uiso   1.00
C483   C     0.84327   0.87402   0.04634   0.00000  Uiso   1.00
C484   C     0.83330   0.83313   0.47680   0.00000  Uiso   1.00
C485   C     0.83337   0.83354   0.02320   0.00000  Uiso   1.00
C486   C     0.84314   0.87328   0.45349   0.00000  Uiso   1.00
C487   C     0.82352   0.79338   0.04651   0.00000  Uiso   1.00
C488   C     0.81349   0.75281   0.47738   0.00000  Uiso   1.00
C489   C     0.81360   0.75354   0.02365   0.00000  Uiso   1.00
C490   C     0.85318   0.91386   0.02262   0.00000  Uiso   1.00
C491   C     0.85307   0.91312   0.47635   0.00000  Uiso   1.00
C492   C     0.68798   0.79285   0.25850   0.00000  Uiso   1.00
C493   C     0.97868   0.87381   0.24150   0.00000  Uiso   1.00
C494   C     0.97871   0.79286   0.25854   0.00000  Uiso   1.00
C495   C     0.68795   0.87381   0.24146   0.00000  Uiso   1.00
C496   C     0.95753   0.83334   0.25003   0.00000  Uiso   1.00
H497   H     0.85073   0.90381   0.38941   0.00000  Uiso   1.00
H498   H     0.70417   0.90525   0.23452   0.00000  Uiso   1.00
H499   H     0.87934   0.70886   0.30048   0.00000  Uiso   1.00
H500   H     0.78733   0.95780   0.19952   0.00000  Uiso   1.00
H501   H     0.78733   0.70894   0.19951   0.00000  Uiso   1.00
H502   H     0.87933   0.95773   0.30049   0.00000  Uiso   1.00
H503   H     0.81593   0.76285   0.11059   0.00000  Uiso   1.00
H504   H     0.81603   0.76300   0.38877   0.00000  Uiso   1.00
H505   H     0.85064   0.90366   0.11123   0.00000  Uiso   1.00
H506   H     0.80586   0.72289   0.04180   0.00000  Uiso   1.00
H507   H     0.86080   0.94378   0.45820   0.00000  Uiso   1.00
H508   H     0.70422   0.76140   0.26540   0.00000  Uiso   1.00
H509   H     0.96244   0.90526   0.23460   0.00000  Uiso   1.00
H510   H     0.96250   0.76142   0.26548   0.00000  Uiso   1.00
N511   N     0.83333   0.95240   0.25000   0.00000  Uiso   1.00
N512   N     0.83333   0.71427   0.25000   0.00000  Uiso   1.00
O513   O     0.77226   0.87154   0.24999   0.00000  Uiso   1.00
O514   O     0.89441   0.79513   0.25000   0.00000  Uiso   1.00
O515   O     0.89441   0.87154   0.25000   0.00000  Uiso   1.00
O516   O     0.77226   0.79513   0.24999   0.00000  Uiso   1.00
O517   O     0.83333   0.87156   0.18392   0.00000  Uiso   1.00
O518   O     0.83334   0.79511   0.31607   0.00000  Uiso   1.00
O519   O     0.83334   0.87156   0.31607   0.00000  Uiso   1.00
O520   O     0.83333   0.79511   0.18392   0.00000  Uiso   1.00
Zn521  Zn    0.83333   0.88437   0.25000   0.00000  Uiso   1.00
Zn522  Zn    0.83333   0.78229   0.25000   0.00000  Uiso   1.00
Br523  Br    0.13276   0.02974   0.94891   0.00000  Uiso   1.00
Br524  Br    0.20057   0.30360   0.55109   0.00000  Uiso   1.00
C525   C     0.08661   0.16667   0.74997   0.00000  Uiso   1.00
C526   C     0.04247   0.16666   0.74996   0.00000  Uiso   1.00
C527   C     0.19224   0.02398   0.77807   0.00000  Uiso   1.00
C528   C     0.14109   0.30935   0.72193   0.00000  Uiso   1.00
C529   C     0.14109   0.02402   0.72193   0.00000  Uiso   1.00
C530   C     0.19224   0.30931   0.77807   0.00000  Uiso   1.00
C531   C     0.16665   0.16669   0.66328   0.00000  Uiso   1.00
C532   C     0.16668   0.16664   0.83672   0.00000  Uiso   1.00
C533   C     0.17634   0.20638   0.90745   0.00000  Uiso   1.00
C534   C     0.15700   0.12695   0.59255   0.00000  Uiso   1.00
C535   C     0.16667   0.16656   0.88462   0.00000  Uiso   1.00
C536   C     0.24672   0.16667   0.75003   0.00000  Uiso   1.00
C537   C     0.16666   0.16678   0.61538   0.00000  Uiso   1.00
C538   C     0.15698   0.12661   0.90741   0.00000  Uiso   1.00
C539   C     0.17635   0.20672   0.59259   0.00000  Uiso   1.00
C540   C     0.15673   0.12598   0.95366   0.00000  Uiso   1.00
C541   C     0.17660   0.20735   0.54634   0.00000  Uiso   1.00
C542   C     0.16663   0.16646   0.97680   0.00000  Uiso   1.00
C543   C     0.16671   0.16687   0.52320   0.00000  Uiso   1.00
C544   C     0.17648   0.20662   0.95349   0.00000  Uiso   1.00
C545   C     0.15686   0.12672   0.54651   0.00000  Uiso   1.00
C546   C     0.14682   0.08614   0.97738   0.00000  Uiso   1.00
C547   C     0.14693   0.08688   0.52365   0.00000  Uiso   1.00
C548   C     0.18651   0.24719   0.52262   0.00000  Uiso   1.00
C549   C     0.18640   0.24646   0.97635   0.00000  Uiso   1.00
C550   C     0.02132   0.12619   0.75850   0.00000  Uiso   1.00
C551   C     0.31202   0.20715   0.74150   0.00000  Uiso   1.00
C552   C     0.31205   0.12619   0.75854   0.00000  Uiso   1.00
C553   C     0.02129   0.20714   0.74146   0.00000  Uiso   1.00
C554   C     0.29086   0.16667   0.75003   0.00000  Uiso   1.00
H555   H     0.18407   0.23715   0.88941   0.00000  Uiso   1.00
H556   H     0.03750   0.23858   0.73452   0.00000  Uiso   1.00
H557   H     0.21267   0.04220   0.80048   0.00000  Uiso   1.00
H558   H     0.12066   0.29114   0.69952   0.00000  Uiso   1.00
H559   H     0.12067   0.04227   0.69951   0.00000  Uiso   1.00
H560   H     0.21267   0.29106   0.80049   0.00000  Uiso   1.00
H561   H     0.14927   0.09619   0.61059   0.00000  Uiso   1.00
H562   H     0.14936   0.09634   0.88877   0.00000  Uiso   1.00
H563   H     0.18397   0.23700   0.61123   0.00000  Uiso   1.00
H564   H     0.13920   0.05622   0.54180   0.00000  Uiso   1.00
H565   H     0.19414   0.27711   0.95820   0.00000  Uiso   1.00
H566   H     0.03756   0.09474   0.76540   0.00000  Uiso   1.00
H567   H     0.29578   0.23860   0.73460   0.00000  Uiso   1.00
H568   H     0.29583   0.09475   0.76548   0.00000  Uiso   1.00
N569   N     0.16667   0.28573   0.75000   0.00000  Uiso   1.00
N570   N     0.16667   0.04760   0.75000   0.00000  Uiso   1.00
O571   O     0.10559   0.20487   0.74999   0.00000  Uiso   1.00
O572   O     0.22774   0.12846   0.75000   0.00000  Uiso   1.00
O573   O     0.22774   0.20487   0.75000   0.00000  Uiso   1.00
O574   O     0.10559   0.12846   0.74999   0.00000  Uiso   1.00
O575   O     0.16666   0.20489   0.68392   0.00000  Uiso   1.00
O576   O     0.16667   0.12844   0.81607   0.00000  Uiso   1.00
O577   O     0.16667   0.20489   0.81607   0.00000  Uiso   1.00
O578   O     0.16666   0.12844   0.68392   0.00000  Uiso   1.00
Zn579  Zn    0.16667   0.21771   0.75000   0.00000  Uiso   1.00
Zn580  Zn    0.16667   0.11563   0.75000   0.00000  Uiso   1.00
Br581  Br    0.46609   0.02974   0.94891   0.00000  Uiso   1.00
Br582  Br    0.53391   0.30360   0.55109   0.00000  Uiso   1.00
C583   C     0.41994   0.16667   0.74997   0.00000  Uiso   1.00
C584   C     0.37580   0.16666   0.74996   0.00000  Uiso   1.00
C585   C     0.52557   0.02398   0.77807   0.00000  Uiso   1.00
C586   C     0.47443   0.30935   0.72193   0.00000  Uiso   1.00
C587   C     0.47443   0.02402   0.72193   0.00000  Uiso   1.00
C588   C     0.52557   0.30931   0.77807   0.00000  Uiso   1.00
C589   C     0.49998   0.16669   0.66328   0.00000  Uiso   1.00
C590   C     0.50002   0.16664   0.83672   0.00000  Uiso   1.00
C591   C     0.50967   0.20638   0.90745   0.00000  Uiso   1.00
C592   C     0.49033   0.12695   0.59255   0.00000  Uiso   1.00
C593   C     0.50000   0.16656   0.88462   0.00000  Uiso   1.00
C594   C     0.58006   0.16667   0.75003   0.00000  Uiso   1.00
C595   C     0.50000   0.16678   0.61538   0.00000  Uiso   1.00
C596   C     0.49032   0.12661   0.90741   0.00000  Uiso   1.00
C597   C     0.50968   0.20672   0.59259   0.00000  Uiso   1.00
C598   C     0.49007   0.12598   0.95366   0.00000  Uiso   1.00
C599   C     0.50993   0.20735   0.54634   0.00000  Uiso   1.00
C600   C     0.49996   0.16646   0.97680   0.00000  Uiso   1.00
C601   C     0.50004   0.16687   0.52320   0.00000  Uiso   1.00
C602   C     0.50981   0.20662   0.95349   0.00000  Uiso   1.00
C603   C     0.49019   0.12672   0.54651   0.00000  Uiso   1.00
C604   C     0.48015   0.08614   0.97738   0.00000  Uiso   1.00
C605   C     0.48027   0.08688   0.52365   0.00000  Uiso   1.00
C606   C     0.51985   0.24719   0.52262   0.00000  Uiso   1.00
C607   C     0.51973   0.24646   0.97635   0.00000  Uiso   1.00
C608   C     0.35465   0.12619   0.75850   0.00000  Uiso   1.00
C609   C     0.64535   0.20715   0.74150   0.00000  Uiso   1.00
C610   C     0.64538   0.12619   0.75854   0.00000  Uiso   1.00
C611   C     0.35462   0.20714   0.74146   0.00000  Uiso   1.00
C612   C     0.62420   0.16667   0.75003   0.00000  Uiso   1.00
H613   H     0.51740   0.23715   0.88941   0.00000  Uiso   1.00
H614   H     0.37084   0.23858   0.73452   0.00000  Uiso   1.00
H615   H     0.54601   0.04220   0.80048   0.00000  Uiso   1.00
H616   H     0.45399   0.29114   0.69952   0.00000  Uiso   1.00
H617   H     0.45400   0.04227   0.69951   0.00000  Uiso   1.00
H618   H     0.54600   0.29106   0.80049   0.00000  Uiso   1.00
H619   H     0.48260   0.09619   0.61059   0.00000  Uiso   1.00
H620   H     0.48270   0.09634   0.88877   0.00000  Uiso   1.00
H621   H     0.51730   0.23700   0.61123   0.00000  Uiso   1.00
H622   H     0.47253   0.05622   0.54180   0.00000  Uiso   1.00
H623   H     0.52747   0.27711   0.95820   0.00000  Uiso   1.00
H624   H     0.37089   0.09474   0.76540   0.00000  Uiso   1.00
H625   H     0.62911   0.23860   0.73460   0.00000  Uiso   1.00
H626   H     0.62917   0.09475   0.76548   0.00000  Uiso   1.00
N627   N     0.50000   0.28573   0.75000   0.00000  Uiso   1.00
N628   N     0.50000   0.04760   0.75000   0.00000  Uiso   1.00
O629   O     0.43892   0.20487   0.74999   0.00000  Uiso   1.00
O630   O     0.56108   0.12846   0.75000   0.00000  Uiso   1.00
O631   O     0.56108   0.20487   0.75000   0.00000  Uiso   1.00
O632   O     0.43892   0.12846   0.74999   0.00000  Uiso   1.00
O633   O     0.49999   0.20489   0.68392   0.00000  Uiso   1.00
O634   O     0.50001   0.12844   0.81607   0.00000  Uiso   1.00
O635   O     0.50001   0.20489   0.81607   0.00000  Uiso   1.00
O636   O     0.49999   0.12844   0.68392   0.00000  Uiso   1.00
Zn637  Zn    0.50000   0.21771   0.75000   0.00000  Uiso   1.00
Zn638  Zn    0.50000   0.11563   0.75000   0.00000  Uiso   1.00
Br639  Br    0.79943   0.02974   0.94891   0.00000  Uiso   1.00
Br640  Br    0.86724   0.30360   0.55109   0.00000  Uiso   1.00
C641   C     0.75328   0.16667   0.74997   0.00000  Uiso   1.00
C642   C     0.70914   0.16666   0.74996   0.00000  Uiso   1.00
C643   C     0.85891   0.02398   0.77807   0.00000  Uiso   1.00
C644   C     0.80776   0.30935   0.72193   0.00000  Uiso   1.00
C645   C     0.80776   0.02402   0.72193   0.00000  Uiso   1.00
C646   C     0.85891   0.30931   0.77807   0.00000  Uiso   1.00
C647   C     0.83332   0.16669   0.66328   0.00000  Uiso   1.00
C648   C     0.83335   0.16664   0.83672   0.00000  Uiso   1.00
C649   C     0.84300   0.20638   0.90745   0.00000  Uiso   1.00
C650   C     0.82366   0.12695   0.59255   0.00000  Uiso   1.00
C651   C     0.83334   0.16656   0.88462   0.00000  Uiso   1.00
C652   C     0.91339   0.16667   0.75003   0.00000  Uiso   1.00
C653   C     0.83333   0.16678   0.61538   0.00000  Uiso   1.00
C654   C     0.82365   0.12661   0.90741   0.00000  Uiso   1.00
C655   C     0.84302   0.20672   0.59259   0.00000  Uiso   1.00
C656   C     0.82340   0.12598   0.95366   0.00000  Uiso   1.00
C657   C     0.84327   0.20735   0.54634   0.00000  Uiso   1.00
C658   C     0.83330   0.16646   0.97680   0.00000  Uiso   1.00
C659   C     0.83337   0.16687   0.52320   0.00000  Uiso   1.00
C660   C     0.84314   0.20662   0.95349   0.00000  Uiso   1.00
C661   C     0.82352   0.12672   0.54651   0.00000  Uiso   1.00
C662   C     0.81349   0.08614   0.97738   0.00000  Uiso   1.00
C663   C     0.81360   0.08688   0.52365   0.00000  Uiso   1.00
C664   C     0.85318   0.24719   0.52262   0.00000  Uiso   1.00
C665   C     0.85307   0.24646   0.97635   0.00000  Uiso   1.00
C666   C     0.68798   0.12619   0.75850   0.00000  Uiso   1.00
C667   C     0.97868   0.20715   0.74150   0.00000  Uiso   1.00
C668   C     0.97871   0.12619   0.75854   0.00000  Uiso   1.00
C669   C     0.68795   0.20714   0.74146   0.00000  Uiso   1.00
C670   C     0.95753   0.16667   0.75003   0.00000  Uiso   1.00
H671   H     0.85073   0.23715   0.88941   0.00000  Uiso   1.00
H672   H     0.70417   0.23858   0.73452   0.00000  Uiso   1.00
H673   H     0.87934   0.04220   0.80048   0.00000  Uiso   1.00
H674   H     0.78733   0.29114   0.69952   0.00000  Uiso   1.00
H675   H     0.78733   0.04227   0.69951   0.00000  Uiso   1.00
H676   H     0.87933   0.29106   0.80049   0.00000  Uiso   1.00
H677   H     0.81593   0.09619   0.61059   0.00000  Uiso   1.00
H678   H     0.81603   0.09634   0.88877   0.00000  Uiso   1.00
H679   H     0.85064   0.23700   0.61123   0.00000  Uiso   1.00
H680   H     0.80586   0.05622   0.54180   0.00000  Uiso   1.00
H681   H     0.86080   0.27711   0.95820   0.00000  Uiso   1.00
H682   H     0.70422   0.09474   0.76540   0.00000  Uiso   1.00
H683   H     0.96244   0.23860   0.73460   0.00000  Uiso   1.00
H684   H     0.96250   0.09475   0.76548   0.00000  Uiso   1.00
N685   N     0.83333   0.28573   0.75000   0.00000  Uiso   1.00
N686   N     0.83333   0.04760   0.75000   0.00000  Uiso   1.00
O687   O     0.77226   0.20487   0.74999   0.00000  Uiso   1.00
O688   O     0.89441   0.12846   0.75000   0.00000  Uiso   1.00
O689   O     0.89441   0.20487   0.75000   0.00000  Uiso   1.00
O690   O     0.77226   0.12846   0.74999   0.00000  Uiso   1.00
O691   O     0.83333   0.20489   0.68392   0.00000  Uiso   1.00
O692   O     0.83334   0.12844   0.81607   0.00000  Uiso   1.00
O693   O     0.83334   0.20489   0.81607   0.00000  Uiso   1.00
O694   O     0.83333   0.12844   0.68392   0.00000  Uiso   1.00
Zn695  Zn    0.83333   0.21771   0.75000   0.00000  Uiso   1.00
Zn696  Zn    0.83333   0.11563   0.75000   0.00000  Uiso   1.00
Br697  Br    0.13276   0.36307   0.94891   0.00000  Uiso   1.00
Br698  Br    0.20057   0.63693   0.55109   0.00000  Uiso   1.00
C699   C     0.08661   0.50000   0.74997   0.00000  Uiso   1.00
C700   C     0.04247   0.50000   0.74996   0.00000  Uiso   1.00
C701   C     0.19224   0.35732   0.77807   0.00000  Uiso   1.00
C702   C     0.14109   0.64269   0.72193   0.00000  Uiso   1.00
C703   C     0.14109   0.35736   0.72193   0.00000  Uiso   1.00
C704   C     0.19224   0.64264   0.77807   0.00000  Uiso   1.00
C705   C     0.16665   0.50002   0.66328   0.00000  Uiso   1.00
C706   C     0.16668   0.49998   0.83672   0.00000  Uiso   1.00
C707   C     0.17634   0.53971   0.90745   0.00000  Uiso   1.00
C708   C     0.15700   0.46029   0.59255   0.00000  Uiso   1.00
C709   C     0.16667   0.49989   0.88462   0.00000  Uiso   1.00
C710   C     0.24672   0.50000   0.75003   0.00000  Uiso   1.00
C711   C     0.16666   0.50011   0.61538   0.00000  Uiso   1.00
C712   C     0.15698   0.45995   0.90741   0.00000  Uiso   1.00
C713   C     0.17635   0.54005   0.59259   0.00000  Uiso   1.00
C714   C     0.15673   0.45931   0.95366   0.00000  Uiso   1.00
C715   C     0.17660   0.54069   0.54634   0.00000  Uiso   1.00
C716   C     0.16663   0.49980   0.97680   0.00000  Uiso   1.00
C717   C     0.16671   0.50020   0.52320   0.00000  Uiso   1.00
C718   C     0.17648   0.53995   0.95349   0.00000  Uiso   1.00
C719   C     0.15686   0.46005   0.54651   0.00000  Uiso   1.00
C720   C     0.14682   0.41947   0.97738   0.00000  Uiso   1.00
C721   C     0.14693   0.42021   0.52365   0.00000  Uiso   1.00
C722   C     0.18651   0.58053   0.52262   0.00000  Uiso   1.00
C723   C     0.18640   0.57979   0.97635   0.00000  Uiso   1.00
C724   C     0.02132   0.45952   0.75850   0.00000  Uiso   1.00
C725   C     0.31202   0.54048   0.74150   0.00000  Uiso   1.00
C726   C     0.31205   0.45953   0.75854   0.00000  Uiso   1.00
C727   C     0.02129   0.54047   0.74146   0.00000  Uiso   1.00
C728   C     0.29086   0.50001   0.75003   0.00000  Uiso   1.00
H729   H     0.18407   0.57048   0.88941   0.00000  Uiso   1.00
H730   H     0.03750   0.57192   0.73452   0.00000  Uiso   1.00
H731   H     0.21267   0.37553   0.80048   0.00000  Uiso   1.00
H732   H     0.12066   0.62447   0.69952   0.00000  Uiso   1.00
H733   H     0.12067   0.37560   0.69951   0.00000  Uiso   1.00
H734   H     0.21267   0.62440   0.80049   0.00000  Uiso   1.00
H735   H     0.14927   0.42952   0.61059   0.00000  Uiso   1.00
H736   H     0.14936   0.42967   0.88877   0.00000  Uiso   1.00
H737   H     0.18397   0.57033   0.61123   0.00000  Uiso   1.00
H738   H     0.13920   0.38956   0.54180   0.00000  Uiso   1.00
H739   H     0.19414   0.61044   0.95820   0.00000  Uiso   1.00
H740   H     0.03756   0.42807   0.76540   0.00000  Uiso   1.00
H741   H     0.29578   0.57193   0.73460   0.00000  Uiso   1.00
H742   H     0.29583   0.42808   0.76548   0.00000  Uiso   1.00
N743   N     0.16667   0.61907   0.75000   0.00000  Uiso   1.00
N744   N     0.16667   0.38093   0.75000   0.00000  Uiso   1.00
O745   O     0.10559   0.53821   0.74999   0.00000  Uiso   1.00
O746   O     0.22774   0.46179   0.75000   0.00000  Uiso   1.00
O747   O     0.22774   0.53821   0.75000   0.00000  Uiso   1.00
O748   O     0.10559   0.46179   0.74999   0.00000  Uiso   1.00
O749   O     0.16666   0.53823   0.68392   0.00000  Uiso   1.00
O750   O     0.16667   0.46177   0.81607   0.00000  Uiso   1.00
O751   O     0.16667   0.53823   0.81607   0.00000  Uiso   1.00
O752   O     0.16666   0.46177   0.68392   0.00000  Uiso   1.00
Zn753  Zn    0.16667   0.55104   0.75000   0.00000  Uiso   1.00
Zn754  Zn    0.16667   0.44896   0.75000   0.00000  Uiso   1.00
Br755  Br    0.46609   0.36307   0.94891   0.00000  Uiso   1.00
Br756  Br    0.53391   0.63693   0.55109   0.00000  Uiso   1.00
C757   C     0.41994   0.50000   0.74997   0.00000  Uiso   1.00
C758   C     0.37580   0.50000   0.74996   0.00000  Uiso   1.00
C759   C     0.52557   0.35732   0.77807   0.00000  Uiso   1.00
C760   C     0.47443   0.64269   0.72193   0.00000  Uiso   1.00
C761   C     0.47443   0.35736   0.72193   0.00000  Uiso   1.00
C762   C     0.52557   0.64264   0.77807   0.00000  Uiso   1.00
C763   C     0.49998   0.50002   0.66328   0.00000  Uiso   1.00
C764   C     0.50002   0.49998   0.83672   0.00000  Uiso   1.00
C765   C     0.50967   0.53971   0.90745   0.00000  Uiso   1.00
C766   C     0.49033   0.46029   0.59255   0.00000  Uiso   1.00
C767   C     0.50000   0.49989   0.88462   0.00000  Uiso   1.00
C768   C     0.58006   0.50000   0.75003   0.00000  Uiso   1.00
C769   C     0.50000   0.50011   0.61538   0.00000  Uiso   1.00
C770   C     0.49032   0.45995   0.90741   0.00000  Uiso   1.00
C771   C     0.50968   0.54005   0.59259   0.00000  Uiso   1.00
C772   C     0.49007   0.45931   0.95366   0.00000  Uiso   1.00
C773   C     0.50993   0.54069   0.54634   0.00000  Uiso   1.00
C774   C     0.49996   0.49980   0.97680   0.00000  Uiso   1.00
C775   C     0.50004   0.50020   0.52320   0.00000  Uiso   1.00
C776   C     0.50981   0.53995   0.95349   0.00000  Uiso   1.00
C777   C     0.49019   0.46005   0.54651   0.00000  Uiso   1.00
C778   C     0.48015   0.41947   0.97738   0.00000  Uiso   1.00
C779   C     0.48027   0.42021   0.52365   0.00000  Uiso   1.00
C780   C     0.51985   0.58053   0.52262   0.00000  Uiso   1.00
C781   C     0.51973   0.57979   0.97635   0.00000  Uiso   1.00
C782   C     0.35465   0.45952   0.75850   0.00000  Uiso   1.00
C783   C     0.64535   0.54048   0.74150   0.00000  Uiso   1.00
C784   C     0.64538   0.45953   0.75854   0.00000  Uiso   1.00
C785   C     0.35462   0.54047   0.74146   0.00000  Uiso   1.00
C786   C     0.62420   0.50001   0.75003   0.00000  Uiso   1.00
H787   H     0.51740   0.57048   0.88941   0.00000  Uiso   1.00
H788   H     0.37084   0.57192   0.73452   0.00000  Uiso   1.00
H789   H     0.54601   0.37553   0.80048   0.00000  Uiso   1.00
H790   H     0.45399   0.62447   0.69952   0.00000  Uiso   1.00
H791   H     0.45400   0.37560   0.69951   0.00000  Uiso   1.00
H792   H     0.54600   0.62440   0.80049   0.00000  Uiso   1.00
H793   H     0.48260   0.42952   0.61059   0.00000  Uiso   1.00
H794   H     0.48270   0.42967   0.88877   0.00000  Uiso   1.00
H795   H     0.51730   0.57033   0.61123   0.00000  Uiso   1.00
H796   H     0.47253   0.38956   0.54180   0.00000  Uiso   1.00
H797   H     0.52747   0.61044   0.95820   0.00000  Uiso   1.00
H798   H     0.37089   0.42807   0.76540   0.00000  Uiso   1.00
H799   H     0.62911   0.57193   0.73460   0.00000  Uiso   1.00
H800   H     0.62917   0.42808   0.76548   0.00000  Uiso   1.00
N801   N     0.50000   0.61907   0.75000   0.00000  Uiso   1.00
N802   N     0.50000   0.38093   0.75000   0.00000  Uiso   1.00
O803   O     0.43892   0.53821   0.74999   0.00000  Uiso   1.00
O804   O     0.56108   0.46179   0.75000   0.00000  Uiso   1.00
O805   O     0.56108   0.53821   0.75000   0.00000  Uiso   1.00
O806   O     0.43892   0.46179   0.74999   0.00000  Uiso   1.00
O807   O     0.49999   0.53823   0.68392   0.00000  Uiso   1.00
O808   O     0.50001   0.46177   0.81607   0.00000  Uiso   1.00
O809   O     0.50001   0.53823   0.81607   0.00000  Uiso   1.00
O810   O     0.49999   0.46177   0.68392   0.00000  Uiso   1.00
Zn811  Zn    0.50000   0.55104   0.75000   0.00000  Uiso   1.00
Zn812  Zn    0.50000   0.44896   0.75000   0.00000  Uiso   1.00
Br813  Br    0.79943   0.36307   0.94891   0.00000  Uiso   1.00
Br814  Br    0.86724   0.63693   0.55109   0.00000  Uiso   1.00
C815   C     0.75328   0.50000   0.74997   0.00000  Uiso   1.00
C816   C     0.70914   0.50000   0.74996   0.00000  Uiso   1.00
C817   C     0.85891   0.35732   0.77807   0.00000  Uiso   1.00
C818   C     0.80776   0.64269   0.72193   0.00000  Uiso   1.00
C819   C     0.80776   0.35736   0.72193   0.00000  Uiso   1.00
C820   C     0.85891   0.64264   0.77807   0.00000  Uiso   1.00
C821   C     0.83332   0.50002   0.66328   0.00000  Uiso   1.00
C822   C     0.83335   0.49998   0.83672   0.00000  Uiso   1.00
C823   C     0.84300   0.53971   0.90745   0.00000  Uiso   1.00
C824   C     0.82366   0.46029   0.59255   0.00000  Uiso   1.00
C825   C     0.83334   0.49989   0.88462   0.00000  Uiso   1.00
C826   C     0.91339   0.50000   0.75003   0.00000  Uiso   1.00
C827   C     0.83333   0.50011   0.61538   0.00000  Uiso   1.00
C828   C     0.82365   0.45995   0.90741   0.00000  Uiso   1.00
C829   C     0.84302   0.54005   0.59259   0.00000  Uiso   1.00
C830   C     0.82340   0.45931   0.95366   0.00000  Uiso   1.00
C831   C     0.84327   0.54069   0.54634   0.00000  Uiso   1.00
C832   C     0.83330   0.49980   0.97680   0.00000  Uiso   1.00
C833   C     0.83337   0.50020   0.52320   0.00000  Uiso   1.00
C834   C     0.84314   0.53995   0.95349   0.00000  Uiso   1.00
C835   C     0.82352   0.46005   0.54651   0.00000  Uiso   1.00
C836   C     0.81349   0.41947   0.97738   0.00000  Uiso   1.00
C837   C     0.81360   0.42021   0.52365   0.00000  Uiso   1.00
C838   C     0.85318   0.58053   0.52262   0.00000  Uiso   1.00
C839   C     0.85307   0.57979   0.97635   0.00000  Uiso   1.00
C840   C     0.68798   0.45952   0.75850   0.00000  Uiso   1.00
C841   C     0.97868   0.54048   0.74150   0.00000  Uiso   1.00
C842   C     0.97871   0.45953   0.75854   0.00000  Uiso   1.00
C843   C     0.68795   0.54047   0.74146   0.00000  Uiso   1.00
C844   C     0.95753   0.50001   0.75003   0.00000  Uiso   1.00
H845   H     0.85073   0.57048   0.88941   0.00000  Uiso   1.00
H846   H     0.70417   0.57192   0.73452   0.00000  Uiso   1.00
H847   H     0.87934   0.37553   0.80048   0.00000  Uiso   1.00
H848   H     0.78733   0.62447   0.69952   0.00000  Uiso   1.00
H849   H     0.78733   0.37560   0.69951   0.00000  Uiso   1.00
H850   H     0.87933   0.62440   0.80049   0.00000  Uiso   1.00
H851   H     0.81593   0.42952   0.61059   0.00000  Uiso   1.00
H852   H     0.81603   0.42967   0.88877   0.00000  Uiso   1.00
H853   H     0.85064   0.57033   0.61123   0.00000  Uiso   1.00
H854   H     0.80586   0.38956   0.54180   0.00000  Uiso   1.00
H855   H     0.86080   0.61044   0.95820   0.00000  Uiso   1.00
H856   H     0.70422   0.42807   0.76540   0.00000  Uiso   1.00
H857   H     0.96244   0.57193   0.73460   0.00000  Uiso   1.00
H858   H     0.96250   0.42808   0.76548   0.00000  Uiso   1.00
N859   N     0.83333   0.61907   0.75000   0.00000  Uiso   1.00
N860   N     0.83333   0.38093   0.75000   0.00000  Uiso   1.00
O861   O     0.77226   0.53821   0.74999   0.00000  Uiso   1.00
O862   O     0.89441   0.46179   0.75000   0.00000  Uiso   1.00
O863   O     0.89441   0.53821   0.75000   0.00000  Uiso   1.00
O864   O     0.77226   0.46179   0.74999   0.00000  Uiso   1.00
O865   O     0.83333   0.53823   0.68392   0.00000  Uiso   1.00
O866   O     0.83334   0.46177   0.81607   0.00000  Uiso   1.00
O867   O     0.83334   0.53823   0.81607   0.00000  Uiso   1.00
O868   O     0.83333   0.46177   0.68392   0.00000  Uiso   1.00
Zn869  Zn    0.83333   0.55104   0.75000   0.00000  Uiso   1.00
Zn870  Zn    0.83333   0.44896   0.75000   0.00000  Uiso   1.00
Br871  Br    0.13276   0.69640   0.94891   0.00000  Uiso   1.00
Br872  Br    0.20057   0.97026   0.55109   0.00000  Uiso   1.00
C873   C     0.08661   0.83333   0.74997   0.00000  Uiso   1.00
C874   C     0.04247   0.83333   0.74996   0.00000  Uiso   1.00
C875   C     0.19224   0.69065   0.77807   0.00000  Uiso   1.00
C876   C     0.14109   0.97602   0.72193   0.00000  Uiso   1.00
C877   C     0.14109   0.69069   0.72193   0.00000  Uiso   1.00
C878   C     0.19224   0.97598   0.77807   0.00000  Uiso   1.00
C879   C     0.16665   0.83336   0.66328   0.00000  Uiso   1.00
C880   C     0.16668   0.83331   0.83672   0.00000  Uiso   1.00
C881   C     0.17634   0.87305   0.90745   0.00000  Uiso   1.00
C882   C     0.15700   0.79362   0.59255   0.00000  Uiso   1.00
C883   C     0.16667   0.83322   0.88462   0.00000  Uiso   1.00
C884   C     0.24672   0.83333   0.75003   0.00000  Uiso   1.00
C885   C     0.16666   0.83344   0.61538   0.00000  Uiso   1.00
C886   C     0.15698   0.79328   0.90741   0.00000  Uiso   1.00
C887   C     0.17635   0.87339   0.59259   0.00000  Uiso   1.00
C888   C     0.15673   0.79265   0.95366   0.00000  Uiso   1.00
C889   C     0.17660   0.87402   0.54634   0.00000  Uiso   1.00
C890   C     0.16663   0.83313   0.97680   0.00000  Uiso   1.00
C891   C     0.16671   0.83354   0.52320   0.00000  Uiso   1.00
C892   C     0.17648   0.87328   0.95349   0.00000  Uiso   1.00
C893   C     0.15686   0.79338   0.54651   0.00000  Uiso   1.00
C894   C     0.14682   0.75281   0.97738   0.00000  Uiso   1.00
C895   C     0.14693   0.75354   0.52365   0.00000  Uiso   1.00
C896   C     0.18651   0.91386   0.52262   0.00000  Uiso   1.00
C897   C     0.18640   0.91312   0.97635   0.00000  Uiso   1.00
C898   C     0.02132   0.79285   0.75850   0.00000  Uiso   1.00
C899   C     0.31202   0.87381   0.74150   0.00000  Uiso   1.00
C900   C     0.31205   0.79286   0.75854   0.00000  Uiso   1.00
C901   C     0.02129   0.87381   0.74146   0.00000  Uiso   1.00
C902   C     0.29086   0.83334   0.75003   0.00000  Uiso   1.00
H903   H     0.18407   0.90381   0.88941   0.00000  Uiso   1.00
H904   H     0.03750   0.90525   0.73452   0.00000  Uiso   1.00
H905   H     0.21267   0.70886   0.80048   0.00000  Uiso   1.00
H906   H     0.12066   0.95780   0.69952   0.00000  Uiso   1.00
H907   H     0.12067   0.70894   0.69951   0.00000  Uiso   1.00
H908   H     0.21267   0.95773   0.80049   0.00000  Uiso   1.00
H909   H     0.14927   0.76285   0.61059   0.00000  Uiso   1.00
H910   H     0.14936   0.76300   0.88877   0.00000  Uiso   1.00
H911   H     0.18397   0.90366   0.61123   0.00000  Uiso   1.00
H912   H     0.13920   0.72289   0.54180   0.00000  Uiso   1.00
H913   H     0.19414   0.94378   0.95820   0.00000  Uiso   1.00
H914   H     0.03756   0.76140   0.76540   0.00000  Uiso   1.00
H915   H     0.29578   0.90526   0.73460   0.00000  Uiso   1.00
H916   H     0.29583   0.76142   0.76548   0.00000  Uiso   1.00
N917   N     0.16667   0.95240   0.75000   0.00000  Uiso   1.00
N918   N     0.16667   0.71427   0.75000   0.00000  Uiso   1.00
O919   O     0.10559   0.87154   0.74999   0.00000  Uiso   1.00
O920   O     0.22774   0.79513   0.75000   0.00000  Uiso   1.00
O921   O     0.22774   0.87154   0.75000   0.00000  Uiso   1.00
O922   O     0.10559   0.79513   0.74999   0.00000  Uiso   1.00
O923   O     0.16666   0.87156   0.68392   0.00000  Uiso   1.00
O924   O     0.16667   0.79511   0.81607   0.00000  Uiso   1.00
O925   O     0.16667   0.87156   0.81607   0.00000  Uiso   1.00
O926   O     0.16666   0.79511   0.68392   0.00000  Uiso   1.00
Zn927  Zn    0.16667   0.88437   0.75000   0.00000  Uiso   1.00
Zn928  Zn    0.16667   0.78229   0.75000   0.00000  Uiso   1.00
Br929  Br    0.46609   0.69640   0.94891   0.00000  Uiso   1.00
Br930  Br    0.53391   0.97026   0.55109   0.00000  Uiso   1.00
C931   C     0.41994   0.83333   0.74997   0.00000  Uiso   1.00
C932   C     0.37580   0.83333   0.74996   0.00000  Uiso   1.00
C933   C     0.52557   0.69065   0.77807   0.00000  Uiso   1.00
C934   C     0.47443   0.97602   0.72193   0.00000  Uiso   1.00
C935   C     0.47443   0.69069   0.72193   0.00000  Uiso   1.00
C936   C     0.52557   0.97598   0.77807   0.00000  Uiso   1.00
C937   C     0.49998   0.83336   0.66328   0.00000  Uiso   1.00
C938   C     0.50002   0.83331   0.83672   0.00000  Uiso   1.00
C939   C     0.50967   0.87305   0.90745   0.00000  Uiso   1.00
C940   C     0.49033   0.79362   0.59255   0.00000  Uiso   1.00
C941   C     0.50000   0.83322   0.88462   0.00000  Uiso   1.00
C942   C     0.58006   0.83333   0.75003   0.00000  Uiso   1.00
C943   C     0.50000   0.83344   0.61538   0.00000  Uiso   1.00
C944   C     0.49032   0.79328   0.90741   0.00000  Uiso   1.00
C945   C     0.50968   0.87339   0.59259   0.00000  Uiso   1.00
C946   C     0.49007   0.79265   0.95366   0.00000  Uiso   1.00
C947   C     0.50993   0.87402   0.54634   0.00000  Uiso   1.00
C948   C     0.49996   0.83313   0.97680   0.00000  Uiso   1.00
C949   C     0.50004   0.83354   0.52320   0.00000  Uiso   1.00
C950   C     0.50981   0.87328   0.95349   0.00000  Uiso   1.00
C951   C     0.49019   0.79338   0.54651   0.00000  Uiso   1.00
C952   C     0.48015   0.75281   0.97738   0.00000  Uiso   1.00
C953   C     0.48027   0.75354   0.52365   0.00000  Uiso   1.00
C954   C     0.51985   0.91386   0.52262   0.00000  Uiso   1.00
C955   C     0.51973   0.91312   0.97635   0.00000  Uiso   1.00
C956   C     0.35465   0.79285   0.75850   0.00000  Uiso   1.00
C957   C     0.64535   0.87381   0.74150   0.00000  Uiso   1.00
C958   C     0.64538   0.79286   0.75854   0.00000  Uiso   1.00
C959   C     0.35462   0.87381   0.74146   0.00000  Uiso   1.00
C960   C     0.62420   0.83334   0.75003   0.00000  Uiso   1.00
H961   H     0.51740   0.90381   0.88941   0.00000  Uiso   1.00
H962   H     0.37084   0.90525   0.73452   0.00000  Uiso   1.00
H963   H     0.54601   0.70886   0.80048   0.00000  Uiso   1.00
H964   H     0.45399   0.95780   0.69952   0.00000  Uiso   1.00
H965   H     0.45400   0.70894   0.69951   0.00000  Uiso   1.00
H966   H     0.54600   0.95773   0.80049   0.00000  Uiso   1.00
H967   H     0.48260   0.76285   0.61059   0.00000  Uiso   1.00
H968   H     0.48270   0.76300   0.88877   0.00000  Uiso   1.00
H969   H     0.51730   0.90366   0.61123   0.00000  Uiso   1.00
H970   H     0.47253   0.72289   0.54180   0.00000  Uiso   1.00
H971   H     0.52747   0.94378   0.95820   0.00000  Uiso   1.00
H972   H     0.37089   0.76140   0.76540   0.00000  Uiso   1.00
H973   H     0.62911   0.90526   0.73460   0.00000  Uiso   1.00
H974   H     0.62917   0.76142   0.76548   0.00000  Uiso   1.00
N975   N     0.50000   0.95240   0.75000   0.00000  Uiso   1.00
N976   N     0.50000   0.71427   0.75000   0.00000  Uiso   1.00
O977   O     0.43892   0.87154   0.74999   0.00000  Uiso   1.00
O978   O     0.56108   0.79513   0.75000   0.00000  Uiso   1.00
O979   O     0.56108   0.87154   0.75000   0.00000  Uiso   1.00
O980   O     0.43892   0.79513   0.74999   0.00000  Uiso   1.00
O981   O     0.49999   0.87156   0.68392   0.00000  Uiso   1.00
O982   O     0.50001   0.79511   0.81607   0.00000  Uiso   1.00
O983   O     0.50001   0.87156   0.81607   0.00000  Uiso   1.00
O984   O     0.49999   0.79511   0.68392   0.00000  Uiso   1.00
Zn985  Zn    0.50000   0.88437   0.75000   0.00000  Uiso   1.00
Zn986  Zn    0.50000   0.78229   0.75000   0.00000  Uiso   1.00
Br987  Br    0.79943   0.69640   0.94891   0.00000  Uiso   1.00
Br988  Br    0.86724   0.97026   0.55109   0.00000  Uiso   1.00
C989   C     0.75328   0.83333   0.74997   0.00000  Uiso   1.00
C990   C     0.70914   0.83333   0.74996   0.00000  Uiso   1.00
C991   C     0.85891   0.69065   0.77807   0.00000  Uiso   1.00
C992   C     0.80776   0.97602   0.72193   0.00000  Uiso   1.00
C993   C     0.80776   0.69069   0.72193   0.00000  Uiso   1.00
C994   C     0.85891   0.97598   0.77807   0.00000  Uiso   1.00
C995   C     0.83332   0.83336   0.66328   0.00000  Uiso   1.00
C996   C     0.83335   0.83331   0.83672   0.00000  Uiso   1.00
C997   C     0.84300   0.87305   0.90745   0.00000  Uiso   1.00
C998   C     0.82366   0.79362   0.59255   0.00000  Uiso   1.00
C999   C     0.83334   0.83322   0.88462   0.00000  Uiso   1.00
C1000  C     0.91339   0.83333   0.75003   0.00000  Uiso   1.00
C1001  C     0.83333   0.83344   0.61538   0.00000  Uiso   1.00
C1002  C     0.82365   0.79328   0.90741   0.00000  Uiso   1.00
C1003  C     0.84302   0.87339   0.59259   0.00000  Uiso   1.00
C1004  C     0.82340   0.79265   0.95366   0.00000  Uiso   1.00
C1005  C     0.84327   0.87402   0.54634   0.00000  Uiso   1.00
C1006  C     0.83330   0.83313   0.97680   0.00000  Uiso   1.00
C1007  C     0.83337   0.83354   0.52320   0.00000  Uiso   1.00
C1008  C     0.84314   0.87328   0.95349   0.00000  Uiso   1.00
C1009  C     0.82352   0.79338   0.54651   0.00000  Uiso   1.00
C1010  C     0.81349   0.75281   0.97738   0.00000  Uiso   1.00
C1011  C     0.81360   0.75354   0.52365   0.00000  Uiso   1.00
C1012  C     0.85318   0.91386   0.52262   0.00000  Uiso   1.00
C1013  C     0.85307   0.91312   0.97635   0.00000  Uiso   1.00
C1014  C     0.68798   0.79285   0.75850   0.00000  Uiso   1.00
C1015  C     0.97868   0.87381   0.74150   0.00000  Uiso   1.00
C1016  C     0.97871   0.79286   0.75854   0.00000  Uiso   1.00
C1017  C     0.68795   0.87381   0.74146   0.00000  Uiso   1.00
C1018  C     0.95753   0.83334   0.75003   0.00000  Uiso   1.00
H1019  H     0.85073   0.90381   0.88941   0.00000  Uiso   1.00
H1020  H     0.70417   0.90525   0.73452   0.00000  Uiso   1.00
H1021  H     0.87934   0.70886   0.80048   0.00000  Uiso   1.00
H1022  H     0.78733   0.95780   0.69952   0.00000  Uiso   1.00
H1023  H     0.78733   0.70894   0.69951   0.00000  Uiso   1.00
H1024  H     0.87933   0.95773   0.80049   0.00000  Uiso   1.00
H1025  H     0.81593   0.76285   0.61059   0.00000  Uiso   1.00
H1026  H     0.81603   0.76300   0.88877   0.00000  Uiso   1.00
H1027  H     0.85064   0.90366   0.61123   0.00000  Uiso   1.00
H1028  H     0.80586   0.72289   0.54180   0.00000  Uiso   1.00
H1029  H     0.86080   0.94378   0.95820   0.00000  Uiso   1.00
H1030  H     0.70422   0.76140   0.76540   0.00000  Uiso   1.00
H1031  H     0.96244   0.90526   0.73460   0.00000  Uiso   1.00
H1032  H     0.96250   0.76142   0.76548   0.00000  Uiso   1.00
N1033  N     0.83333   0.95240   0.75000   0.00000  Uiso   1.00
N1034  N     0.83333   0.71427   0.75000   0.00000  Uiso   1.00
O1035  O     0.77226   0.87154   0.74999   0.00000  Uiso   1.00
O1036  O     0.89441   0.79513   0.75000   0.00000  Uiso   1.00
O1037  O     0.89441   0.87154   0.75000   0.00000  Uiso   1.00
O1038  O     0.77226   0.79513   0.74999   0.00000  Uiso   1.00
O1039  O     0.83333   0.87156   0.68392   0.00000  Uiso   1.00
O1040  O     0.83334   0.79511   0.81607   0.00000  Uiso   1.00
O1041  O     0.83334   0.87156   0.81607   0.00000  Uiso   1.00
O1042  O     0.83333   0.79511   0.68392   0.00000  Uiso   1.00
Zn1043 Zn    0.83333   0.88437   0.75000   0.00000  Uiso   1.00
Zn1044 Zn    0.83333   0.78229   0.75000   0.00000  Uiso   1.00
loop_
_geom_bond_atom_site_label_1
_geom_bond_atom_site_label_2
_geom_bond_distance
_geom_bond_site_symmetry_2
_ccdc_geom_bond_type
Br1    C24     1.923   .     S
Br2    C26     1.923   .     S
C3     O52     1.281   .     A
C3     C4      1.419   .     S
C3     O49     1.281   .     A
C4     C31     1.397   .     A
C4     C28     1.397   .     A
C5     H35     1.082   .     S
C5     N48     1.366   .     A
C5     C356    1.415   1_545 S
C6     N47     1.366   .     A
C6     H36     1.082   .     S
C6     C181    1.415   .     S
C7     N48     1.366   .     A
C7     H37     1.082   .     S
C7     C354    1.415   1_545 S
C8     H38     1.082   .     S
C8     N47     1.366   .     A
C8     C179    1.415   .     S
C9     C15     1.438   .     S
C9     O56     1.286   .     A
C9     O53     1.286   .     A
C10    O55     1.286   .     A
C10    O54     1.286   .     A
C10    C13     1.438   .     S
C11    C22     1.382   .     A
C11    C13     1.394   .     A
C11    H33     1.085   .     S
C12    C15     1.394   .     A
C12    H39     1.085   .     S
C12    C23     1.382   .     A
C13    C16     1.397   .     A
C14    C32     1.419   .     S
C14    O51     1.281   .     A
C14    O50     1.281   .     A
C15    C17     1.397   .     A
C16    H40     1.082   .     S
C16    C18     1.388   .     A
C17    H41     1.082   .     S
C17    C19     1.388   .     A
C18    C24     1.410   .     A
C18    C20     1.417   .     A
C19    C21     1.417   .     A
C19    C26     1.410   .     A
C20    C22     1.411   .     A
C20    C543    1.393   .     S
C21    C23     1.411   .     A
C21    C542    1.393   1_554 S
C22    C27     1.397   .     A
C23    C25     1.397   .     A
C24    C547    1.389   .     S
C25    H42     1.084   .     S
C25    C546    1.389   1_554 S
C26    C549    1.389   1_554 S
C27    H43     1.084   .     S
C27    C548    1.389   .     S
C28    H44     1.084   .     S
C28    C146    1.370   1_455 S
C29    C32     1.397   .     A
C29    H45     1.084   .     S
C29    C89     1.370   .     S
C30    C32     1.397   .     A
C30    H46     1.084   .     S
C30    C86     1.370   .     S
C31    H34     1.084   .     S
C31    C145    1.370   1_455 S
N47    Zn57    2.005   .     S
N48    Zn58    2.005   .     S
O49    Zn57    2.000   .     S
O50    Zn58    2.000   .     S
O51    Zn57    2.000   .     S
O52    Zn58    2.000   .     S
O53    Zn57    2.019   .     S
O54    Zn58    2.019   .     S
O55    Zn57    2.019   .     S
O56    Zn58    2.019   .     S
Br59   C82     1.923   .     S
Br60   C84     1.923   .     S
C61    O110    1.281   .     A
C61    C62     1.419   .     S
C61    O107    1.281   .     A
C62    C89     1.397   .     A
C62    C86     1.397   .     A
C63    H93     1.082   .     S
C63    N106    1.366   .     A
C63    C414    1.415   1_545 S
C64    N105    1.366   .     A
C64    H94     1.082   .     S
C64    C239    1.415   .     S
C65    N106    1.366   .     A
C65    H95     1.082   .     S
C65    C412    1.415   1_545 S
C66    H96     1.082   .     S
C66    N105    1.366   .     A
C66    C237    1.415   .     S
C67    C73     1.438   .     S
C67    O114    1.286   .     A
C67    O111    1.286   .     A
C68    O113    1.286   .     A
C68    O112    1.286   .     A
C68    C71     1.438   .     S
C69    C80     1.382   .     A
C69    C71     1.394   .     A
C69    H91     1.085   .     S
C70    C73     1.394   .     A
C70    H97     1.085   .     S
C70    C81     1.382   .     A
C71    C74     1.397   .     A
C72    C90     1.419   .     S
C72    O109    1.281   .     A
C72    O108    1.281   .     A
C73    C75     1.397   .     A
C74    H98     1.082   .     S
C74    C76     1.388   .     A
C75    H99     1.082   .     S
C75    C77     1.388   .     A
C76    C82     1.410   .     A
C76    C78     1.417   .     A
C77    C79     1.417   .     A
C77    C84     1.410   .     A
C78    C80     1.411   .     A
C78    C601    1.393   .     S
C79    C81     1.411   .     A
C79    C600    1.393   1_554 S
C80    C85     1.397   .     A
C81    C83     1.397   .     A
C82    C605    1.389   .     S
C83    H100    1.084   .     S
C83    C604    1.389   1_554 S
C84    C607    1.389   1_554 S
C85    H101    1.084   .     S
C85    C606    1.389   .     S
C86    H102    1.084   .     S
C87    C90     1.397   .     A
C87    H103    1.084   .     S
C87    C147    1.370   .     S
C88    C90     1.397   .     A
C88    H104    1.084   .     S
C88    C144    1.370   .     S
C89    H92     1.084   .     S
N105   Zn115   2.005   .     S
N106   Zn116   2.005   .     S
O107   Zn115   2.000   .     S
O108   Zn116   2.000   .     S
O109   Zn115   2.000   .     S
O110   Zn116   2.000   .     S
O111   Zn115   2.019   .     S
O112   Zn116   2.019   .     S
O113   Zn115   2.019   .     S
O114   Zn116   2.019   .     S
Br117  C140    1.923   .     S
Br118  C142    1.923   .     S
C119   O168    1.281   .     A
C119   C120    1.419   .     S
C119   O165    1.281   .     A
C120   C147    1.397   .     A
C120   C144    1.397   .     A
C121   H151    1.082   .     S
C121   N164    1.366   .     A
C121   C472    1.415   1_545 S
C122   N163    1.366   .     A
C122   H152    1.082   .     S
C122   C297    1.415   .     S
C123   N164    1.366   .     A
C123   H153    1.082   .     S
C123   C470    1.415   1_545 S
C124   H154    1.082   .     S
C124   N163    1.366   .     A
C124   C295    1.415   .     S
C125   C131    1.438   .     S
C125   O172    1.286   .     A
C125   O169    1.286   .     A
C126   O171    1.286   .     A
C126   O170    1.286   .     A
C126   C129    1.438   .     S
C127   C138    1.382   .     A
C127   C129    1.394   .     A
C127   H149    1.085   .     S
C128   C131    1.394   .     A
C128   H155    1.085   .     S
C128   C139    1.382   .     A
C129   C132    1.397   .     A
C130   C148    1.419   .     S
C130   O167    1.281   .     A
C130   O166    1.281   .     A
C131   C133    1.397   .     A
C132   H156    1.082   .     S
C132   C134    1.388   .     A
C133   H157    1.082   .     S
C133   C135    1.388   .     A
C134   C140    1.410   .     A
C134   C136    1.417   .     A
C135   C137    1.417   .     A
C135   C142    1.410   .     A
C136   C138    1.411   .     A
C136   C659    1.393   .     S
C137   C139    1.411   .     A
C137   C658    1.393   1_554 S
C138   C143    1.397   .     A
C139   C141    1.397   .     A
C140   C663    1.389   .     S
C141   H158    1.084   .     S
C141   C662    1.389   1_554 S
C142   C665    1.389   1_554 S
C143   H159    1.084   .     S
C143   C664    1.389   .     S
C144   H160    1.084   .     S
C145   C148    1.397   .     A
C145   H161    1.084   .     S
C145   C31     1.370   1_655 S
C146   C148    1.397   .     A
C146   H162    1.084   .     S
C146   C28     1.370   1_655 S
C147   H150    1.084   .     S
N163   Zn173   2.005   .     S
N164   Zn174   2.005   .     S
O165   Zn173   2.000   .     S
O166   Zn174   2.000   .     S
O167   Zn173   2.000   .     S
O168   Zn174   2.000   .     S
O169   Zn173   2.019   .     S
O170   Zn174   2.019   .     S
O171   Zn173   2.019   .     S
O172   Zn174   2.019   .     S
Br175  C198    1.923   .     S
Br176  C200    1.923   .     S
C177   O226    1.281   .     A
C177   C178    1.419   .     S
C177   O223    1.281   .     A
C178   C205    1.397   .     A
C178   C202    1.397   .     A
C179   H209    1.082   .     S
C179   N222    1.366   .     A
C180   N221    1.366   .     A
C180   H210    1.082   .     S
C180   C355    1.415   .     S
C181   N222    1.366   .     A
C181   H211    1.082   .     S
C182   H212    1.082   .     S
C182   N221    1.366   .     A
C182   C353    1.415   .     S
C183   C189    1.438   .     S
C183   O230    1.286   .     A
C183   O227    1.286   .     A
C184   O229    1.286   .     A
C184   O228    1.286   .     A
C184   C187    1.438   .     S
C185   C196    1.382   .     A
C185   C187    1.394   .     A
C185   H207    1.085   .     S
C186   C189    1.394   .     A
C186   H213    1.085   .     S
C186   C197    1.382   .     A
C187   C190    1.397   .     A
C188   C206    1.419   .     S
C188   O225    1.281   .     A
C188   O224    1.281   .     A
C189   C191    1.397   .     A
C190   H214    1.082   .     S
C190   C192    1.388   .     A
C191   H215    1.082   .     S
C191   C193    1.388   .     A
C192   C198    1.410   .     A
C192   C194    1.417   .     A
C193   C195    1.417   .     A
C193   C200    1.410   .     A
C194   C196    1.411   .     A
C194   C717    1.393   .     S
C195   C197    1.411   .     A
C195   C716    1.393   1_554 S
C196   C201    1.397   .     A
C197   C199    1.397   .     A
C198   C721    1.389   .     S
C199   H216    1.084   .     S
C199   C720    1.389   1_554 S
C200   C723    1.389   1_554 S
C201   H217    1.084   .     S
C201   C722    1.389   .     S
C202   H218    1.084   .     S
C202   C320    1.370   1_455 S
C203   C206    1.397   .     A
C203   H219    1.084   .     S
C203   C263    1.370   .     S
C204   C206    1.397   .     A
C204   H220    1.084   .     S
C204   C260    1.370   .     S
C205   H208    1.084   .     S
C205   C319    1.370   1_455 S
N221   Zn231   2.005   .     S
N222   Zn232   2.005   .     S
O223   Zn231   2.000   .     S
O224   Zn232   2.000   .     S
O225   Zn231   2.000   .     S
O226   Zn232   2.000   .     S
O227   Zn231   2.019   .     S
O228   Zn232   2.019   .     S
O229   Zn231   2.019   .     S
O230   Zn232   2.019   .     S
Br233  C256    1.923   .     S
Br234  C258    1.923   .     S
C235   O284    1.281   .     A
C235   C236    1.419   .     S
C235   O281    1.281   .     A
C236   C263    1.397   .     A
C236   C260    1.397   .     A
C237   H267    1.082   .     S
C237   N280    1.366   .     A
C238   N279    1.366   .     A
C238   H268    1.082   .     S
C238   C413    1.415   .     S
C239   N280    1.366   .     A
C239   H269    1.082   .     S
C240   H270    1.082   .     S
C240   N279    1.366   .     A
C240   C411    1.415   .     S
C241   C247    1.438   .     S
C241   O288    1.286   .     A
C241   O285    1.286   .     A
C242   O287    1.286   .     A
C242   O286    1.286   .     A
C242   C245    1.438   .     S
C243   C254    1.382   .     A
C243   C245    1.394   .     A
C243   H265    1.085   .     S
C244   C247    1.394   .     A
C244   H271    1.085   .     S
C244   C255    1.382   .     A
C245   C248    1.397   .     A
C246   C264    1.419   .     S
C246   O283    1.281   .     A
C246   O282    1.281   .     A
C247   C249    1.397   .     A
C248   H272    1.082   .     S
C248   C250    1.388   .     A
C249   H273    1.082   .     S
C249   C251    1.388   .     A
C250   C256    1.410   .     A
C250   C252    1.417   .     A
C251   C253    1.417   .     A
C251   C258    1.410   .     A
C252   C254    1.411   .     A
C252   C775    1.393   .     S
C253   C255    1.411   .     A
C253   C774    1.393   1_554 S
C254   C259    1.397   .     A
C255   C257    1.397   .     A
C256   C779    1.389   .     S
C257   H274    1.084   .     S
C257   C778    1.389   1_554 S
C258   C781    1.389   1_554 S
C259   H275    1.084   .     S
C259   C780    1.389   .     S
C260   H276    1.084   .     S
C261   C264    1.397   .     A
C261   H277    1.084   .     S
C261   C321    1.370   .     S
C262   C264    1.397   .     A
C262   H278    1.084   .     S
C262   C318    1.370   .     S
C263   H266    1.084   .     S
N279   Zn289   2.005   .     S
N280   Zn290   2.005   .     S
O281   Zn289   2.000   .     S
O282   Zn290   2.000   .     S
O283   Zn289   2.000   .     S
O284   Zn290   2.000   .     S
O285   Zn289   2.019   .     S
O286   Zn290   2.019   .     S
O287   Zn289   2.019   .     S
O288   Zn290   2.019   .     S
Br291  C314    1.923   .     S
Br292  C316    1.923   .     S
C293   O342    1.281   .     A
C293   C294    1.419   .     S
C293   O339    1.281   .     A
C294   C321    1.397   .     A
C294   C318    1.397   .     A
C295   H325    1.082   .     S
C295   N338    1.366   .     A
C296   N337    1.366   .     A
C296   H326    1.082   .     S
C296   C471    1.415   .     S
C297   N338    1.366   .     A
C297   H327    1.082   .     S
C298   H328    1.082   .     S
C298   N337    1.366   .     A
C298   C469    1.415   .     S
C299   C305    1.438   .     S
C299   O346    1.286   .     A
C299   O343    1.286   .     A
C300   O345    1.286   .     A
C300   O344    1.286   .     A
C300   C303    1.438   .     S
C301   C312    1.382   .     A
C301   C303    1.394   .     A
C301   H323    1.085   .     S
C302   C305    1.394   .     A
C302   H329    1.085   .     S
C302   C313    1.382   .     A
C303   C306    1.397   .     A
C304   C322    1.419   .     S
C304   O341    1.281   .     A
C304   O340    1.281   .     A
C305   C307    1.397   .     A
C306   H330    1.082   .     S
C306   C308    1.388   .     A
C307   H331    1.082   .     S
C307   C309    1.388   .     A
C308   C314    1.410   .     A
C308   C310    1.417   .     A
C309   C311    1.417   .     A
C309   C316    1.410   .     A
C310   C312    1.411   .     A
C310   C833    1.393   .     S
C311   C313    1.411   .     A
C311   C832    1.393   1_554 S
C312   C317    1.397   .     A
C313   C315    1.397   .     A
C314   C837    1.389   .     S
C315   H332    1.084   .     S
C315   C836    1.389   1_554 S
C316   C839    1.389   1_554 S
C317   H333    1.084   .     S
C317   C838    1.389   .     S
C318   H334    1.084   .     S
C319   C322    1.397   .     A
C319   H335    1.084   .     S
C319   C205    1.370   1_655 S
C320   C322    1.397   .     A
C320   H336    1.084   .     S
C320   C202    1.370   1_655 S
C321   H324    1.084   .     S
N337   Zn347   2.005   .     S
N338   Zn348   2.005   .     S
O339   Zn347   2.000   .     S
O340   Zn348   2.000   .     S
O341   Zn347   2.000   .     S
O342   Zn348   2.000   .     S
O343   Zn347   2.019   .     S
O344   Zn348   2.019   .     S
O345   Zn347   2.019   .     S
O346   Zn348   2.019   .     S
Br349  C372    1.923   .     S
Br350  C374    1.923   .     S
C351   O400    1.281   .     A
C351   C352    1.419   .     S
C351   O397    1.281   .     A
C352   C379    1.397   .     A
C352   C376    1.397   .     A
C353   H383    1.082   .     S
C353   N396    1.366   .     A
C354   N395    1.366   .     A
C354   H384    1.082   .     S
C354   C7      1.415   1_565 S
C355   N396    1.366   .     A
C355   H385    1.082   .     S
C356   H386    1.082   .     S
C356   N395    1.366   .     A
C356   C5      1.415   1_565 S
C357   C363    1.438   .     S
C357   O404    1.286   .     A
C357   O401    1.286   .     A
C358   O403    1.286   .     A
C358   O402    1.286   .     A
C358   C361    1.438   .     S
C359   C370    1.382   .     A
C359   C361    1.394   .     A
C359   H381    1.085   .     S
C360   C363    1.394   .     A
C360   H387    1.085   .     S
C360   C371    1.382   .     A
C361   C364    1.397   .     A
C362   C380    1.419   .     S
C362   O399    1.281   .     A
C362   O398    1.281   .     A
C363   C365    1.397   .     A
C364   H388    1.082   .     S
C364   C366    1.388   .     A
C365   H389    1.082   .     S
C365   C367    1.388   .     A
C366   C372    1.410   .     A
C366   C368    1.417   .     A
C367   C369    1.417   .     A
C367   C374    1.410   .     A
C368   C370    1.411   .     A
C368   C891    1.393   .     S
C369   C371    1.411   .     A
C369   C890    1.393   1_554 S
C370   C375    1.397   .     A
C371   C373    1.397   .     A
C372   C895    1.389   .     S
C373   H390    1.084   .     S
C373   C894    1.389   1_554 S
C374   C897    1.389   1_554 S
C375   H391    1.084   .     S
C375   C896    1.389   .     S
C376   H392    1.084   .     S
C376   C494    1.370   1_455 S
C377   C380    1.397   .     A
C377   H393    1.084   .     S
C377   C437    1.370   .     S
C378   C380    1.397   .     A
C378   H394    1.084   .     S
C378   C434    1.370   .     S
C379   H382    1.084   .     S
C379   C493    1.370   1_455 S
N395   Zn405   2.005   .     S
N396   Zn406   2.005   .     S
O397   Zn405   2.000   .     S
O398   Zn406   2.000   .     S
O399   Zn405   2.000   .     S
O400   Zn406   2.000   .     S
O401   Zn405   2.019   .     S
O402   Zn406   2.019   .     S
O403   Zn405   2.019   .     S
O404   Zn406   2.019   .     S
Br407  C430    1.923   .     S
Br408  C432    1.923   .     S
C409   O458    1.281   .     A
C409   C410    1.419   .     S
C409   O455    1.281   .     A
C410   C437    1.397   .     A
C410   C434    1.397   .     A
C411   H441    1.082   .     S
C411   N454    1.366   .     A
C412   N453    1.366   .     A
C412   H442    1.082   .     S
C412   C65     1.415   1_565 S
C413   N454    1.366   .     A
C413   H443    1.082   .     S
C414   H444    1.082   .     S
C414   N453    1.366   .     A
C414   C63     1.415   1_565 S
C415   C421    1.438   .     S
C415   O462    1.286   .     A
C415   O459    1.286   .     A
C416   O461    1.286   .     A
C416   O460    1.286   .     A
C416   C419    1.438   .     S
C417   C428    1.382   .     A
C417   C419    1.394   .     A
C417   H439    1.085   .     S
C418   C421    1.394   .     A
C418   H445    1.085   .     S
C418   C429    1.382   .     A
C419   C422    1.397   .     A
C420   C438    1.419   .     S
C420   O457    1.281   .     A
C420   O456    1.281   .     A
C421   C423    1.397   .     A
C422   H446    1.082   .     S
C422   C424    1.388   .     A
C423   H447    1.082   .     S
C423   C425    1.388   .     A
C424   C430    1.410   .     A
C424   C426    1.417   .     A
C425   C427    1.417   .     A
C425   C432    1.410   .     A
C426   C428    1.411   .     A
C426   C949    1.393   .     S
C427   C429    1.411   .     A
C427   C948    1.393   1_554 S
C428   C433    1.397   .     A
C429   C431    1.397   .     A
C430   C953    1.389   .     S
C431   H448    1.084   .     S
C431   C952    1.389   1_554 S
C432   C955    1.389   1_554 S
C433   H449    1.084   .     S
C433   C954    1.389   .     S
C434   H450    1.084   .     S
C435   C438    1.397   .     A
C435   H451    1.084   .     S
C435   C495    1.370   .     S
C436   C438    1.397   .     A
C436   H452    1.084   .     S
C436   C492    1.370   .     S
C437   H440    1.084   .     S
N453   Zn463   2.005   .     S
N454   Zn464   2.005   .     S
O455   Zn463   2.000   .     S
O456   Zn464   2.000   .     S
O457   Zn463   2.000   .     S
O458   Zn464   2.000   .     S
O459   Zn463   2.019   .     S
O460   Zn464   2.019   .     S
O461   Zn463   2.019   .     S
O462   Zn464   2.019   .     S
Br465  C488    1.923   .     S
Br466  C490    1.923   .     S
C467   O516    1.281   .     A
C467   C468    1.419   .     S
C467   O513    1.281   .     A
C468   C495    1.397   .     A
C468   C492    1.397   .     A
C469   H499    1.082   .     S
C469   N512    1.366   .     A
C470   N511    1.366   .     A
C470   H500    1.082   .     S
C470   C123    1.415   1_565 S
C471   N512    1.366   .     A
C471   H501    1.082   .     S
C472   H502    1.082   .     S
C472   N511    1.366   .     A
C472   C121    1.415   1_565 S
C473   C479    1.438   .     S
C473   O520    1.286   .     A
C473   O517    1.286   .     A
C474   O519    1.286   .     A
C474   O518    1.286   .     A
C474   C477    1.438   .     S
C475   C486    1.382   .     A
C475   C477    1.394   .     A
C475   H497    1.085   .     S
C476   C479    1.394   .     A
C476   H503    1.085   .     S
C476   C487    1.382   .     A
C477   C480    1.397   .     A
C478   C496    1.419   .     S
C478   O515    1.281   .     A
C478   O514    1.281   .     A
C479   C481    1.397   .     A
C480   H504    1.082   .     S
C480   C482    1.388   .     A
C481   H505    1.082   .     S
C481   C483    1.388   .     A
C482   C488    1.410   .     A
C482   C484    1.417   .     A
C483   C485    1.417   .     A
C483   C490    1.410   .     A
C484   C486    1.411   .     A
C484   C1007   1.393   .     S
C485   C487    1.411   .     A
C485   C1006   1.393   1_554 S
C486   C491    1.397   .     A
C487   C489    1.397   .     A
C488   C1011   1.389   .     S
C489   H506    1.084   .     S
C489   C1010   1.389   1_554 S
C490   C1013   1.389   1_554 S
C491   H507    1.084   .     S
C491   C1012   1.389   .     S
C492   H508    1.084   .     S
C493   C496    1.397   .     A
C493   H509    1.084   .     S
C493   C379    1.370   1_655 S
C494   C496    1.397   .     A
C494   H510    1.084   .     S
C494   C376    1.370   1_655 S
C495   H498    1.084   .     S
N511   Zn521   2.005   .     S
N512   Zn522   2.005   .     S
O513   Zn521   2.000   .     S
O514   Zn522   2.000   .     S
O515   Zn521   2.000   .     S
O516   Zn522   2.000   .     S
O517   Zn521   2.019   .     S
O518   Zn522   2.019   .     S
O519   Zn521   2.019   .     S
O520   Zn522   2.019   .     S
Br523  C546    1.923   .     S
Br524  C548    1.923   .     S
C525   O574    1.281   .     A
C525   C526    1.419   .     S
C525   O571    1.281   .     A
C526   C553    1.397   .     A
C526   C550    1.397   .     A
C527   H557    1.082   .     S
C527   N570    1.366   .     A
C527   C878    1.415   1_545 S
C528   N569    1.366   .     A
C528   H558    1.082   .     S
C528   C703    1.415   .     S
C529   N570    1.366   .     A
C529   H559    1.082   .     S
C529   C876    1.415   1_545 S
C530   H560    1.082   .     S
C530   N569    1.366   .     A
C530   C701    1.415   .     S
C531   C537    1.438   .     S
C531   O578    1.286   .     A
C531   O575    1.286   .     A
C532   O577    1.286   .     A
C532   O576    1.286   .     A
C532   C535    1.438   .     S
C533   C544    1.382   .     A
C533   C535    1.394   .     A
C533   H555    1.085   .     S
C534   C537    1.394   .     A
C534   H561    1.085   .     S
C534   C545    1.382   .     A
C535   C538    1.397   .     A
C536   C554    1.419   .     S
C536   O573    1.281   .     A
C536   O572    1.281   .     A
C537   C539    1.397   .     A
C538   H562    1.082   .     S
C538   C540    1.388   .     A
C539   H563    1.082   .     S
C539   C541    1.388   .     A
C540   C546    1.410   .     A
C540   C542    1.417   .     A
C541   C543    1.417   .     A
C541   C548    1.410   .     A
C542   C544    1.411   .     A
C542   C21     1.393   1_556 S
C543   C545    1.411   .     A
C544   C549    1.397   .     A
C545   C547    1.397   .     A
C546   C25     1.389   1_556 S
C547   H564    1.084   .     S
C549   H565    1.084   .     S
C549   C26     1.389   1_556 S
C550   H566    1.084   .     S
C550   C668    1.370   1_455 S
C551   C554    1.397   .     A
C551   H567    1.084   .     S
C551   C611    1.370   .     S
C552   C554    1.397   .     A
C552   H568    1.084   .     S
C552   C608    1.370   .     S
C553   H556    1.084   .     S
C553   C667    1.370   1_455 S
N569   Zn579   2.005   .     S
N570   Zn580   2.005   .     S
O571   Zn579   2.000   .     S
O572   Zn580   2.000   .     S
O573   Zn579   2.000   .     S
O574   Zn580   2.000   .     S
O575   Zn579   2.019   .     S
O576   Zn580   2.019   .     S
O577   Zn579   2.019   .     S
O578   Zn580   2.019   .     S
Br581  C604    1.923   .     S
Br582  C606    1.923   .     S
C583   O632    1.281   .     A
C583   C584    1.419   .     S
C583   O629    1.281   .     A
C584   C611    1.397   .     A
C584   C608    1.397   .     A
C585   H615    1.082   .     S
C585   N628    1.366   .     A
C585   C936    1.415   1_545 S
C586   N627    1.366   .     A
C586   H616    1.082   .     S
C586   C761    1.415   .     S
C587   N628    1.366   .     A
C587   H617    1.082   .     S
C587   C934    1.415   1_545 S
C588   H618    1.082   .     S
C588   N627    1.366   .     A
C588   C759    1.415   .     S
C589   C595    1.438   .     S
C589   O636    1.286   .     A
C589   O633    1.286   .     A
C590   O635    1.286   .     A
C590   O634    1.286   .     A
C590   C593    1.438   .     S
C591   C602    1.382   .     A
C591   C593    1.394   .     A
C591   H613    1.085   .     S
C592   C595    1.394   .     A
C592   H619    1.085   .     S
C592   C603    1.382   .     A
C593   C596    1.397   .     A
C594   C612    1.419   .     S
C594   O631    1.281   .     A
C594   O630    1.281   .     A
C595   C597    1.397   .     A
C596   H620    1.082   .     S
C596   C598    1.388   .     A
C597   H621    1.082   .     S
C597   C599    1.388   .     A
C598   C604    1.410   .     A
C598   C600    1.417   .     A
C599   C601    1.417   .     A
C599   C606    1.410   .     A
C600   C602    1.411   .     A
C600   C79     1.393   1_556 S
C601   C603    1.411   .     A
C602   C607    1.397   .     A
C603   C605    1.397   .     A
C604   C83     1.389   1_556 S
C605   H622    1.084   .     S
C607   H623    1.084   .     S
C607   C84     1.389   1_556 S
C608   H624    1.084   .     S
C609   C612    1.397   .     A
C609   H625    1.084   .     S
C609   C669    1.370   .     S
C610   C612    1.397   .     A
C610   H626    1.084   .     S
C610   C666    1.370   .     S
C611   H614    1.084   .     S
N627   Zn637   2.005   .     S
N628   Zn638   2.005   .     S
O629   Zn637   2.000   .     S
O630   Zn638   2.000   .     S
O631   Zn637   2.000   .     S
O632   Zn638   2.000   .     S
O633   Zn637   2.019   .     S
O634   Zn638   2.019   .     S
O635   Zn637   2.019   .     S
O636   Zn638   2.019   .     S
Br639  C662    1.923   .     S
Br640  C664    1.923   .     S
C641   O690    1.281   .     A
C641   C642    1.419   .     S
C641   O687    1.281   .     A
C642   C669    1.397   .     A
C642   C666    1.397   .     A
C643   H673    1.082   .     S
C643   N686    1.366   .     A
C643   C994    1.415   1_545 S
C644   N685    1.366   .     A
C644   H674    1.082   .     S
C644   C819    1.415   .     S
C645   N686    1.366   .     A
C645   H675    1.082   .     S
C645   C992    1.415   1_545 S
C646   H676    1.082   .     S
C646   N685    1.366   .     A
C646   C817    1.415   .     S
C647   C653    1.438   .     S
C647   O694    1.286   .     A
C647   O691    1.286   .     A
C648   O693    1.286   .     A
C648   O692    1.286   .     A
C648   C651    1.438   .     S
C649   C660    1.382   .     A
C649   C651    1.394   .     A
C649   H671    1.085   .     S
C650   C653    1.394   .     A
C650   H677    1.085   .     S
C650   C661    1.382   .     A
C651   C654    1.397   .     A
C652   C670    1.419   .     S
C652   O689    1.281   .     A
C652   O688    1.281   .     A
C653   C655    1.397   .     A
C654   H678    1.082   .     S
C654   C656    1.388   .     A
C655   H679    1.082   .     S
C655   C657    1.388   .     A
C656   C662    1.410   .     A
C656   C658    1.417   .     A
C657   C659    1.417   .     A
C657   C664    1.410   .     A
C658   C660    1.411   .     A
C658   C137    1.393   1_556 S
C659   C661    1.411   .     A
C660   C665    1.397   .     A
C661   C663    1.397   .     A
C662   C141    1.389   1_556 S
C663   H680    1.084   .     S
C665   H681    1.084   .     S
C665   C142    1.389   1_556 S
C666   H682    1.084   .     S
C667   C670    1.397   .     A
C667   H683    1.084   .     S
C667   C553    1.370   1_655 S
C668   C670    1.397   .     A
C668   H684    1.084   .     S
C668   C550    1.370   1_655 S
C669   H672    1.084   .     S
N685   Zn695   2.005   .     S
N686   Zn696   2.005   .     S
O687   Zn695   2.000   .     S
O688   Zn696   2.000   .     S
O689   Zn695   2.000   .     S
O690   Zn696   2.000   .     S
O691   Zn695   2.019   .     S
O692   Zn696   2.019   .     S
O693   Zn695   2.019   .     S
O694   Zn696   2.019   .     S
Br697  C720    1.923   .     S
Br698  C722    1.923   .     S
C699   O748    1.281   .     A
C699   C700    1.419   .     S
C699   O745    1.281   .     A
C700   C727    1.397   .     A
C700   C724    1.397   .     A
C701   H731    1.082   .     S
C701   N744    1.366   .     A
C702   N743    1.366   .     A
C702   H732    1.082   .     S
C702   C877    1.415   .     S
C703   N744    1.366   .     A
C703   H733    1.082   .     S
C704   H734    1.082   .     S
C704   N743    1.366   .     A
C704   C875    1.415   .     S
C705   C711    1.438   .     S
C705   O752    1.286   .     A
C705   O749    1.286   .     A
C706   O751    1.286   .     A
C706   O750    1.286   .     A
C706   C709    1.438   .     S
C707   C718    1.382   .     A
C707   C709    1.394   .     A
C707   H729    1.085   .     S
C708   C711    1.394   .     A
C708   H735    1.085   .     S
C708   C719    1.382   .     A
C709   C712    1.397   .     A
C710   C728    1.419   .     S
C710   O747    1.281   .     A
C710   O746    1.281   .     A
C711   C713    1.397   .     A
C712   H736    1.082   .     S
C712   C714    1.388   .     A
C713   H737    1.082   .     S
C713   C715    1.388   .     A
C714   C720    1.410   .     A
C714   C716    1.417   .     A
C715   C717    1.417   .     A
C715   C722    1.410   .     A
C716   C718    1.411   .     A
C716   C195    1.393   1_556 S
C717   C719    1.411   .     A
C718   C723    1.397   .     A
C719   C721    1.397   .     A
C720   C199    1.389   1_556 S
C721   H738    1.084   .     S
C723   H739    1.084   .     S
C723   C200    1.389   1_556 S
C724   H740    1.084   .     S
C724   C842    1.370   1_455 S
C725   C728    1.397   .     A
C725   H741    1.084   .     S
C725   C785    1.370   .     S
C726   C728    1.397   .     A
C726   H742    1.084   .     S
C726   C782    1.370   .     S
C727   H730    1.084   .     S
C727   C841    1.370   1_455 S
N743   Zn753   2.005   .     S
N744   Zn754   2.005   .     S
O745   Zn753   2.000   .     S
O746   Zn754   2.000   .     S
O747   Zn753   2.000   .     S
O748   Zn754   2.000   .     S
O749   Zn753   2.019   .     S
O750   Zn754   2.019   .     S
O751   Zn753   2.019   .     S
O752   Zn754   2.019   .     S
Br755  C778    1.923   .     S
Br756  C780    1.923   .     S
C757   O806    1.281   .     A
C757   C758    1.419   .     S
C757   O803    1.281   .     A
C758   C785    1.397   .     A
C758   C782    1.397   .     A
C759   H789    1.082   .     S
C759   N802    1.366   .     A
C760   N801    1.366   .     A
C760   H790    1.082   .     S
C760   C935    1.415   .     S
C761   N802    1.366   .     A
C761   H791    1.082   .     S
C762   H792    1.082   .     S
C762   N801    1.366   .     A
C762   C933    1.415   .     S
C763   C769    1.438   .     S
C763   O810    1.286   .     A
C763   O807    1.286   .     A
C764   O809    1.286   .     A
C764   O808    1.286   .     A
C764   C767    1.438   .     S
C765   C776    1.382   .     A
C765   C767    1.394   .     A
C765   H787    1.085   .     S
C766   C769    1.394   .     A
C766   H793    1.085   .     S
C766   C777    1.382   .     A
C767   C770    1.397   .     A
C768   C786    1.419   .     S
C768   O805    1.281   .     A
C768   O804    1.281   .     A
C769   C771    1.397   .     A
C770   H794    1.082   .     S
C770   C772    1.388   .     A
C771   H795    1.082   .     S
C771   C773    1.388   .     A
C772   C778    1.410   .     A
C772   C774    1.417   .     A
C773   C775    1.417   .     A
C773   C780    1.410   .     A
C774   C776    1.411   .     A
C774   C253    1.393   1_556 S
C775   C777    1.411   .     A
C776   C781    1.397   .     A
C777   C779    1.397   .     A
C778   C257    1.389   1_556 S
C779   H796    1.084   .     S
C781   H797    1.084   .     S
C781   C258    1.389   1_556 S
C782   H798    1.084   .     S
C783   C786    1.397   .     A
C783   H799    1.084   .     S
C783   C843    1.370   .     S
C784   C786    1.397   .     A
C784   H800    1.084   .     S
C784   C840    1.370   .     S
C785   H788    1.084   .     S
N801   Zn811   2.005   .     S
N802   Zn812   2.005   .     S
O803   Zn811   2.000   .     S
O804   Zn812   2.000   .     S
O805   Zn811   2.000   .     S
O806   Zn812   2.000   .     S
O807   Zn811   2.019   .     S
O808   Zn812   2.019   .     S
O809   Zn811   2.019   .     S
O810   Zn812   2.019   .     S
Br813  C836    1.923   .     S
Br814  C838    1.923   .     S
C815   O864    1.281   .     A
C815   C816    1.419   .     S
C815   O861    1.281   .     A
C816   C843    1.397   .     A
C816   C840    1.397   .     A
C817   H847    1.082   .     S
C817   N860    1.366   .     A
C818   N859    1.366   .     A
C818   H848    1.082   .     S
C818   C993    1.415   .     S
C819   N860    1.366   .     A
C819   H849    1.082   .     S
C820   H850    1.082   .     S
C820   N859    1.366   .     A
C820   C991    1.415   .     S
C821   C827    1.438   .     S
C821   O868    1.286   .     A
C821   O865    1.286   .     A
C822   O867    1.286   .     A
C822   O866    1.286   .     A
C822   C825    1.438   .     S
C823   C834    1.382   .     A
C823   C825    1.394   .     A
C823   H845    1.085   .     S
C824   C827    1.394   .     A
C824   H851    1.085   .     S
C824   C835    1.382   .     A
C825   C828    1.397   .     A
C826   C844    1.419   .     S
C826   O863    1.281   .     A
C826   O862    1.281   .     A
C827   C829    1.397   .     A
C828   H852    1.082   .     S
C828   C830    1.388   .     A
C829   H853    1.082   .     S
C829   C831    1.388   .     A
C830   C836    1.410   .     A
C830   C832    1.417   .     A
C831   C833    1.417   .     A
C831   C838    1.410   .     A
C832   C834    1.411   .     A
C832   C311    1.393   1_556 S
C833   C835    1.411   .     A
C834   C839    1.397   .     A
C835   C837    1.397   .     A
C836   C315    1.389   1_556 S
C837   H854    1.084   .     S
C839   H855    1.084   .     S
C839   C316    1.389   1_556 S
C840   H856    1.084   .     S
C841   C844    1.397   .     A
C841   H857    1.084   .     S
C841   C727    1.370   1_655 S
C842   C844    1.397   .     A
C842   H858    1.084   .     S
C842   C724    1.370   1_655 S
C843   H846    1.084   .     S
N859   Zn869   2.005   .     S
N860   Zn870   2.005   .     S
O861   Zn869   2.000   .     S
O862   Zn870   2.000   .     S
O863   Zn869   2.000   .     S
O864   Zn870   2.000   .     S
O865   Zn869   2.019   .     S
O866   Zn870   2.019   .     S
O867   Zn869   2.019   .     S
O868   Zn870   2.019   .     S
Br871  C894    1.923   .     S
Br872  C896    1.923   .     S
C873   O922    1.281   .     A
C873   C874    1.419   .     S
C873   O919    1.281   .     A
C874   C901    1.397   .     A
C874   C898    1.397   .     A
C875   H905    1.082   .     S
C875   N918    1.366   .     A
C876   N917    1.366   .     A
C876   H906    1.082   .     S
C876   C529    1.415   1_565 S
C877   N918    1.366   .     A
C877   H907    1.082   .     S
C878   H908    1.082   .     S
C878   N917    1.366   .     A
C878   C527    1.415   1_565 S
C879   C885    1.438   .     S
C879   O926    1.286   .     A
C879   O923    1.286   .     A
C880   O925    1.286   .     A
C880   O924    1.286   .     A
C880   C883    1.438   .     S
C881   C892    1.382   .     A
C881   C883    1.394   .     A
C881   H903    1.085   .     S
C882   C885    1.394   .     A
C882   H909    1.085   .     S
C882   C893    1.382   .     A
C883   C886    1.397   .     A
C884   C902    1.419   .     S
C884   O921    1.281   .     A
C884   O920    1.281   .     A
C885   C887    1.397   .     A
C886   H910    1.082   .     S
C886   C888    1.388   .     A
C887   H911    1.082   .     S
C887   C889    1.388   .     A
C888   C894    1.410   .     A
C888   C890    1.417   .     A
C889   C891    1.417   .     A
C889   C896    1.410   .     A
C890   C892    1.411   .     A
C890   C369    1.393   1_556 S
C891   C893    1.411   .     A
C892   C897    1.397   .     A
C893   C895    1.397   .     A
C894   C373    1.389   1_556 S
C895   H912    1.084   .     S
C897   H913    1.084   .     S
C897   C374    1.389   1_556 S
C898   H914    1.084   .     S
C898   C1016   1.370   1_455 S
C899   C902    1.397   .     A
C899   H915    1.084   .     S
C899   C959    1.370   .     S
C900   C902    1.397   .     A
C900   H916    1.084   .     S
C900   C956    1.370   .     S
C901   H904    1.084   .     S
C901   C1015   1.370   1_455 S
N917   Zn927   2.005   .     S
N918   Zn928   2.005   .     S
O919   Zn927   2.000   .     S
O920   Zn928   2.000   .     S
O921   Zn927   2.000   .     S
O922   Zn928   2.000   .     S
O923   Zn927   2.019   .     S
O924   Zn928   2.019   .     S
O925   Zn927   2.019   .     S
O926   Zn928   2.019   .     S
Br929  C952    1.923   .     S
Br930  C954    1.923   .     S
C931   O980    1.281   .     A
C931   C932    1.419   .     S
C931   O977    1.281   .     A
C932   C959    1.397   .     A
C932   C956    1.397   .     A
C933   H963    1.082   .     S
C933   N976    1.366   .     A
C934   N975    1.366   .     A
C934   H964    1.082   .     S
C934   C587    1.415   1_565 S
C935   N976    1.366   .     A
C935   H965    1.082   .     S
C936   H966    1.082   .     S
C936   N975    1.366   .     A
C936   C585    1.415   1_565 S
C937   C943    1.438   .     S
C937   O984    1.286   .     A
C937   O981    1.286   .     A
C938   O983    1.286   .     A
C938   O982    1.286   .     A
C938   C941    1.438   .     S
C939   C950    1.382   .     A
C939   C941    1.394   .     A
C939   H961    1.085   .     S
C940   C943    1.394   .     A
C940   H967    1.085   .     S
C940   C951    1.382   .     A
C941   C944    1.397   .     A
C942   C960    1.419   .     S
C942   O979    1.281   .     A
C942   O978    1.281   .     A
C943   C945    1.397   .     A
C944   H968    1.082   .     S
C944   C946    1.388   .     A
C945   H969    1.082   .     S
C945   C947    1.388   .     A
C946   C952    1.410   .     A
C946   C948    1.417   .     A
C947   C949    1.417   .     A
C947   C954    1.410   .     A
C948   C950    1.411   .     A
C948   C427    1.393   1_556 S
C949   C951    1.411   .     A
C950   C955    1.397   .     A
C951   C953    1.397   .     A
C952   C431    1.389   1_556 S
C953   H970    1.084   .     S
C955   H971    1.084   .     S
C955   C432    1.389   1_556 S
C956   H972    1.084   .     S
C957   C960    1.397   .     A
C957   H973    1.084   .     S
C957   C1017   1.370   .     S
C958   C960    1.397   .     A
C958   H974    1.084   .     S
C958   C1014   1.370   .     S
C959   H962    1.084   .     S
N975   Zn985   2.005   .     S
N976   Zn986   2.005   .     S
O977   Zn985   2.000   .     S
O978   Zn986   2.000   .     S
O979   Zn985   2.000   .     S
O980   Zn986   2.000   .     S
O981   Zn985   2.019   .     S
O982   Zn986   2.019   .     S
O983   Zn985   2.019   .     S
O984   Zn986   2.019   .     S
Br987  C1010   1.923   .     S
Br988  C1012   1.923   .     S
C989   O1038   1.281   .     A
C989   C990    1.419   .     S
C989   O1035   1.281   .     A
C990   C1017   1.397   .     A
C990   C1014   1.397   .     A
C991   H1021   1.082   .     S
C991   N1034   1.366   .     A
C992   N1033   1.366   .     A
C992   H1022   1.082   .     S
C992   C645    1.415   1_565 S
C993   N1034   1.366   .     A
C993   H1023   1.082   .     S
C994   H1024   1.082   .     S
C994   N1033   1.366   .     A
C994   C643    1.415   1_565 S
C995   C1001   1.438   .     S
C995   O1042   1.286   .     A
C995   O1039   1.286   .     A
C996   O1041   1.286   .     A
C996   O1040   1.286   .     A
C996   C999    1.438   .     S
C997   C1008   1.382   .     A
C997   C999    1.394   .     A
C997   H1019   1.085   .     S
C998   C1001   1.394   .     A
C998   H1025   1.085   .     S
C998   C1009   1.382   .     A
C999   C1002   1.397   .     A
C1000  C1018   1.419   .     S
C1000  O1037   1.281   .     A
C1000  O1036   1.281   .     A
C1001  C1003   1.397   .     A
C1002  H1026   1.082   .     S
C1002  C1004   1.388   .     A
C1003  H1027   1.082   .     S
C1003  C1005   1.388   .     A
C1004  C1010   1.410   .     A
C1004  C1006   1.417   .     A
C1005  C1007   1.417   .     A
C1005  C1012   1.410   .     A
C1006  C1008   1.411   .     A
C1006  C485    1.393   1_556 S
C1007  C1009   1.411   .     A
C1008  C1013   1.397   .     A
C1009  C1011   1.397   .     A
C1010  C489    1.389   1_556 S
C1011  H1028   1.084   .     S
C1013  H1029   1.084   .     S
C1013  C490    1.389   1_556 S
C1014  H1030   1.084   .     S
C1015  C1018   1.397   .     A
C1015  H1031   1.084   .     S
C1015  C901    1.370   1_655 S
C1016  C1018   1.397   .     A
C1016  H1032   1.084   .     S
C1016  C898    1.370   1_655 S
C1017  H1020   1.084   .     S
N1033  Zn1043  2.005   .     S
N1034  Zn1044  2.005   .     S
O1035  Zn1043  2.000   .     S
O1036  Zn1044  2.000   .     S
O1037  Zn1043  2.000   .     S
O1038  Zn1044  2.000   .     S
O1039  Zn1043  2.019   .     S
O1040  Zn1044  2.019   .     S
O1041  Zn1043  2.019   .     S
O1042  Zn1044  2.019   .     S
