data_str_m3_o5_o17_pcu_sym.41
_audit_creation_date              2020-01-03
_audit_creation_method            'Materials Studio'
_symmetry_space_group_name_H-M    'P1'
_symmetry_Int_Tables_number       1
_symmetry_cell_setting            triclinic
loop_
_symmetry_equiv_pos_as_xyz
  x,y,z
_cell_length_a                    29.9319
_cell_length_b                    27.5589
_cell_length_c                    24.2975
_cell_angle_alpha                 90.0074
_cell_angle_beta                  89.9503
_cell_angle_gamma                 90.0008
loop_
_atom_site_label
_atom_site_type_symbol
_atom_site_fract_x
_atom_site_fract_y
_atom_site_fract_z
_atom_site_U_iso_or_equiv
_atom_site_adp_type
_atom_site_occupancy
O1     O     0.25000   0.09512   0.21228   0.00000  Uiso   1.00
O2     O     0.25000   0.23822   0.12105   0.00000  Uiso   1.00
O3     O     0.25000   0.23822   0.21228   0.00000  Uiso   1.00
O4     O     0.25000   0.09512   0.12105   0.00000  Uiso   1.00
C5     C     0.25000   0.07251   0.16666   0.00000  Uiso   1.00
C6     C     0.24999   0.26083   0.16667   0.00000  Uiso   1.00
O7     O     0.18392   0.16667   0.21230   0.00000  Uiso   1.00
O8     O     0.31607   0.16667   0.12104   0.00000  Uiso   1.00
O9     O     0.31607   0.16667   0.21230   0.00000  Uiso   1.00
O10    O     0.18392   0.16667   0.12104   0.00000  Uiso   1.00
C11    C     0.16330   0.16666   0.16669   0.00000  Uiso   1.00
C12    C     0.33670   0.16664   0.16664   0.00000  Uiso   1.00
Zn13   Zn    0.25000   0.16667   0.22759   0.00000  Uiso   1.00
Zn14   Zn    0.25000   0.16667   0.10574   0.00000  Uiso   1.00
N15    N     0.25000   0.16667   0.02455   0.00000  Uiso   1.00
N16    N     0.25000   0.16667   0.30879   0.00000  Uiso   1.00
C17    C     0.40689   0.21055   0.17318   0.00000  Uiso   1.00
C18    C     0.09307   0.12287   0.17347   0.00000  Uiso   1.00
C19    C     0.40693   0.12286   0.15985   0.00000  Uiso   1.00
C20    C     0.09310   0.21053   0.16005   0.00000  Uiso   1.00
C21    C     0.38430   0.16668   0.16658   0.00000  Uiso   1.00
C22    C     0.11570   0.16669   0.16675   0.00000  Uiso   1.00
C23    C     0.45329   0.12236   0.16634   0.00000  Uiso   1.00
C24    C     0.04671   0.21105   0.16639   0.00000  Uiso   1.00
C25    C     0.45329   0.21105   0.16685   0.00000  Uiso   1.00
C26    C     0.04671   0.12236   0.16697   0.00000  Uiso   1.00
C27    C     0.47663   0.16670   0.16664   0.00000  Uiso   1.00
C28    C     0.02337   0.16670   0.16665   0.00000  Uiso   1.00
C29    C     0.47706   0.07899   0.17125   0.00000  Uiso   1.00
C30    C     0.02293   0.25441   0.17133   0.00000  Uiso   1.00
C31    C     0.47707   0.25441   0.16186   0.00000  Uiso   1.00
C32    C     0.02295   0.07899   0.16203   0.00000  Uiso   1.00
C33    C     0.25000   0.02155   0.16666   0.00000  Uiso   1.00
C34    C     0.24999   0.31179   0.16667   0.00000  Uiso   1.00
Cl35   Cl    0.45611   0.03518   0.21720   0.00000  Uiso   1.00
Cl36   Cl    0.04348   0.29770   0.21813   0.00000  Uiso   1.00
Cl37   Cl    0.45657   0.29767   0.11499   0.00000  Uiso   1.00
Cl38   Cl    0.04387   0.03528   0.11593   0.00000  Uiso   1.00
I39    I     0.37114   0.27250   0.20307   0.00000  Uiso   1.00
I40    I     0.12858   0.06118   0.20432   0.00000  Uiso   1.00
I41    I     0.37144   0.06123   0.12885   0.00000  Uiso   1.00
I42    I     0.12882   0.27240   0.12991   0.00000  Uiso   1.00
O43    O     0.75000   0.09512   0.21228   0.00000  Uiso   1.00
O44    O     0.75000   0.23822   0.12105   0.00000  Uiso   1.00
O45    O     0.75000   0.23822   0.21228   0.00000  Uiso   1.00
O46    O     0.75000   0.09512   0.12105   0.00000  Uiso   1.00
C47    C     0.75000   0.07251   0.16666   0.00000  Uiso   1.00
C48    C     0.74999   0.26083   0.16667   0.00000  Uiso   1.00
O49    O     0.68392   0.16667   0.21230   0.00000  Uiso   1.00
O50    O     0.81607   0.16667   0.12104   0.00000  Uiso   1.00
O51    O     0.81607   0.16667   0.21230   0.00000  Uiso   1.00
O52    O     0.68392   0.16667   0.12104   0.00000  Uiso   1.00
C53    C     0.66330   0.16666   0.16669   0.00000  Uiso   1.00
C54    C     0.83670   0.16664   0.16664   0.00000  Uiso   1.00
Zn55   Zn    0.75000   0.16667   0.22759   0.00000  Uiso   1.00
Zn56   Zn    0.75000   0.16667   0.10574   0.00000  Uiso   1.00
N57    N     0.75000   0.16667   0.02455   0.00000  Uiso   1.00
N58    N     0.75000   0.16667   0.30879   0.00000  Uiso   1.00
C59    C     0.90689   0.21055   0.17318   0.00000  Uiso   1.00
C60    C     0.59307   0.12287   0.17347   0.00000  Uiso   1.00
C61    C     0.90693   0.12286   0.15985   0.00000  Uiso   1.00
C62    C     0.59310   0.21053   0.16005   0.00000  Uiso   1.00
C63    C     0.88430   0.16668   0.16658   0.00000  Uiso   1.00
C64    C     0.61570   0.16669   0.16675   0.00000  Uiso   1.00
C65    C     0.95329   0.12236   0.16634   0.00000  Uiso   1.00
C66    C     0.54671   0.21105   0.16639   0.00000  Uiso   1.00
C67    C     0.95329   0.21105   0.16685   0.00000  Uiso   1.00
C68    C     0.54671   0.12236   0.16697   0.00000  Uiso   1.00
C69    C     0.97663   0.16670   0.16664   0.00000  Uiso   1.00
C70    C     0.52337   0.16670   0.16665   0.00000  Uiso   1.00
C71    C     0.97706   0.07899   0.17125   0.00000  Uiso   1.00
C72    C     0.52293   0.25441   0.17133   0.00000  Uiso   1.00
C73    C     0.97707   0.25441   0.16186   0.00000  Uiso   1.00
C74    C     0.52295   0.07899   0.16203   0.00000  Uiso   1.00
C75    C     0.75000   0.02155   0.16666   0.00000  Uiso   1.00
C76    C     0.74999   0.31179   0.16667   0.00000  Uiso   1.00
Cl77   Cl    0.95611   0.03518   0.21720   0.00000  Uiso   1.00
Cl78   Cl    0.54348   0.29770   0.21813   0.00000  Uiso   1.00
Cl79   Cl    0.95657   0.29767   0.11499   0.00000  Uiso   1.00
Cl80   Cl    0.54387   0.03528   0.11593   0.00000  Uiso   1.00
I81    I     0.87114   0.27250   0.20307   0.00000  Uiso   1.00
I82    I     0.62858   0.06118   0.20432   0.00000  Uiso   1.00
I83    I     0.87144   0.06123   0.12885   0.00000  Uiso   1.00
I84    I     0.62882   0.27240   0.12991   0.00000  Uiso   1.00
O85    O     0.25000   0.42845   0.21228   0.00000  Uiso   1.00
O86    O     0.25000   0.57155   0.12105   0.00000  Uiso   1.00
O87    O     0.25000   0.57155   0.21228   0.00000  Uiso   1.00
O88    O     0.25000   0.42845   0.12105   0.00000  Uiso   1.00
C89    C     0.25000   0.40584   0.16666   0.00000  Uiso   1.00
C90    C     0.24999   0.59416   0.16667   0.00000  Uiso   1.00
O91    O     0.18392   0.50000   0.21230   0.00000  Uiso   1.00
O92    O     0.31607   0.50000   0.12104   0.00000  Uiso   1.00
O93    O     0.31607   0.50000   0.21230   0.00000  Uiso   1.00
O94    O     0.18392   0.50000   0.12104   0.00000  Uiso   1.00
C95    C     0.16330   0.49999   0.16669   0.00000  Uiso   1.00
C96    C     0.33670   0.49997   0.16664   0.00000  Uiso   1.00
Zn97   Zn    0.25000   0.50000   0.22759   0.00000  Uiso   1.00
Zn98   Zn    0.25000   0.50000   0.10574   0.00000  Uiso   1.00
N99    N     0.25000   0.50000   0.02455   0.00000  Uiso   1.00
N100   N     0.25000   0.50000   0.30879   0.00000  Uiso   1.00
C101   C     0.40689   0.54388   0.17318   0.00000  Uiso   1.00
C102   C     0.09307   0.45620   0.17347   0.00000  Uiso   1.00
C103   C     0.40693   0.45620   0.15985   0.00000  Uiso   1.00
C104   C     0.09310   0.54387   0.16005   0.00000  Uiso   1.00
C105   C     0.38430   0.50001   0.16658   0.00000  Uiso   1.00
C106   C     0.11570   0.50002   0.16675   0.00000  Uiso   1.00
C107   C     0.45329   0.45569   0.16634   0.00000  Uiso   1.00
C108   C     0.04671   0.54438   0.16639   0.00000  Uiso   1.00
C109   C     0.45329   0.54439   0.16685   0.00000  Uiso   1.00
C110   C     0.04671   0.45569   0.16697   0.00000  Uiso   1.00
C111   C     0.47663   0.50004   0.16664   0.00000  Uiso   1.00
C112   C     0.02337   0.50004   0.16665   0.00000  Uiso   1.00
C113   C     0.47706   0.41232   0.17125   0.00000  Uiso   1.00
C114   C     0.02293   0.58774   0.17133   0.00000  Uiso   1.00
C115   C     0.47707   0.58774   0.16186   0.00000  Uiso   1.00
C116   C     0.02295   0.41232   0.16203   0.00000  Uiso   1.00
C117   C     0.25000   0.35488   0.16666   0.00000  Uiso   1.00
C118   C     0.24999   0.64512   0.16667   0.00000  Uiso   1.00
Cl119  Cl    0.45611   0.36852   0.21720   0.00000  Uiso   1.00
Cl120  Cl    0.04348   0.63104   0.21813   0.00000  Uiso   1.00
Cl121  Cl    0.45657   0.63100   0.11499   0.00000  Uiso   1.00
Cl122  Cl    0.04387   0.36861   0.11593   0.00000  Uiso   1.00
I123   I     0.37114   0.60583   0.20307   0.00000  Uiso   1.00
I124   I     0.12858   0.39452   0.20432   0.00000  Uiso   1.00
I125   I     0.37144   0.39456   0.12885   0.00000  Uiso   1.00
I126   I     0.12882   0.60573   0.12991   0.00000  Uiso   1.00
O127   O     0.75000   0.42845   0.21228   0.00000  Uiso   1.00
O128   O     0.75000   0.57155   0.12105   0.00000  Uiso   1.00
O129   O     0.75000   0.57155   0.21228   0.00000  Uiso   1.00
O130   O     0.75000   0.42845   0.12105   0.00000  Uiso   1.00
C131   C     0.75000   0.40584   0.16666   0.00000  Uiso   1.00
C132   C     0.74999   0.59416   0.16667   0.00000  Uiso   1.00
O133   O     0.68392   0.50000   0.21230   0.00000  Uiso   1.00
O134   O     0.81607   0.50000   0.12104   0.00000  Uiso   1.00
O135   O     0.81607   0.50000   0.21230   0.00000  Uiso   1.00
O136   O     0.68392   0.50000   0.12104   0.00000  Uiso   1.00
C137   C     0.66330   0.49999   0.16669   0.00000  Uiso   1.00
C138   C     0.83670   0.49997   0.16664   0.00000  Uiso   1.00
Zn139  Zn    0.75000   0.50000   0.22759   0.00000  Uiso   1.00
Zn140  Zn    0.75000   0.50000   0.10574   0.00000  Uiso   1.00
N141   N     0.75000   0.50000   0.02455   0.00000  Uiso   1.00
N142   N     0.75000   0.50000   0.30879   0.00000  Uiso   1.00
C143   C     0.90689   0.54388   0.17318   0.00000  Uiso   1.00
C144   C     0.59307   0.45620   0.17347   0.00000  Uiso   1.00
C145   C     0.90693   0.45620   0.15985   0.00000  Uiso   1.00
C146   C     0.59310   0.54387   0.16005   0.00000  Uiso   1.00
C147   C     0.88430   0.50001   0.16658   0.00000  Uiso   1.00
C148   C     0.61570   0.50002   0.16675   0.00000  Uiso   1.00
C149   C     0.95329   0.45569   0.16634   0.00000  Uiso   1.00
C150   C     0.54671   0.54438   0.16639   0.00000  Uiso   1.00
C151   C     0.95329   0.54439   0.16685   0.00000  Uiso   1.00
C152   C     0.54671   0.45569   0.16697   0.00000  Uiso   1.00
C153   C     0.97663   0.50004   0.16664   0.00000  Uiso   1.00
C154   C     0.52337   0.50004   0.16665   0.00000  Uiso   1.00
C155   C     0.97706   0.41232   0.17125   0.00000  Uiso   1.00
C156   C     0.52293   0.58774   0.17133   0.00000  Uiso   1.00
C157   C     0.97707   0.58774   0.16186   0.00000  Uiso   1.00
C158   C     0.52295   0.41232   0.16203   0.00000  Uiso   1.00
C159   C     0.75000   0.35488   0.16666   0.00000  Uiso   1.00
C160   C     0.74999   0.64512   0.16667   0.00000  Uiso   1.00
Cl161  Cl    0.95611   0.36852   0.21720   0.00000  Uiso   1.00
Cl162  Cl    0.54348   0.63104   0.21813   0.00000  Uiso   1.00
Cl163  Cl    0.95657   0.63100   0.11499   0.00000  Uiso   1.00
Cl164  Cl    0.54387   0.36861   0.11593   0.00000  Uiso   1.00
I165   I     0.87114   0.60583   0.20307   0.00000  Uiso   1.00
I166   I     0.62858   0.39452   0.20432   0.00000  Uiso   1.00
I167   I     0.87144   0.39456   0.12885   0.00000  Uiso   1.00
I168   I     0.62882   0.60573   0.12991   0.00000  Uiso   1.00
O169   O     0.25000   0.76178   0.21228   0.00000  Uiso   1.00
O170   O     0.25000   0.90488   0.12105   0.00000  Uiso   1.00
O171   O     0.25000   0.90488   0.21228   0.00000  Uiso   1.00
O172   O     0.25000   0.76178   0.12105   0.00000  Uiso   1.00
C173   C     0.25000   0.73917   0.16666   0.00000  Uiso   1.00
C174   C     0.24999   0.92749   0.16667   0.00000  Uiso   1.00
O175   O     0.18392   0.83333   0.21230   0.00000  Uiso   1.00
O176   O     0.31607   0.83333   0.12104   0.00000  Uiso   1.00
O177   O     0.31607   0.83333   0.21230   0.00000  Uiso   1.00
O178   O     0.18392   0.83333   0.12104   0.00000  Uiso   1.00
C179   C     0.16330   0.83332   0.16669   0.00000  Uiso   1.00
C180   C     0.33670   0.83330   0.16664   0.00000  Uiso   1.00
Zn181  Zn    0.25000   0.83333   0.22759   0.00000  Uiso   1.00
Zn182  Zn    0.25000   0.83333   0.10574   0.00000  Uiso   1.00
N183   N     0.25000   0.83333   0.02455   0.00000  Uiso   1.00
N184   N     0.25000   0.83333   0.30879   0.00000  Uiso   1.00
C185   C     0.40689   0.87722   0.17318   0.00000  Uiso   1.00
C186   C     0.09307   0.78954   0.17347   0.00000  Uiso   1.00
C187   C     0.40693   0.78953   0.15985   0.00000  Uiso   1.00
C188   C     0.09310   0.87720   0.16005   0.00000  Uiso   1.00
C189   C     0.38430   0.83335   0.16658   0.00000  Uiso   1.00
C190   C     0.11570   0.83336   0.16675   0.00000  Uiso   1.00
C191   C     0.45329   0.78902   0.16634   0.00000  Uiso   1.00
C192   C     0.04671   0.87771   0.16639   0.00000  Uiso   1.00
C193   C     0.45329   0.87772   0.16685   0.00000  Uiso   1.00
C194   C     0.04671   0.78903   0.16697   0.00000  Uiso   1.00
C195   C     0.47663   0.83337   0.16664   0.00000  Uiso   1.00
C196   C     0.02337   0.83337   0.16665   0.00000  Uiso   1.00
C197   C     0.47706   0.74566   0.17125   0.00000  Uiso   1.00
C198   C     0.02293   0.92108   0.17133   0.00000  Uiso   1.00
C199   C     0.47707   0.92108   0.16186   0.00000  Uiso   1.00
C200   C     0.02295   0.74566   0.16203   0.00000  Uiso   1.00
C201   C     0.25000   0.68821   0.16666   0.00000  Uiso   1.00
C202   C     0.24999   0.97845   0.16667   0.00000  Uiso   1.00
Cl203  Cl    0.45611   0.70185   0.21720   0.00000  Uiso   1.00
Cl204  Cl    0.04348   0.96437   0.21813   0.00000  Uiso   1.00
Cl205  Cl    0.45657   0.96433   0.11499   0.00000  Uiso   1.00
Cl206  Cl    0.04387   0.70195   0.11593   0.00000  Uiso   1.00
I207   I     0.37114   0.93917   0.20307   0.00000  Uiso   1.00
I208   I     0.12858   0.72785   0.20432   0.00000  Uiso   1.00
I209   I     0.37144   0.72789   0.12885   0.00000  Uiso   1.00
I210   I     0.12882   0.93907   0.12991   0.00000  Uiso   1.00
O211   O     0.75000   0.76178   0.21228   0.00000  Uiso   1.00
O212   O     0.75000   0.90488   0.12105   0.00000  Uiso   1.00
O213   O     0.75000   0.90488   0.21228   0.00000  Uiso   1.00
O214   O     0.75000   0.76178   0.12105   0.00000  Uiso   1.00
C215   C     0.75000   0.73917   0.16666   0.00000  Uiso   1.00
C216   C     0.74999   0.92749   0.16667   0.00000  Uiso   1.00
O217   O     0.68392   0.83333   0.21230   0.00000  Uiso   1.00
O218   O     0.81607   0.83333   0.12104   0.00000  Uiso   1.00
O219   O     0.81607   0.83333   0.21230   0.00000  Uiso   1.00
O220   O     0.68392   0.83333   0.12104   0.00000  Uiso   1.00
C221   C     0.66330   0.83332   0.16669   0.00000  Uiso   1.00
C222   C     0.83670   0.83330   0.16664   0.00000  Uiso   1.00
Zn223  Zn    0.75000   0.83333   0.22759   0.00000  Uiso   1.00
Zn224  Zn    0.75000   0.83333   0.10574   0.00000  Uiso   1.00
N225   N     0.75000   0.83333   0.02455   0.00000  Uiso   1.00
N226   N     0.75000   0.83333   0.30879   0.00000  Uiso   1.00
C227   C     0.90689   0.87722   0.17318   0.00000  Uiso   1.00
C228   C     0.59307   0.78954   0.17347   0.00000  Uiso   1.00
C229   C     0.90693   0.78953   0.15985   0.00000  Uiso   1.00
C230   C     0.59310   0.87720   0.16005   0.00000  Uiso   1.00
C231   C     0.88430   0.83335   0.16658   0.00000  Uiso   1.00
C232   C     0.61570   0.83336   0.16675   0.00000  Uiso   1.00
C233   C     0.95329   0.78902   0.16634   0.00000  Uiso   1.00
C234   C     0.54671   0.87771   0.16639   0.00000  Uiso   1.00
C235   C     0.95329   0.87772   0.16685   0.00000  Uiso   1.00
C236   C     0.54671   0.78903   0.16697   0.00000  Uiso   1.00
C237   C     0.97663   0.83337   0.16664   0.00000  Uiso   1.00
C238   C     0.52337   0.83337   0.16665   0.00000  Uiso   1.00
C239   C     0.97706   0.74566   0.17125   0.00000  Uiso   1.00
C240   C     0.52293   0.92108   0.17133   0.00000  Uiso   1.00
C241   C     0.97707   0.92108   0.16186   0.00000  Uiso   1.00
C242   C     0.52295   0.74566   0.16203   0.00000  Uiso   1.00
C243   C     0.75000   0.68821   0.16666   0.00000  Uiso   1.00
C244   C     0.74999   0.97845   0.16667   0.00000  Uiso   1.00
Cl245  Cl    0.95611   0.70185   0.21720   0.00000  Uiso   1.00
Cl246  Cl    0.54348   0.96437   0.21813   0.00000  Uiso   1.00
Cl247  Cl    0.95657   0.96433   0.11499   0.00000  Uiso   1.00
Cl248  Cl    0.54387   0.70195   0.11593   0.00000  Uiso   1.00
I249   I     0.87114   0.93917   0.20307   0.00000  Uiso   1.00
I250   I     0.62858   0.72785   0.20432   0.00000  Uiso   1.00
I251   I     0.87144   0.72789   0.12885   0.00000  Uiso   1.00
I252   I     0.62882   0.93907   0.12991   0.00000  Uiso   1.00
O253   O     0.25000   0.09512   0.54562   0.00000  Uiso   1.00
O254   O     0.25000   0.23822   0.45438   0.00000  Uiso   1.00
O255   O     0.25000   0.23822   0.54562   0.00000  Uiso   1.00
O256   O     0.25000   0.09512   0.45438   0.00000  Uiso   1.00
C257   C     0.25000   0.07251   0.50000   0.00000  Uiso   1.00
C258   C     0.24999   0.26083   0.50000   0.00000  Uiso   1.00
O259   O     0.18392   0.16667   0.54563   0.00000  Uiso   1.00
O260   O     0.31607   0.16667   0.45437   0.00000  Uiso   1.00
O261   O     0.31607   0.16667   0.54563   0.00000  Uiso   1.00
O262   O     0.18392   0.16667   0.45437   0.00000  Uiso   1.00
C263   C     0.16330   0.16666   0.50002   0.00000  Uiso   1.00
C264   C     0.33670   0.16664   0.49998   0.00000  Uiso   1.00
Zn265  Zn    0.25000   0.16667   0.56093   0.00000  Uiso   1.00
Zn266  Zn    0.25000   0.16667   0.43907   0.00000  Uiso   1.00
N267   N     0.25000   0.16667   0.35788   0.00000  Uiso   1.00
N268   N     0.25000   0.16667   0.64212   0.00000  Uiso   1.00
C269   C     0.40689   0.21055   0.50651   0.00000  Uiso   1.00
C270   C     0.09307   0.12287   0.50681   0.00000  Uiso   1.00
C271   C     0.40693   0.12286   0.49319   0.00000  Uiso   1.00
C272   C     0.09310   0.21053   0.49339   0.00000  Uiso   1.00
C273   C     0.38430   0.16668   0.49992   0.00000  Uiso   1.00
C274   C     0.11570   0.16669   0.50008   0.00000  Uiso   1.00
C275   C     0.45329   0.12236   0.49967   0.00000  Uiso   1.00
C276   C     0.04671   0.21105   0.49972   0.00000  Uiso   1.00
C277   C     0.45329   0.21105   0.50018   0.00000  Uiso   1.00
C278   C     0.04671   0.12236   0.50031   0.00000  Uiso   1.00
C279   C     0.47663   0.16670   0.49997   0.00000  Uiso   1.00
C280   C     0.02337   0.16670   0.49999   0.00000  Uiso   1.00
C281   C     0.47706   0.07899   0.50459   0.00000  Uiso   1.00
C282   C     0.02293   0.25441   0.50467   0.00000  Uiso   1.00
C283   C     0.47707   0.25441   0.49519   0.00000  Uiso   1.00
C284   C     0.02295   0.07899   0.49536   0.00000  Uiso   1.00
C285   C     0.25000   0.02155   0.50000   0.00000  Uiso   1.00
C286   C     0.24999   0.31179   0.50000   0.00000  Uiso   1.00
Cl287  Cl    0.45611   0.03518   0.55054   0.00000  Uiso   1.00
Cl288  Cl    0.04348   0.29770   0.55146   0.00000  Uiso   1.00
Cl289  Cl    0.45657   0.29767   0.44833   0.00000  Uiso   1.00
Cl290  Cl    0.04387   0.03528   0.44926   0.00000  Uiso   1.00
I291   I     0.37114   0.27250   0.53641   0.00000  Uiso   1.00
I292   I     0.12858   0.06118   0.53766   0.00000  Uiso   1.00
I293   I     0.37144   0.06123   0.46218   0.00000  Uiso   1.00
I294   I     0.12882   0.27240   0.46325   0.00000  Uiso   1.00
O295   O     0.75000   0.09512   0.54562   0.00000  Uiso   1.00
O296   O     0.75000   0.23822   0.45438   0.00000  Uiso   1.00
O297   O     0.75000   0.23822   0.54562   0.00000  Uiso   1.00
O298   O     0.75000   0.09512   0.45438   0.00000  Uiso   1.00
C299   C     0.75000   0.07251   0.50000   0.00000  Uiso   1.00
C300   C     0.74999   0.26083   0.50000   0.00000  Uiso   1.00
O301   O     0.68392   0.16667   0.54563   0.00000  Uiso   1.00
O302   O     0.81607   0.16667   0.45437   0.00000  Uiso   1.00
O303   O     0.81607   0.16667   0.54563   0.00000  Uiso   1.00
O304   O     0.68392   0.16667   0.45437   0.00000  Uiso   1.00
C305   C     0.66330   0.16666   0.50002   0.00000  Uiso   1.00
C306   C     0.83670   0.16664   0.49998   0.00000  Uiso   1.00
Zn307  Zn    0.75000   0.16667   0.56093   0.00000  Uiso   1.00
Zn308  Zn    0.75000   0.16667   0.43907   0.00000  Uiso   1.00
N309   N     0.75000   0.16667   0.35788   0.00000  Uiso   1.00
N310   N     0.75000   0.16667   0.64212   0.00000  Uiso   1.00
C311   C     0.90689   0.21055   0.50651   0.00000  Uiso   1.00
C312   C     0.59307   0.12287   0.50681   0.00000  Uiso   1.00
C313   C     0.90693   0.12286   0.49319   0.00000  Uiso   1.00
C314   C     0.59310   0.21053   0.49339   0.00000  Uiso   1.00
C315   C     0.88430   0.16668   0.49992   0.00000  Uiso   1.00
C316   C     0.61570   0.16669   0.50008   0.00000  Uiso   1.00
C317   C     0.95329   0.12236   0.49967   0.00000  Uiso   1.00
C318   C     0.54671   0.21105   0.49972   0.00000  Uiso   1.00
C319   C     0.95329   0.21105   0.50018   0.00000  Uiso   1.00
C320   C     0.54671   0.12236   0.50031   0.00000  Uiso   1.00
C321   C     0.97663   0.16670   0.49997   0.00000  Uiso   1.00
C322   C     0.52337   0.16670   0.49999   0.00000  Uiso   1.00
C323   C     0.97706   0.07899   0.50459   0.00000  Uiso   1.00
C324   C     0.52293   0.25441   0.50467   0.00000  Uiso   1.00
C325   C     0.97707   0.25441   0.49519   0.00000  Uiso   1.00
C326   C     0.52295   0.07899   0.49536   0.00000  Uiso   1.00
C327   C     0.75000   0.02155   0.50000   0.00000  Uiso   1.00
C328   C     0.74999   0.31179   0.50000   0.00000  Uiso   1.00
Cl329  Cl    0.95611   0.03518   0.55054   0.00000  Uiso   1.00
Cl330  Cl    0.54348   0.29770   0.55146   0.00000  Uiso   1.00
Cl331  Cl    0.95657   0.29767   0.44833   0.00000  Uiso   1.00
Cl332  Cl    0.54387   0.03528   0.44926   0.00000  Uiso   1.00
I333   I     0.87114   0.27250   0.53641   0.00000  Uiso   1.00
I334   I     0.62858   0.06118   0.53766   0.00000  Uiso   1.00
I335   I     0.87144   0.06123   0.46218   0.00000  Uiso   1.00
I336   I     0.62882   0.27240   0.46325   0.00000  Uiso   1.00
O337   O     0.25000   0.42845   0.54562   0.00000  Uiso   1.00
O338   O     0.25000   0.57155   0.45438   0.00000  Uiso   1.00
O339   O     0.25000   0.57155   0.54562   0.00000  Uiso   1.00
O340   O     0.25000   0.42845   0.45438   0.00000  Uiso   1.00
C341   C     0.25000   0.40584   0.50000   0.00000  Uiso   1.00
C342   C     0.24999   0.59416   0.50000   0.00000  Uiso   1.00
O343   O     0.18392   0.50000   0.54563   0.00000  Uiso   1.00
O344   O     0.31607   0.50000   0.45437   0.00000  Uiso   1.00
O345   O     0.31607   0.50000   0.54563   0.00000  Uiso   1.00
O346   O     0.18392   0.50000   0.45437   0.00000  Uiso   1.00
C347   C     0.16330   0.49999   0.50002   0.00000  Uiso   1.00
C348   C     0.33670   0.49997   0.49998   0.00000  Uiso   1.00
Zn349  Zn    0.25000   0.50000   0.56093   0.00000  Uiso   1.00
Zn350  Zn    0.25000   0.50000   0.43907   0.00000  Uiso   1.00
N351   N     0.25000   0.50000   0.35788   0.00000  Uiso   1.00
N352   N     0.25000   0.50000   0.64212   0.00000  Uiso   1.00
C353   C     0.40689   0.54388   0.50651   0.00000  Uiso   1.00
C354   C     0.09307   0.45620   0.50681   0.00000  Uiso   1.00
C355   C     0.40693   0.45620   0.49319   0.00000  Uiso   1.00
C356   C     0.09310   0.54387   0.49339   0.00000  Uiso   1.00
C357   C     0.38430   0.50001   0.49992   0.00000  Uiso   1.00
C358   C     0.11570   0.50002   0.50008   0.00000  Uiso   1.00
C359   C     0.45329   0.45569   0.49967   0.00000  Uiso   1.00
C360   C     0.04671   0.54438   0.49972   0.00000  Uiso   1.00
C361   C     0.45329   0.54439   0.50018   0.00000  Uiso   1.00
C362   C     0.04671   0.45569   0.50031   0.00000  Uiso   1.00
C363   C     0.47663   0.50004   0.49997   0.00000  Uiso   1.00
C364   C     0.02337   0.50004   0.49999   0.00000  Uiso   1.00
C365   C     0.47706   0.41232   0.50459   0.00000  Uiso   1.00
C366   C     0.02293   0.58774   0.50467   0.00000  Uiso   1.00
C367   C     0.47707   0.58774   0.49519   0.00000  Uiso   1.00
C368   C     0.02295   0.41232   0.49536   0.00000  Uiso   1.00
C369   C     0.25000   0.35488   0.50000   0.00000  Uiso   1.00
C370   C     0.24999   0.64512   0.50000   0.00000  Uiso   1.00
Cl371  Cl    0.45611   0.36852   0.55054   0.00000  Uiso   1.00
Cl372  Cl    0.04348   0.63104   0.55146   0.00000  Uiso   1.00
Cl373  Cl    0.45657   0.63100   0.44833   0.00000  Uiso   1.00
Cl374  Cl    0.04387   0.36861   0.44926   0.00000  Uiso   1.00
I375   I     0.37114   0.60583   0.53641   0.00000  Uiso   1.00
I376   I     0.12858   0.39452   0.53766   0.00000  Uiso   1.00
I377   I     0.37144   0.39456   0.46218   0.00000  Uiso   1.00
I378   I     0.12882   0.60573   0.46325   0.00000  Uiso   1.00
O379   O     0.75000   0.42845   0.54562   0.00000  Uiso   1.00
O380   O     0.75000   0.57155   0.45438   0.00000  Uiso   1.00
O381   O     0.75000   0.57155   0.54562   0.00000  Uiso   1.00
O382   O     0.75000   0.42845   0.45438   0.00000  Uiso   1.00
C383   C     0.75000   0.40584   0.50000   0.00000  Uiso   1.00
C384   C     0.74999   0.59416   0.50000   0.00000  Uiso   1.00
O385   O     0.68392   0.50000   0.54563   0.00000  Uiso   1.00
O386   O     0.81607   0.50000   0.45437   0.00000  Uiso   1.00
O387   O     0.81607   0.50000   0.54563   0.00000  Uiso   1.00
O388   O     0.68392   0.50000   0.45437   0.00000  Uiso   1.00
C389   C     0.66330   0.49999   0.50002   0.00000  Uiso   1.00
C390   C     0.83670   0.49997   0.49998   0.00000  Uiso   1.00
Zn391  Zn    0.75000   0.50000   0.56093   0.00000  Uiso   1.00
Zn392  Zn    0.75000   0.50000   0.43907   0.00000  Uiso   1.00
N393   N     0.75000   0.50000   0.35788   0.00000  Uiso   1.00
N394   N     0.75000   0.50000   0.64212   0.00000  Uiso   1.00
C395   C     0.90689   0.54388   0.50651   0.00000  Uiso   1.00
C396   C     0.59307   0.45620   0.50681   0.00000  Uiso   1.00
C397   C     0.90693   0.45620   0.49319   0.00000  Uiso   1.00
C398   C     0.59310   0.54387   0.49339   0.00000  Uiso   1.00
C399   C     0.88430   0.50001   0.49992   0.00000  Uiso   1.00
C400   C     0.61570   0.50002   0.50008   0.00000  Uiso   1.00
C401   C     0.95329   0.45569   0.49967   0.00000  Uiso   1.00
C402   C     0.54671   0.54438   0.49972   0.00000  Uiso   1.00
C403   C     0.95329   0.54439   0.50018   0.00000  Uiso   1.00
C404   C     0.54671   0.45569   0.50031   0.00000  Uiso   1.00
C405   C     0.97663   0.50004   0.49997   0.00000  Uiso   1.00
C406   C     0.52337   0.50004   0.49999   0.00000  Uiso   1.00
C407   C     0.97706   0.41232   0.50459   0.00000  Uiso   1.00
C408   C     0.52293   0.58774   0.50467   0.00000  Uiso   1.00
C409   C     0.97707   0.58774   0.49519   0.00000  Uiso   1.00
C410   C     0.52295   0.41232   0.49536   0.00000  Uiso   1.00
C411   C     0.75000   0.35488   0.50000   0.00000  Uiso   1.00
C412   C     0.74999   0.64512   0.50000   0.00000  Uiso   1.00
Cl413  Cl    0.95611   0.36852   0.55054   0.00000  Uiso   1.00
Cl414  Cl    0.54348   0.63104   0.55146   0.00000  Uiso   1.00
Cl415  Cl    0.95657   0.63100   0.44833   0.00000  Uiso   1.00
Cl416  Cl    0.54387   0.36861   0.44926   0.00000  Uiso   1.00
I417   I     0.87114   0.60583   0.53641   0.00000  Uiso   1.00
I418   I     0.62858   0.39452   0.53766   0.00000  Uiso   1.00
I419   I     0.87144   0.39456   0.46218   0.00000  Uiso   1.00
I420   I     0.62882   0.60573   0.46325   0.00000  Uiso   1.00
O421   O     0.25000   0.76178   0.54562   0.00000  Uiso   1.00
O422   O     0.25000   0.90488   0.45438   0.00000  Uiso   1.00
O423   O     0.25000   0.90488   0.54562   0.00000  Uiso   1.00
O424   O     0.25000   0.76178   0.45438   0.00000  Uiso   1.00
C425   C     0.25000   0.73917   0.50000   0.00000  Uiso   1.00
C426   C     0.24999   0.92749   0.50000   0.00000  Uiso   1.00
O427   O     0.18392   0.83333   0.54563   0.00000  Uiso   1.00
O428   O     0.31607   0.83333   0.45437   0.00000  Uiso   1.00
O429   O     0.31607   0.83333   0.54563   0.00000  Uiso   1.00
O430   O     0.18392   0.83333   0.45437   0.00000  Uiso   1.00
C431   C     0.16330   0.83332   0.50002   0.00000  Uiso   1.00
C432   C     0.33670   0.83330   0.49998   0.00000  Uiso   1.00
Zn433  Zn    0.25000   0.83333   0.56093   0.00000  Uiso   1.00
Zn434  Zn    0.25000   0.83333   0.43907   0.00000  Uiso   1.00
N435   N     0.25000   0.83333   0.35788   0.00000  Uiso   1.00
N436   N     0.25000   0.83333   0.64212   0.00000  Uiso   1.00
C437   C     0.40689   0.87722   0.50651   0.00000  Uiso   1.00
C438   C     0.09307   0.78954   0.50681   0.00000  Uiso   1.00
C439   C     0.40693   0.78953   0.49319   0.00000  Uiso   1.00
C440   C     0.09310   0.87720   0.49339   0.00000  Uiso   1.00
C441   C     0.38430   0.83335   0.49992   0.00000  Uiso   1.00
C442   C     0.11570   0.83336   0.50008   0.00000  Uiso   1.00
C443   C     0.45329   0.78902   0.49967   0.00000  Uiso   1.00
C444   C     0.04671   0.87771   0.49972   0.00000  Uiso   1.00
C445   C     0.45329   0.87772   0.50018   0.00000  Uiso   1.00
C446   C     0.04671   0.78903   0.50031   0.00000  Uiso   1.00
C447   C     0.47663   0.83337   0.49997   0.00000  Uiso   1.00
C448   C     0.02337   0.83337   0.49999   0.00000  Uiso   1.00
C449   C     0.47706   0.74566   0.50459   0.00000  Uiso   1.00
C450   C     0.02293   0.92108   0.50467   0.00000  Uiso   1.00
C451   C     0.47707   0.92108   0.49519   0.00000  Uiso   1.00
C452   C     0.02295   0.74566   0.49536   0.00000  Uiso   1.00
C453   C     0.25000   0.68821   0.50000   0.00000  Uiso   1.00
C454   C     0.24999   0.97845   0.50000   0.00000  Uiso   1.00
Cl455  Cl    0.45611   0.70185   0.55054   0.00000  Uiso   1.00
Cl456  Cl    0.04348   0.96437   0.55146   0.00000  Uiso   1.00
Cl457  Cl    0.45657   0.96433   0.44833   0.00000  Uiso   1.00
Cl458  Cl    0.04387   0.70195   0.44926   0.00000  Uiso   1.00
I459   I     0.37114   0.93917   0.53641   0.00000  Uiso   1.00
I460   I     0.12858   0.72785   0.53766   0.00000  Uiso   1.00
I461   I     0.37144   0.72789   0.46218   0.00000  Uiso   1.00
I462   I     0.12882   0.93907   0.46325   0.00000  Uiso   1.00
O463   O     0.75000   0.76178   0.54562   0.00000  Uiso   1.00
O464   O     0.75000   0.90488   0.45438   0.00000  Uiso   1.00
O465   O     0.75000   0.90488   0.54562   0.00000  Uiso   1.00
O466   O     0.75000   0.76178   0.45438   0.00000  Uiso   1.00
C467   C     0.75000   0.73917   0.50000   0.00000  Uiso   1.00
C468   C     0.74999   0.92749   0.50000   0.00000  Uiso   1.00
O469   O     0.68392   0.83333   0.54563   0.00000  Uiso   1.00
O470   O     0.81607   0.83333   0.45437   0.00000  Uiso   1.00
O471   O     0.81607   0.83333   0.54563   0.00000  Uiso   1.00
O472   O     0.68392   0.83333   0.45437   0.00000  Uiso   1.00
C473   C     0.66330   0.83332   0.50002   0.00000  Uiso   1.00
C474   C     0.83670   0.83330   0.49998   0.00000  Uiso   1.00
Zn475  Zn    0.75000   0.83333   0.56093   0.00000  Uiso   1.00
Zn476  Zn    0.75000   0.83333   0.43907   0.00000  Uiso   1.00
N477   N     0.75000   0.83333   0.35788   0.00000  Uiso   1.00
N478   N     0.75000   0.83333   0.64212   0.00000  Uiso   1.00
C479   C     0.90689   0.87722   0.50651   0.00000  Uiso   1.00
C480   C     0.59307   0.78954   0.50681   0.00000  Uiso   1.00
C481   C     0.90693   0.78953   0.49319   0.00000  Uiso   1.00
C482   C     0.59310   0.87720   0.49339   0.00000  Uiso   1.00
C483   C     0.88430   0.83335   0.49992   0.00000  Uiso   1.00
C484   C     0.61570   0.83336   0.50008   0.00000  Uiso   1.00
C485   C     0.95329   0.78902   0.49967   0.00000  Uiso   1.00
C486   C     0.54671   0.87771   0.49972   0.00000  Uiso   1.00
C487   C     0.95329   0.87772   0.50018   0.00000  Uiso   1.00
C488   C     0.54671   0.78903   0.50031   0.00000  Uiso   1.00
C489   C     0.97663   0.83337   0.49997   0.00000  Uiso   1.00
C490   C     0.52337   0.83337   0.49999   0.00000  Uiso   1.00
C491   C     0.97706   0.74566   0.50459   0.00000  Uiso   1.00
C492   C     0.52293   0.92108   0.50467   0.00000  Uiso   1.00
C493   C     0.97707   0.92108   0.49519   0.00000  Uiso   1.00
C494   C     0.52295   0.74566   0.49536   0.00000  Uiso   1.00
C495   C     0.75000   0.68821   0.50000   0.00000  Uiso   1.00
C496   C     0.74999   0.97845   0.50000   0.00000  Uiso   1.00
Cl497  Cl    0.95611   0.70185   0.55054   0.00000  Uiso   1.00
Cl498  Cl    0.54348   0.96437   0.55146   0.00000  Uiso   1.00
Cl499  Cl    0.95657   0.96433   0.44833   0.00000  Uiso   1.00
Cl500  Cl    0.54387   0.70195   0.44926   0.00000  Uiso   1.00
I501   I     0.87114   0.93917   0.53641   0.00000  Uiso   1.00
I502   I     0.62858   0.72785   0.53766   0.00000  Uiso   1.00
I503   I     0.87144   0.72789   0.46218   0.00000  Uiso   1.00
I504   I     0.62882   0.93907   0.46325   0.00000  Uiso   1.00
O505   O     0.25000   0.09512   0.87895   0.00000  Uiso   1.00
O506   O     0.25000   0.23822   0.78772   0.00000  Uiso   1.00
O507   O     0.25000   0.23822   0.87895   0.00000  Uiso   1.00
O508   O     0.25000   0.09512   0.78772   0.00000  Uiso   1.00
C509   C     0.25000   0.07251   0.83333   0.00000  Uiso   1.00
C510   C     0.24999   0.26083   0.83334   0.00000  Uiso   1.00
O511   O     0.18392   0.16667   0.87896   0.00000  Uiso   1.00
O512   O     0.31607   0.16667   0.78770   0.00000  Uiso   1.00
O513   O     0.31607   0.16667   0.87896   0.00000  Uiso   1.00
O514   O     0.18392   0.16667   0.78770   0.00000  Uiso   1.00
C515   C     0.16330   0.16666   0.83336   0.00000  Uiso   1.00
C516   C     0.33670   0.16664   0.83331   0.00000  Uiso   1.00
Zn517  Zn    0.25000   0.16667   0.89426   0.00000  Uiso   1.00
Zn518  Zn    0.25000   0.16667   0.77241   0.00000  Uiso   1.00
N519   N     0.25000   0.16667   0.69121   0.00000  Uiso   1.00
N520   N     0.25000   0.16667   0.97545   0.00000  Uiso   1.00
C521   C     0.40689   0.21055   0.83985   0.00000  Uiso   1.00
C522   C     0.09307   0.12287   0.84014   0.00000  Uiso   1.00
C523   C     0.40693   0.12286   0.82652   0.00000  Uiso   1.00
C524   C     0.09310   0.21053   0.82672   0.00000  Uiso   1.00
C525   C     0.38430   0.16668   0.83325   0.00000  Uiso   1.00
C526   C     0.11570   0.16669   0.83341   0.00000  Uiso   1.00
C527   C     0.45329   0.12236   0.83301   0.00000  Uiso   1.00
C528   C     0.04671   0.21105   0.83306   0.00000  Uiso   1.00
C529   C     0.45329   0.21105   0.83351   0.00000  Uiso   1.00
C530   C     0.04671   0.12236   0.83364   0.00000  Uiso   1.00
C531   C     0.47663   0.16670   0.83330   0.00000  Uiso   1.00
C532   C     0.02337   0.16670   0.83332   0.00000  Uiso   1.00
C533   C     0.47706   0.07899   0.83792   0.00000  Uiso   1.00
C534   C     0.02293   0.25441   0.83800   0.00000  Uiso   1.00
C535   C     0.47707   0.25441   0.82853   0.00000  Uiso   1.00
C536   C     0.02295   0.07899   0.82869   0.00000  Uiso   1.00
C537   C     0.25000   0.02155   0.83333   0.00000  Uiso   1.00
C538   C     0.24999   0.31179   0.83334   0.00000  Uiso   1.00
Cl539  Cl    0.45611   0.03518   0.88387   0.00000  Uiso   1.00
Cl540  Cl    0.04348   0.29770   0.88480   0.00000  Uiso   1.00
Cl541  Cl    0.45657   0.29767   0.78166   0.00000  Uiso   1.00
Cl542  Cl    0.04387   0.03528   0.78260   0.00000  Uiso   1.00
I543   I     0.37114   0.27250   0.86974   0.00000  Uiso   1.00
I544   I     0.12858   0.06118   0.87099   0.00000  Uiso   1.00
I545   I     0.37144   0.06123   0.79552   0.00000  Uiso   1.00
I546   I     0.12882   0.27240   0.79658   0.00000  Uiso   1.00
O547   O     0.75000   0.09512   0.87895   0.00000  Uiso   1.00
O548   O     0.75000   0.23822   0.78772   0.00000  Uiso   1.00
O549   O     0.75000   0.23822   0.87895   0.00000  Uiso   1.00
O550   O     0.75000   0.09512   0.78772   0.00000  Uiso   1.00
C551   C     0.75000   0.07251   0.83333   0.00000  Uiso   1.00
C552   C     0.74999   0.26083   0.83334   0.00000  Uiso   1.00
O553   O     0.68392   0.16667   0.87896   0.00000  Uiso   1.00
O554   O     0.81607   0.16667   0.78770   0.00000  Uiso   1.00
O555   O     0.81607   0.16667   0.87896   0.00000  Uiso   1.00
O556   O     0.68392   0.16667   0.78770   0.00000  Uiso   1.00
C557   C     0.66330   0.16666   0.83336   0.00000  Uiso   1.00
C558   C     0.83670   0.16664   0.83331   0.00000  Uiso   1.00
Zn559  Zn    0.75000   0.16667   0.89426   0.00000  Uiso   1.00
Zn560  Zn    0.75000   0.16667   0.77241   0.00000  Uiso   1.00
N561   N     0.75000   0.16667   0.69121   0.00000  Uiso   1.00
N562   N     0.75000   0.16667   0.97545   0.00000  Uiso   1.00
C563   C     0.90689   0.21055   0.83985   0.00000  Uiso   1.00
C564   C     0.59307   0.12287   0.84014   0.00000  Uiso   1.00
C565   C     0.90693   0.12286   0.82652   0.00000  Uiso   1.00
C566   C     0.59310   0.21053   0.82672   0.00000  Uiso   1.00
C567   C     0.88430   0.16668   0.83325   0.00000  Uiso   1.00
C568   C     0.61570   0.16669   0.83341   0.00000  Uiso   1.00
C569   C     0.95329   0.12236   0.83301   0.00000  Uiso   1.00
C570   C     0.54671   0.21105   0.83306   0.00000  Uiso   1.00
C571   C     0.95329   0.21105   0.83351   0.00000  Uiso   1.00
C572   C     0.54671   0.12236   0.83364   0.00000  Uiso   1.00
C573   C     0.97663   0.16670   0.83330   0.00000  Uiso   1.00
C574   C     0.52337   0.16670   0.83332   0.00000  Uiso   1.00
C575   C     0.97706   0.07899   0.83792   0.00000  Uiso   1.00
C576   C     0.52293   0.25441   0.83800   0.00000  Uiso   1.00
C577   C     0.97707   0.25441   0.82853   0.00000  Uiso   1.00
C578   C     0.52295   0.07899   0.82869   0.00000  Uiso   1.00
C579   C     0.75000   0.02155   0.83333   0.00000  Uiso   1.00
C580   C     0.74999   0.31179   0.83334   0.00000  Uiso   1.00
Cl581  Cl    0.95611   0.03518   0.88387   0.00000  Uiso   1.00
Cl582  Cl    0.54348   0.29770   0.88480   0.00000  Uiso   1.00
Cl583  Cl    0.95657   0.29767   0.78166   0.00000  Uiso   1.00
Cl584  Cl    0.54387   0.03528   0.78260   0.00000  Uiso   1.00
I585   I     0.87114   0.27250   0.86974   0.00000  Uiso   1.00
I586   I     0.62858   0.06118   0.87099   0.00000  Uiso   1.00
I587   I     0.87144   0.06123   0.79552   0.00000  Uiso   1.00
I588   I     0.62882   0.27240   0.79658   0.00000  Uiso   1.00
O589   O     0.25000   0.42845   0.87895   0.00000  Uiso   1.00
O590   O     0.25000   0.57155   0.78772   0.00000  Uiso   1.00
O591   O     0.25000   0.57155   0.87895   0.00000  Uiso   1.00
O592   O     0.25000   0.42845   0.78772   0.00000  Uiso   1.00
C593   C     0.25000   0.40584   0.83333   0.00000  Uiso   1.00
C594   C     0.24999   0.59416   0.83334   0.00000  Uiso   1.00
O595   O     0.18392   0.50000   0.87896   0.00000  Uiso   1.00
O596   O     0.31607   0.50000   0.78770   0.00000  Uiso   1.00
O597   O     0.31607   0.50000   0.87896   0.00000  Uiso   1.00
O598   O     0.18392   0.50000   0.78770   0.00000  Uiso   1.00
C599   C     0.16330   0.49999   0.83336   0.00000  Uiso   1.00
C600   C     0.33670   0.49997   0.83331   0.00000  Uiso   1.00
Zn601  Zn    0.25000   0.50000   0.89426   0.00000  Uiso   1.00
Zn602  Zn    0.25000   0.50000   0.77241   0.00000  Uiso   1.00
N603   N     0.25000   0.50000   0.69121   0.00000  Uiso   1.00
N604   N     0.25000   0.50000   0.97545   0.00000  Uiso   1.00
C605   C     0.40689   0.54388   0.83985   0.00000  Uiso   1.00
C606   C     0.09307   0.45620   0.84014   0.00000  Uiso   1.00
C607   C     0.40693   0.45620   0.82652   0.00000  Uiso   1.00
C608   C     0.09310   0.54387   0.82672   0.00000  Uiso   1.00
C609   C     0.38430   0.50001   0.83325   0.00000  Uiso   1.00
C610   C     0.11570   0.50002   0.83341   0.00000  Uiso   1.00
C611   C     0.45329   0.45569   0.83301   0.00000  Uiso   1.00
C612   C     0.04671   0.54438   0.83306   0.00000  Uiso   1.00
C613   C     0.45329   0.54439   0.83351   0.00000  Uiso   1.00
C614   C     0.04671   0.45569   0.83364   0.00000  Uiso   1.00
C615   C     0.47663   0.50004   0.83330   0.00000  Uiso   1.00
C616   C     0.02337   0.50004   0.83332   0.00000  Uiso   1.00
C617   C     0.47706   0.41232   0.83792   0.00000  Uiso   1.00
C618   C     0.02293   0.58774   0.83800   0.00000  Uiso   1.00
C619   C     0.47707   0.58774   0.82853   0.00000  Uiso   1.00
C620   C     0.02295   0.41232   0.82869   0.00000  Uiso   1.00
C621   C     0.25000   0.35488   0.83333   0.00000  Uiso   1.00
C622   C     0.24999   0.64512   0.83334   0.00000  Uiso   1.00
Cl623  Cl    0.45611   0.36852   0.88387   0.00000  Uiso   1.00
Cl624  Cl    0.04348   0.63104   0.88480   0.00000  Uiso   1.00
Cl625  Cl    0.45657   0.63100   0.78166   0.00000  Uiso   1.00
Cl626  Cl    0.04387   0.36861   0.78260   0.00000  Uiso   1.00
I627   I     0.37114   0.60583   0.86974   0.00000  Uiso   1.00
I628   I     0.12858   0.39452   0.87099   0.00000  Uiso   1.00
I629   I     0.37144   0.39456   0.79552   0.00000  Uiso   1.00
I630   I     0.12882   0.60573   0.79658   0.00000  Uiso   1.00
O631   O     0.75000   0.42845   0.87895   0.00000  Uiso   1.00
O632   O     0.75000   0.57155   0.78772   0.00000  Uiso   1.00
O633   O     0.75000   0.57155   0.87895   0.00000  Uiso   1.00
O634   O     0.75000   0.42845   0.78772   0.00000  Uiso   1.00
C635   C     0.75000   0.40584   0.83333   0.00000  Uiso   1.00
C636   C     0.74999   0.59416   0.83334   0.00000  Uiso   1.00
O637   O     0.68392   0.50000   0.87896   0.00000  Uiso   1.00
O638   O     0.81607   0.50000   0.78770   0.00000  Uiso   1.00
O639   O     0.81607   0.50000   0.87896   0.00000  Uiso   1.00
O640   O     0.68392   0.50000   0.78770   0.00000  Uiso   1.00
C641   C     0.66330   0.49999   0.83336   0.00000  Uiso   1.00
C642   C     0.83670   0.49997   0.83331   0.00000  Uiso   1.00
Zn643  Zn    0.75000   0.50000   0.89426   0.00000  Uiso   1.00
Zn644  Zn    0.75000   0.50000   0.77241   0.00000  Uiso   1.00
N645   N     0.75000   0.50000   0.69121   0.00000  Uiso   1.00
N646   N     0.75000   0.50000   0.97545   0.00000  Uiso   1.00
C647   C     0.90689   0.54388   0.83985   0.00000  Uiso   1.00
C648   C     0.59307   0.45620   0.84014   0.00000  Uiso   1.00
C649   C     0.90693   0.45620   0.82652   0.00000  Uiso   1.00
C650   C     0.59310   0.54387   0.82672   0.00000  Uiso   1.00
C651   C     0.88430   0.50001   0.83325   0.00000  Uiso   1.00
C652   C     0.61570   0.50002   0.83341   0.00000  Uiso   1.00
C653   C     0.95329   0.45569   0.83301   0.00000  Uiso   1.00
C654   C     0.54671   0.54438   0.83306   0.00000  Uiso   1.00
C655   C     0.95329   0.54439   0.83351   0.00000  Uiso   1.00
C656   C     0.54671   0.45569   0.83364   0.00000  Uiso   1.00
C657   C     0.97663   0.50004   0.83330   0.00000  Uiso   1.00
C658   C     0.52337   0.50004   0.83332   0.00000  Uiso   1.00
C659   C     0.97706   0.41232   0.83792   0.00000  Uiso   1.00
C660   C     0.52293   0.58774   0.83800   0.00000  Uiso   1.00
C661   C     0.97707   0.58774   0.82853   0.00000  Uiso   1.00
C662   C     0.52295   0.41232   0.82869   0.00000  Uiso   1.00
C663   C     0.75000   0.35488   0.83333   0.00000  Uiso   1.00
C664   C     0.74999   0.64512   0.83334   0.00000  Uiso   1.00
Cl665  Cl    0.95611   0.36852   0.88387   0.00000  Uiso   1.00
Cl666  Cl    0.54348   0.63104   0.88480   0.00000  Uiso   1.00
Cl667  Cl    0.95657   0.63100   0.78166   0.00000  Uiso   1.00
Cl668  Cl    0.54387   0.36861   0.78260   0.00000  Uiso   1.00
I669   I     0.87114   0.60583   0.86974   0.00000  Uiso   1.00
I670   I     0.62858   0.39452   0.87099   0.00000  Uiso   1.00
I671   I     0.87144   0.39456   0.79552   0.00000  Uiso   1.00
I672   I     0.62882   0.60573   0.79658   0.00000  Uiso   1.00
O673   O     0.25000   0.76178   0.87895   0.00000  Uiso   1.00
O674   O     0.25000   0.90488   0.78772   0.00000  Uiso   1.00
O675   O     0.25000   0.90488   0.87895   0.00000  Uiso   1.00
O676   O     0.25000   0.76178   0.78772   0.00000  Uiso   1.00
C677   C     0.25000   0.73917   0.83333   0.00000  Uiso   1.00
C678   C     0.24999   0.92749   0.83334   0.00000  Uiso   1.00
O679   O     0.18392   0.83333   0.87896   0.00000  Uiso   1.00
O680   O     0.31607   0.83333   0.78770   0.00000  Uiso   1.00
O681   O     0.31607   0.83333   0.87896   0.00000  Uiso   1.00
O682   O     0.18392   0.83333   0.78770   0.00000  Uiso   1.00
C683   C     0.16330   0.83332   0.83336   0.00000  Uiso   1.00
C684   C     0.33670   0.83330   0.83331   0.00000  Uiso   1.00
Zn685  Zn    0.25000   0.83333   0.89426   0.00000  Uiso   1.00
Zn686  Zn    0.25000   0.83333   0.77241   0.00000  Uiso   1.00
N687   N     0.25000   0.83333   0.69121   0.00000  Uiso   1.00
N688   N     0.25000   0.83333   0.97545   0.00000  Uiso   1.00
C689   C     0.40689   0.87722   0.83985   0.00000  Uiso   1.00
C690   C     0.09307   0.78954   0.84014   0.00000  Uiso   1.00
C691   C     0.40693   0.78953   0.82652   0.00000  Uiso   1.00
C692   C     0.09310   0.87720   0.82672   0.00000  Uiso   1.00
C693   C     0.38430   0.83335   0.83325   0.00000  Uiso   1.00
C694   C     0.11570   0.83336   0.83341   0.00000  Uiso   1.00
C695   C     0.45329   0.78902   0.83301   0.00000  Uiso   1.00
C696   C     0.04671   0.87771   0.83306   0.00000  Uiso   1.00
C697   C     0.45329   0.87772   0.83351   0.00000  Uiso   1.00
C698   C     0.04671   0.78903   0.83364   0.00000  Uiso   1.00
C699   C     0.47663   0.83337   0.83330   0.00000  Uiso   1.00
C700   C     0.02337   0.83337   0.83332   0.00000  Uiso   1.00
C701   C     0.47706   0.74566   0.83792   0.00000  Uiso   1.00
C702   C     0.02293   0.92108   0.83800   0.00000  Uiso   1.00
C703   C     0.47707   0.92108   0.82853   0.00000  Uiso   1.00
C704   C     0.02295   0.74566   0.82869   0.00000  Uiso   1.00
C705   C     0.25000   0.68821   0.83333   0.00000  Uiso   1.00
C706   C     0.24999   0.97845   0.83334   0.00000  Uiso   1.00
Cl707  Cl    0.45611   0.70185   0.88387   0.00000  Uiso   1.00
Cl708  Cl    0.04348   0.96437   0.88480   0.00000  Uiso   1.00
Cl709  Cl    0.45657   0.96433   0.78166   0.00000  Uiso   1.00
Cl710  Cl    0.04387   0.70195   0.78260   0.00000  Uiso   1.00
I711   I     0.37114   0.93917   0.86974   0.00000  Uiso   1.00
I712   I     0.12858   0.72785   0.87099   0.00000  Uiso   1.00
I713   I     0.37144   0.72789   0.79552   0.00000  Uiso   1.00
I714   I     0.12882   0.93907   0.79658   0.00000  Uiso   1.00
O715   O     0.75000   0.76178   0.87895   0.00000  Uiso   1.00
O716   O     0.75000   0.90488   0.78772   0.00000  Uiso   1.00
O717   O     0.75000   0.90488   0.87895   0.00000  Uiso   1.00
O718   O     0.75000   0.76178   0.78772   0.00000  Uiso   1.00
C719   C     0.75000   0.73917   0.83333   0.00000  Uiso   1.00
C720   C     0.74999   0.92749   0.83334   0.00000  Uiso   1.00
O721   O     0.68392   0.83333   0.87896   0.00000  Uiso   1.00
O722   O     0.81607   0.83333   0.78770   0.00000  Uiso   1.00
O723   O     0.81607   0.83333   0.87896   0.00000  Uiso   1.00
O724   O     0.68392   0.83333   0.78770   0.00000  Uiso   1.00
C725   C     0.66330   0.83332   0.83336   0.00000  Uiso   1.00
C726   C     0.83670   0.83330   0.83331   0.00000  Uiso   1.00
Zn727  Zn    0.75000   0.83333   0.89426   0.00000  Uiso   1.00
Zn728  Zn    0.75000   0.83333   0.77241   0.00000  Uiso   1.00
N729   N     0.75000   0.83333   0.69121   0.00000  Uiso   1.00
N730   N     0.75000   0.83333   0.97545   0.00000  Uiso   1.00
C731   C     0.90689   0.87722   0.83985   0.00000  Uiso   1.00
C732   C     0.59307   0.78954   0.84014   0.00000  Uiso   1.00
C733   C     0.90693   0.78953   0.82652   0.00000  Uiso   1.00
C734   C     0.59310   0.87720   0.82672   0.00000  Uiso   1.00
C735   C     0.88430   0.83335   0.83325   0.00000  Uiso   1.00
C736   C     0.61570   0.83336   0.83341   0.00000  Uiso   1.00
C737   C     0.95329   0.78902   0.83301   0.00000  Uiso   1.00
C738   C     0.54671   0.87771   0.83306   0.00000  Uiso   1.00
C739   C     0.95329   0.87772   0.83351   0.00000  Uiso   1.00
C740   C     0.54671   0.78903   0.83364   0.00000  Uiso   1.00
C741   C     0.97663   0.83337   0.83330   0.00000  Uiso   1.00
C742   C     0.52337   0.83337   0.83332   0.00000  Uiso   1.00
C743   C     0.97706   0.74566   0.83792   0.00000  Uiso   1.00
C744   C     0.52293   0.92108   0.83800   0.00000  Uiso   1.00
C745   C     0.97707   0.92108   0.82853   0.00000  Uiso   1.00
C746   C     0.52295   0.74566   0.82869   0.00000  Uiso   1.00
C747   C     0.75000   0.68821   0.83333   0.00000  Uiso   1.00
C748   C     0.74999   0.97845   0.83334   0.00000  Uiso   1.00
Cl749  Cl    0.95611   0.70185   0.88387   0.00000  Uiso   1.00
Cl750  Cl    0.54348   0.96437   0.88480   0.00000  Uiso   1.00
Cl751  Cl    0.95657   0.96433   0.78166   0.00000  Uiso   1.00
Cl752  Cl    0.54387   0.70195   0.78260   0.00000  Uiso   1.00
I753   I     0.87114   0.93917   0.86974   0.00000  Uiso   1.00
I754   I     0.62858   0.72785   0.87099   0.00000  Uiso   1.00
I755   I     0.87144   0.72789   0.79552   0.00000  Uiso   1.00
I756   I     0.62882   0.93907   0.79658   0.00000  Uiso   1.00
loop_
_geom_bond_atom_site_label_1
_geom_bond_atom_site_label_2
_geom_bond_distance
_geom_bond_site_symmetry_2
_ccdc_geom_bond_type
O1     C5      1.271   .     A
O1     Zn13    2.007   .     S
O2     C6      1.271   .     A
O2     Zn14    2.007   .     S
O3     Zn13    2.007   .     S
O3     C6      1.272   .     A
O4     Zn14    2.007   .     S
O4     C5      1.272   .     A
C5     C33     1.404   .     S
C6     C34     1.404   .     S
O7     C11     1.269   .     A
O7     Zn13    2.013   .     S
O8     C12     1.269   .     A
O8     Zn14    2.013   .     S
O9     C12     1.269   .     A
O9     Zn13    2.012   .     S
O10    C11     1.269   .     A
O10    Zn14    2.012   .     S
C11    C22     1.425   .     S
C12    C21     1.425   .     S
Zn13   N16     1.973   .     S
Zn14   N15     1.973   .     S
N15    N520    1.193   1_554 S
N16    N267    1.193   .     S
C17    C25     1.397   .     A
C17    I39     2.142   .     S
C17    C21     1.395   .     A
C18    C26     1.397   .     A
C18    C22     1.394   .     A
C18    I40     2.141   .     S
C19    I41     2.141   .     S
C19    C21     1.394   .     A
C19    C23     1.397   .     A
C20    I42     2.141   .     S
C20    C22     1.394   .     A
C20    C24     1.397   .     A
C23    C27     1.408   .     A
C23    C29     1.396   .     A
C24    C30     1.396   .     A
C24    C28     1.408   .     A
C25    C31     1.396   .     A
C25    C27     1.408   .     A
C26    C32     1.396   .     A
C26    C28     1.408   .     A
C27    C70     1.399   .     S
C28    C69     1.399   1_455 S
C29    Cl35    1.760   .     S
C29    C74     1.392   .     S
C30    Cl36    1.759   .     S
C30    C73     1.392   1_455 S
C31    Cl37    1.759   .     S
C31    C72     1.392   .     S
C32    Cl38    1.759   .     S
C32    C71     1.392   1_455 S
C33    C202    1.188   1_545 S
C34    C117    1.188   .     S
O43    C47     1.271   .     A
O43    Zn55    2.007   .     S
O44    C48     1.271   .     A
O44    Zn56    2.007   .     S
O45    Zn55    2.007   .     S
O45    C48     1.272   .     A
O46    Zn56    2.007   .     S
O46    C47     1.272   .     A
C47    C75     1.404   .     S
C48    C76     1.404   .     S
O49    C53     1.269   .     A
O49    Zn55    2.013   .     S
O50    C54     1.269   .     A
O50    Zn56    2.013   .     S
O51    C54     1.269   .     A
O51    Zn55    2.012   .     S
O52    C53     1.269   .     A
O52    Zn56    2.012   .     S
C53    C64     1.425   .     S
C54    C63     1.425   .     S
Zn55   N58     1.973   .     S
Zn56   N57     1.973   .     S
N57    N562    1.193   1_554 S
N58    N309    1.193   .     S
C59    C67     1.397   .     A
C59    I81     2.142   .     S
C59    C63     1.395   .     A
C60    C68     1.397   .     A
C60    C64     1.394   .     A
C60    I82     2.141   .     S
C61    I83     2.141   .     S
C61    C63     1.394   .     A
C61    C65     1.397   .     A
C62    I84     2.141   .     S
C62    C64     1.394   .     A
C62    C66     1.397   .     A
C65    C69     1.408   .     A
C65    C71     1.396   .     A
C66    C72     1.396   .     A
C66    C70     1.408   .     A
C67    C73     1.396   .     A
C67    C69     1.408   .     A
C68    C74     1.396   .     A
C68    C70     1.408   .     A
C69    C28     1.399   1_655 S
C71    Cl77    1.760   .     S
C71    C32     1.392   1_655 S
C72    Cl78    1.759   .     S
C73    Cl79    1.759   .     S
C73    C30     1.392   1_655 S
C74    Cl80    1.759   .     S
C75    C244    1.188   1_545 S
C76    C159    1.188   .     S
O85    C89     1.271   .     A
O85    Zn97    2.007   .     S
O86    C90     1.271   .     A
O86    Zn98    2.007   .     S
O87    Zn97    2.007   .     S
O87    C90     1.272   .     A
O88    Zn98    2.007   .     S
O88    C89     1.272   .     A
C89    C117    1.404   .     S
C90    C118    1.404   .     S
O91    C95     1.269   .     A
O91    Zn97    2.013   .     S
O92    C96     1.269   .     A
O92    Zn98    2.013   .     S
O93    C96     1.269   .     A
O93    Zn97    2.012   .     S
O94    C95     1.269   .     A
O94    Zn98    2.012   .     S
C95    C106    1.425   .     S
C96    C105    1.425   .     S
Zn97   N100    1.973   .     S
Zn98   N99     1.973   .     S
N99    N604    1.193   1_554 S
N100   N351    1.193   .     S
C101   C109    1.397   .     A
C101   I123    2.142   .     S
C101   C105    1.395   .     A
C102   C110    1.397   .     A
C102   C106    1.394   .     A
C102   I124    2.141   .     S
C103   I125    2.141   .     S
C103   C105    1.394   .     A
C103   C107    1.397   .     A
C104   I126    2.141   .     S
C104   C106    1.394   .     A
C104   C108    1.397   .     A
C107   C111    1.408   .     A
C107   C113    1.396   .     A
C108   C114    1.396   .     A
C108   C112    1.408   .     A
C109   C115    1.396   .     A
C109   C111    1.408   .     A
C110   C116    1.396   .     A
C110   C112    1.408   .     A
C111   C154    1.399   .     S
C112   C153    1.399   1_455 S
C113   Cl119   1.760   .     S
C113   C158    1.392   .     S
C114   Cl120   1.759   .     S
C114   C157    1.392   1_455 S
C115   Cl121   1.759   .     S
C115   C156    1.392   .     S
C116   Cl122   1.759   .     S
C116   C155    1.392   1_455 S
C118   C201    1.188   .     S
O127   C131    1.271   .     A
O127   Zn139   2.007   .     S
O128   C132    1.271   .     A
O128   Zn140   2.007   .     S
O129   Zn139   2.007   .     S
O129   C132    1.272   .     A
O130   Zn140   2.007   .     S
O130   C131    1.272   .     A
C131   C159    1.404   .     S
C132   C160    1.404   .     S
O133   C137    1.269   .     A
O133   Zn139   2.013   .     S
O134   C138    1.269   .     A
O134   Zn140   2.013   .     S
O135   C138    1.269   .     A
O135   Zn139   2.012   .     S
O136   C137    1.269   .     A
O136   Zn140   2.012   .     S
C137   C148    1.425   .     S
C138   C147    1.425   .     S
Zn139  N142    1.973   .     S
Zn140  N141    1.973   .     S
N141   N646    1.193   1_554 S
N142   N393    1.193   .     S
C143   C151    1.397   .     A
C143   I165    2.142   .     S
C143   C147    1.395   .     A
C144   C152    1.397   .     A
C144   C148    1.394   .     A
C144   I166    2.141   .     S
C145   I167    2.141   .     S
C145   C147    1.394   .     A
C145   C149    1.397   .     A
C146   I168    2.141   .     S
C146   C148    1.394   .     A
C146   C150    1.397   .     A
C149   C153    1.408   .     A
C149   C155    1.396   .     A
C150   C156    1.396   .     A
C150   C154    1.408   .     A
C151   C157    1.396   .     A
C151   C153    1.408   .     A
C152   C158    1.396   .     A
C152   C154    1.408   .     A
C153   C112    1.399   1_655 S
C155   Cl161   1.760   .     S
C155   C116    1.392   1_655 S
C156   Cl162   1.759   .     S
C157   Cl163   1.759   .     S
C157   C114    1.392   1_655 S
C158   Cl164   1.759   .     S
C160   C243    1.188   .     S
O169   C173    1.271   .     A
O169   Zn181   2.007   .     S
O170   C174    1.271   .     A
O170   Zn182   2.007   .     S
O171   Zn181   2.007   .     S
O171   C174    1.272   .     A
O172   Zn182   2.007   .     S
O172   C173    1.272   .     A
C173   C201    1.404   .     S
C174   C202    1.404   .     S
O175   C179    1.269   .     A
O175   Zn181   2.013   .     S
O176   C180    1.269   .     A
O176   Zn182   2.013   .     S
O177   C180    1.269   .     A
O177   Zn181   2.012   .     S
O178   C179    1.269   .     A
O178   Zn182   2.012   .     S
C179   C190    1.425   .     S
C180   C189    1.425   .     S
Zn181  N184    1.973   .     S
Zn182  N183    1.973   .     S
N183   N688    1.193   1_554 S
N184   N435    1.193   .     S
C185   C193    1.397   .     A
C185   I207    2.142   .     S
C185   C189    1.395   .     A
C186   C194    1.397   .     A
C186   C190    1.394   .     A
C186   I208    2.141   .     S
C187   I209    2.141   .     S
C187   C189    1.394   .     A
C187   C191    1.397   .     A
C188   I210    2.141   .     S
C188   C190    1.394   .     A
C188   C192    1.397   .     A
C191   C195    1.408   .     A
C191   C197    1.396   .     A
C192   C198    1.396   .     A
C192   C196    1.408   .     A
C193   C199    1.396   .     A
C193   C195    1.408   .     A
C194   C200    1.396   .     A
C194   C196    1.408   .     A
C195   C238    1.399   .     S
C196   C237    1.399   1_455 S
C197   Cl203   1.760   .     S
C197   C242    1.392   .     S
C198   Cl204   1.759   .     S
C198   C241    1.392   1_455 S
C199   Cl205   1.759   .     S
C199   C240    1.392   .     S
C200   Cl206   1.759   .     S
C200   C239    1.392   1_455 S
C202   C33     1.188   1_565 S
O211   C215    1.271   .     A
O211   Zn223   2.007   .     S
O212   C216    1.271   .     A
O212   Zn224   2.007   .     S
O213   Zn223   2.007   .     S
O213   C216    1.272   .     A
O214   Zn224   2.007   .     S
O214   C215    1.272   .     A
C215   C243    1.404   .     S
C216   C244    1.404   .     S
O217   C221    1.269   .     A
O217   Zn223   2.013   .     S
O218   C222    1.269   .     A
O218   Zn224   2.013   .     S
O219   C222    1.269   .     A
O219   Zn223   2.012   .     S
O220   C221    1.269   .     A
O220   Zn224   2.012   .     S
C221   C232    1.425   .     S
C222   C231    1.425   .     S
Zn223  N226    1.973   .     S
Zn224  N225    1.973   .     S
N225   N730    1.193   1_554 S
N226   N477    1.193   .     S
C227   C235    1.397   .     A
C227   I249    2.142   .     S
C227   C231    1.395   .     A
C228   C236    1.397   .     A
C228   C232    1.394   .     A
C228   I250    2.141   .     S
C229   I251    2.141   .     S
C229   C231    1.394   .     A
C229   C233    1.397   .     A
C230   I252    2.141   .     S
C230   C232    1.394   .     A
C230   C234    1.397   .     A
C233   C237    1.408   .     A
C233   C239    1.396   .     A
C234   C240    1.396   .     A
C234   C238    1.408   .     A
C235   C241    1.396   .     A
C235   C237    1.408   .     A
C236   C242    1.396   .     A
C236   C238    1.408   .     A
C237   C196    1.399   1_655 S
C239   Cl245   1.760   .     S
C239   C200    1.392   1_655 S
C240   Cl246   1.759   .     S
C241   Cl247   1.759   .     S
C241   C198    1.392   1_655 S
C242   Cl248   1.759   .     S
C244   C75     1.188   1_565 S
O253   C257    1.271   .     A
O253   Zn265   2.007   .     S
O254   C258    1.271   .     A
O254   Zn266   2.007   .     S
O255   Zn265   2.007   .     S
O255   C258    1.272   .     A
O256   Zn266   2.007   .     S
O256   C257    1.272   .     A
C257   C285    1.404   .     S
C258   C286    1.404   .     S
O259   C263    1.269   .     A
O259   Zn265   2.013   .     S
O260   C264    1.269   .     A
O260   Zn266   2.013   .     S
O261   C264    1.269   .     A
O261   Zn265   2.012   .     S
O262   C263    1.269   .     A
O262   Zn266   2.012   .     S
C263   C274    1.425   .     S
C264   C273    1.425   .     S
Zn265  N268    1.973   .     S
Zn266  N267    1.973   .     S
N268   N519    1.193   .     S
C269   C277    1.397   .     A
C269   I291    2.142   .     S
C269   C273    1.395   .     A
C270   C278    1.397   .     A
C270   C274    1.394   .     A
C270   I292    2.141   .     S
C271   I293    2.141   .     S
C271   C273    1.394   .     A
C271   C275    1.397   .     A
C272   I294    2.141   .     S
C272   C274    1.394   .     A
C272   C276    1.397   .     A
C275   C279    1.408   .     A
C275   C281    1.396   .     A
C276   C282    1.396   .     A
C276   C280    1.408   .     A
C277   C283    1.396   .     A
C277   C279    1.408   .     A
C278   C284    1.396   .     A
C278   C280    1.408   .     A
C279   C322    1.399   .     S
C280   C321    1.399   1_455 S
C281   Cl287   1.760   .     S
C281   C326    1.392   .     S
C282   Cl288   1.759   .     S
C282   C325    1.392   1_455 S
C283   Cl289   1.759   .     S
C283   C324    1.392   .     S
C284   Cl290   1.759   .     S
C284   C323    1.392   1_455 S
C285   C454    1.188   1_545 S
C286   C369    1.188   .     S
O295   C299    1.271   .     A
O295   Zn307   2.007   .     S
O296   C300    1.271   .     A
O296   Zn308   2.007   .     S
O297   Zn307   2.007   .     S
O297   C300    1.272   .     A
O298   Zn308   2.007   .     S
O298   C299    1.272   .     A
C299   C327    1.404   .     S
C300   C328    1.404   .     S
O301   C305    1.269   .     A
O301   Zn307   2.013   .     S
O302   C306    1.269   .     A
O302   Zn308   2.013   .     S
O303   C306    1.269   .     A
O303   Zn307   2.012   .     S
O304   C305    1.269   .     A
O304   Zn308   2.012   .     S
C305   C316    1.425   .     S
C306   C315    1.425   .     S
Zn307  N310    1.973   .     S
Zn308  N309    1.973   .     S
N310   N561    1.193   .     S
C311   C319    1.397   .     A
C311   I333    2.142   .     S
C311   C315    1.395   .     A
C312   C320    1.397   .     A
C312   C316    1.394   .     A
C312   I334    2.141   .     S
C313   I335    2.141   .     S
C313   C315    1.394   .     A
C313   C317    1.397   .     A
C314   I336    2.141   .     S
C314   C316    1.394   .     A
C314   C318    1.397   .     A
C317   C321    1.408   .     A
C317   C323    1.396   .     A
C318   C324    1.396   .     A
C318   C322    1.408   .     A
C319   C325    1.396   .     A
C319   C321    1.408   .     A
C320   C326    1.396   .     A
C320   C322    1.408   .     A
C321   C280    1.399   1_655 S
C323   Cl329   1.760   .     S
C323   C284    1.392   1_655 S
C324   Cl330   1.759   .     S
C325   Cl331   1.759   .     S
C325   C282    1.392   1_655 S
C326   Cl332   1.759   .     S
C327   C496    1.188   1_545 S
C328   C411    1.188   .     S
O337   C341    1.271   .     A
O337   Zn349   2.007   .     S
O338   C342    1.271   .     A
O338   Zn350   2.007   .     S
O339   Zn349   2.007   .     S
O339   C342    1.272   .     A
O340   Zn350   2.007   .     S
O340   C341    1.272   .     A
C341   C369    1.404   .     S
C342   C370    1.404   .     S
O343   C347    1.269   .     A
O343   Zn349   2.013   .     S
O344   C348    1.269   .     A
O344   Zn350   2.013   .     S
O345   C348    1.269   .     A
O345   Zn349   2.012   .     S
O346   C347    1.269   .     A
O346   Zn350   2.012   .     S
C347   C358    1.425   .     S
C348   C357    1.425   .     S
Zn349  N352    1.973   .     S
Zn350  N351    1.973   .     S
N352   N603    1.193   .     S
C353   C361    1.397   .     A
C353   I375    2.142   .     S
C353   C357    1.395   .     A
C354   C362    1.397   .     A
C354   C358    1.394   .     A
C354   I376    2.141   .     S
C355   I377    2.141   .     S
C355   C357    1.394   .     A
C355   C359    1.397   .     A
C356   I378    2.141   .     S
C356   C358    1.394   .     A
C356   C360    1.397   .     A
C359   C363    1.408   .     A
C359   C365    1.396   .     A
C360   C366    1.396   .     A
C360   C364    1.408   .     A
C361   C367    1.396   .     A
C361   C363    1.408   .     A
C362   C368    1.396   .     A
C362   C364    1.408   .     A
C363   C406    1.399   .     S
C364   C405    1.399   1_455 S
C365   Cl371   1.760   .     S
C365   C410    1.392   .     S
C366   Cl372   1.759   .     S
C366   C409    1.392   1_455 S
C367   Cl373   1.759   .     S
C367   C408    1.392   .     S
C368   Cl374   1.759   .     S
C368   C407    1.392   1_455 S
C370   C453    1.188   .     S
O379   C383    1.271   .     A
O379   Zn391   2.007   .     S
O380   C384    1.271   .     A
O380   Zn392   2.007   .     S
O381   Zn391   2.007   .     S
O381   C384    1.272   .     A
O382   Zn392   2.007   .     S
O382   C383    1.272   .     A
C383   C411    1.404   .     S
C384   C412    1.404   .     S
O385   C389    1.269   .     A
O385   Zn391   2.013   .     S
O386   C390    1.269   .     A
O386   Zn392   2.013   .     S
O387   C390    1.269   .     A
O387   Zn391   2.012   .     S
O388   C389    1.269   .     A
O388   Zn392   2.012   .     S
C389   C400    1.425   .     S
C390   C399    1.425   .     S
Zn391  N394    1.973   .     S
Zn392  N393    1.973   .     S
N394   N645    1.193   .     S
C395   C403    1.397   .     A
C395   I417    2.142   .     S
C395   C399    1.395   .     A
C396   C404    1.397   .     A
C396   C400    1.394   .     A
C396   I418    2.141   .     S
C397   I419    2.141   .     S
C397   C399    1.394   .     A
C397   C401    1.397   .     A
C398   I420    2.141   .     S
C398   C400    1.394   .     A
C398   C402    1.397   .     A
C401   C405    1.408   .     A
C401   C407    1.396   .     A
C402   C408    1.396   .     A
C402   C406    1.408   .     A
C403   C409    1.396   .     A
C403   C405    1.408   .     A
C404   C410    1.396   .     A
C404   C406    1.408   .     A
C405   C364    1.399   1_655 S
C407   Cl413   1.760   .     S
C407   C368    1.392   1_655 S
C408   Cl414   1.759   .     S
C409   Cl415   1.759   .     S
C409   C366    1.392   1_655 S
C410   Cl416   1.759   .     S
C412   C495    1.188   .     S
O421   C425    1.271   .     A
O421   Zn433   2.007   .     S
O422   C426    1.271   .     A
O422   Zn434   2.007   .     S
O423   Zn433   2.007   .     S
O423   C426    1.272   .     A
O424   Zn434   2.007   .     S
O424   C425    1.272   .     A
C425   C453    1.404   .     S
C426   C454    1.404   .     S
O427   C431    1.269   .     A
O427   Zn433   2.013   .     S
O428   C432    1.269   .     A
O428   Zn434   2.013   .     S
O429   C432    1.269   .     A
O429   Zn433   2.012   .     S
O430   C431    1.269   .     A
O430   Zn434   2.012   .     S
C431   C442    1.425   .     S
C432   C441    1.425   .     S
Zn433  N436    1.973   .     S
Zn434  N435    1.973   .     S
N436   N687    1.193   .     S
C437   C445    1.397   .     A
C437   I459    2.142   .     S
C437   C441    1.395   .     A
C438   C446    1.397   .     A
C438   C442    1.394   .     A
C438   I460    2.141   .     S
C439   I461    2.141   .     S
C439   C441    1.394   .     A
C439   C443    1.397   .     A
C440   I462    2.141   .     S
C440   C442    1.394   .     A
C440   C444    1.397   .     A
C443   C447    1.408   .     A
C443   C449    1.396   .     A
C444   C450    1.396   .     A
C444   C448    1.408   .     A
C445   C451    1.396   .     A
C445   C447    1.408   .     A
C446   C452    1.396   .     A
C446   C448    1.408   .     A
C447   C490    1.399   .     S
C448   C489    1.399   1_455 S
C449   Cl455   1.760   .     S
C449   C494    1.392   .     S
C450   Cl456   1.759   .     S
C450   C493    1.392   1_455 S
C451   Cl457   1.759   .     S
C451   C492    1.392   .     S
C452   Cl458   1.759   .     S
C452   C491    1.392   1_455 S
C454   C285    1.188   1_565 S
O463   C467    1.271   .     A
O463   Zn475   2.007   .     S
O464   C468    1.271   .     A
O464   Zn476   2.007   .     S
O465   Zn475   2.007   .     S
O465   C468    1.272   .     A
O466   Zn476   2.007   .     S
O466   C467    1.272   .     A
C467   C495    1.404   .     S
C468   C496    1.404   .     S
O469   C473    1.269   .     A
O469   Zn475   2.013   .     S
O470   C474    1.269   .     A
O470   Zn476   2.013   .     S
O471   C474    1.269   .     A
O471   Zn475   2.012   .     S
O472   C473    1.269   .     A
O472   Zn476   2.012   .     S
C473   C484    1.425   .     S
C474   C483    1.425   .     S
Zn475  N478    1.973   .     S
Zn476  N477    1.973   .     S
N478   N729    1.193   .     S
C479   C487    1.397   .     A
C479   I501    2.142   .     S
C479   C483    1.395   .     A
C480   C488    1.397   .     A
C480   C484    1.394   .     A
C480   I502    2.141   .     S
C481   I503    2.141   .     S
C481   C483    1.394   .     A
C481   C485    1.397   .     A
C482   I504    2.141   .     S
C482   C484    1.394   .     A
C482   C486    1.397   .     A
C485   C489    1.408   .     A
C485   C491    1.396   .     A
C486   C492    1.396   .     A
C486   C490    1.408   .     A
C487   C493    1.396   .     A
C487   C489    1.408   .     A
C488   C494    1.396   .     A
C488   C490    1.408   .     A
C489   C448    1.399   1_655 S
C491   Cl497   1.760   .     S
C491   C452    1.392   1_655 S
C492   Cl498   1.759   .     S
C493   Cl499   1.759   .     S
C493   C450    1.392   1_655 S
C494   Cl500   1.759   .     S
C496   C327    1.188   1_565 S
O505   C509    1.271   .     A
O505   Zn517   2.007   .     S
O506   C510    1.271   .     A
O506   Zn518   2.007   .     S
O507   Zn517   2.007   .     S
O507   C510    1.272   .     A
O508   Zn518   2.007   .     S
O508   C509    1.272   .     A
C509   C537    1.404   .     S
C510   C538    1.404   .     S
O511   C515    1.269   .     A
O511   Zn517   2.013   .     S
O512   C516    1.269   .     A
O512   Zn518   2.013   .     S
O513   C516    1.269   .     A
O513   Zn517   2.012   .     S
O514   C515    1.269   .     A
O514   Zn518   2.012   .     S
C515   C526    1.425   .     S
C516   C525    1.425   .     S
Zn517  N520    1.973   .     S
Zn518  N519    1.973   .     S
N520   N15     1.193   1_556 S
C521   C529    1.397   .     A
C521   I543    2.142   .     S
C521   C525    1.395   .     A
C522   C530    1.397   .     A
C522   C526    1.394   .     A
C522   I544    2.141   .     S
C523   I545    2.141   .     S
C523   C525    1.394   .     A
C523   C527    1.397   .     A
C524   I546    2.141   .     S
C524   C526    1.394   .     A
C524   C528    1.397   .     A
C527   C531    1.408   .     A
C527   C533    1.396   .     A
C528   C534    1.396   .     A
C528   C532    1.408   .     A
C529   C535    1.396   .     A
C529   C531    1.408   .     A
C530   C536    1.396   .     A
C530   C532    1.408   .     A
C531   C574    1.399   .     S
C532   C573    1.399   1_455 S
C533   Cl539   1.760   .     S
C533   C578    1.392   .     S
C534   Cl540   1.759   .     S
C534   C577    1.392   1_455 S
C535   Cl541   1.759   .     S
C535   C576    1.392   .     S
C536   Cl542   1.759   .     S
C536   C575    1.392   1_455 S
C537   C706    1.188   1_545 S
C538   C621    1.188   .     S
O547   C551    1.271   .     A
O547   Zn559   2.007   .     S
O548   C552    1.271   .     A
O548   Zn560   2.007   .     S
O549   Zn559   2.007   .     S
O549   C552    1.272   .     A
O550   Zn560   2.007   .     S
O550   C551    1.272   .     A
C551   C579    1.404   .     S
C552   C580    1.404   .     S
O553   C557    1.269   .     A
O553   Zn559   2.013   .     S
O554   C558    1.269   .     A
O554   Zn560   2.013   .     S
O555   C558    1.269   .     A
O555   Zn559   2.012   .     S
O556   C557    1.269   .     A
O556   Zn560   2.012   .     S
C557   C568    1.425   .     S
C558   C567    1.425   .     S
Zn559  N562    1.973   .     S
Zn560  N561    1.973   .     S
N562   N57     1.193   1_556 S
C563   C571    1.397   .     A
C563   I585    2.142   .     S
C563   C567    1.395   .     A
C564   C572    1.397   .     A
C564   C568    1.394   .     A
C564   I586    2.141   .     S
C565   I587    2.141   .     S
C565   C567    1.394   .     A
C565   C569    1.397   .     A
C566   I588    2.141   .     S
C566   C568    1.394   .     A
C566   C570    1.397   .     A
C569   C573    1.408   .     A
C569   C575    1.396   .     A
C570   C576    1.396   .     A
C570   C574    1.408   .     A
C571   C577    1.396   .     A
C571   C573    1.408   .     A
C572   C578    1.396   .     A
C572   C574    1.408   .     A
C573   C532    1.399   1_655 S
C575   Cl581   1.760   .     S
C575   C536    1.392   1_655 S
C576   Cl582   1.759   .     S
C577   Cl583   1.759   .     S
C577   C534    1.392   1_655 S
C578   Cl584   1.759   .     S
C579   C748    1.188   1_545 S
C580   C663    1.188   .     S
O589   C593    1.271   .     A
O589   Zn601   2.007   .     S
O590   C594    1.271   .     A
O590   Zn602   2.007   .     S
O591   Zn601   2.007   .     S
O591   C594    1.272   .     A
O592   Zn602   2.007   .     S
O592   C593    1.272   .     A
C593   C621    1.404   .     S
C594   C622    1.404   .     S
O595   C599    1.269   .     A
O595   Zn601   2.013   .     S
O596   C600    1.269   .     A
O596   Zn602   2.013   .     S
O597   C600    1.269   .     A
O597   Zn601   2.012   .     S
O598   C599    1.269   .     A
O598   Zn602   2.012   .     S
C599   C610    1.425   .     S
C600   C609    1.425   .     S
Zn601  N604    1.973   .     S
Zn602  N603    1.973   .     S
N604   N99     1.193   1_556 S
C605   C613    1.397   .     A
C605   I627    2.142   .     S
C605   C609    1.395   .     A
C606   C614    1.397   .     A
C606   C610    1.394   .     A
C606   I628    2.141   .     S
C607   I629    2.141   .     S
C607   C609    1.394   .     A
C607   C611    1.397   .     A
C608   I630    2.141   .     S
C608   C610    1.394   .     A
C608   C612    1.397   .     A
C611   C615    1.408   .     A
C611   C617    1.396   .     A
C612   C618    1.396   .     A
C612   C616    1.408   .     A
C613   C619    1.396   .     A
C613   C615    1.408   .     A
C614   C620    1.396   .     A
C614   C616    1.408   .     A
C615   C658    1.399   .     S
C616   C657    1.399   1_455 S
C617   Cl623   1.760   .     S
C617   C662    1.392   .     S
C618   Cl624   1.759   .     S
C618   C661    1.392   1_455 S
C619   Cl625   1.759   .     S
C619   C660    1.392   .     S
C620   Cl626   1.759   .     S
C620   C659    1.392   1_455 S
C622   C705    1.188   .     S
O631   C635    1.271   .     A
O631   Zn643   2.007   .     S
O632   C636    1.271   .     A
O632   Zn644   2.007   .     S
O633   Zn643   2.007   .     S
O633   C636    1.272   .     A
O634   Zn644   2.007   .     S
O634   C635    1.272   .     A
C635   C663    1.404   .     S
C636   C664    1.404   .     S
O637   C641    1.269   .     A
O637   Zn643   2.013   .     S
O638   C642    1.269   .     A
O638   Zn644   2.013   .     S
O639   C642    1.269   .     A
O639   Zn643   2.012   .     S
O640   C641    1.269   .     A
O640   Zn644   2.012   .     S
C641   C652    1.425   .     S
C642   C651    1.425   .     S
Zn643  N646    1.973   .     S
Zn644  N645    1.973   .     S
N646   N141    1.193   1_556 S
C647   C655    1.397   .     A
C647   I669    2.142   .     S
C647   C651    1.395   .     A
C648   C656    1.397   .     A
C648   C652    1.394   .     A
C648   I670    2.141   .     S
C649   I671    2.141   .     S
C649   C651    1.394   .     A
C649   C653    1.397   .     A
C650   I672    2.141   .     S
C650   C652    1.394   .     A
C650   C654    1.397   .     A
C653   C657    1.408   .     A
C653   C659    1.396   .     A
C654   C660    1.396   .     A
C654   C658    1.408   .     A
C655   C661    1.396   .     A
C655   C657    1.408   .     A
C656   C662    1.396   .     A
C656   C658    1.408   .     A
C657   C616    1.399   1_655 S
C659   Cl665   1.760   .     S
C659   C620    1.392   1_655 S
C660   Cl666   1.759   .     S
C661   Cl667   1.759   .     S
C661   C618    1.392   1_655 S
C662   Cl668   1.759   .     S
C664   C747    1.188   .     S
O673   C677    1.271   .     A
O673   Zn685   2.007   .     S
O674   C678    1.271   .     A
O674   Zn686   2.007   .     S
O675   Zn685   2.007   .     S
O675   C678    1.272   .     A
O676   Zn686   2.007   .     S
O676   C677    1.272   .     A
C677   C705    1.404   .     S
C678   C706    1.404   .     S
O679   C683    1.269   .     A
O679   Zn685   2.013   .     S
O680   C684    1.269   .     A
O680   Zn686   2.013   .     S
O681   C684    1.269   .     A
O681   Zn685   2.012   .     S
O682   C683    1.269   .     A
O682   Zn686   2.012   .     S
C683   C694    1.425   .     S
C684   C693    1.425   .     S
Zn685  N688    1.973   .     S
Zn686  N687    1.973   .     S
N688   N183    1.193   1_556 S
C689   C697    1.397   .     A
C689   I711    2.142   .     S
C689   C693    1.395   .     A
C690   C698    1.397   .     A
C690   C694    1.394   .     A
C690   I712    2.141   .     S
C691   I713    2.141   .     S
C691   C693    1.394   .     A
C691   C695    1.397   .     A
C692   I714    2.141   .     S
C692   C694    1.394   .     A
C692   C696    1.397   .     A
C695   C699    1.408   .     A
C695   C701    1.396   .     A
C696   C702    1.396   .     A
C696   C700    1.408   .     A
C697   C703    1.396   .     A
C697   C699    1.408   .     A
C698   C704    1.396   .     A
C698   C700    1.408   .     A
C699   C742    1.399   .     S
C700   C741    1.399   1_455 S
C701   Cl707   1.760   .     S
C701   C746    1.392   .     S
C702   Cl708   1.759   .     S
C702   C745    1.392   1_455 S
C703   Cl709   1.759   .     S
C703   C744    1.392   .     S
C704   Cl710   1.759   .     S
C704   C743    1.392   1_455 S
C706   C537    1.188   1_565 S
O715   C719    1.271   .     A
O715   Zn727   2.007   .     S
O716   C720    1.271   .     A
O716   Zn728   2.007   .     S
O717   Zn727   2.007   .     S
O717   C720    1.272   .     A
O718   Zn728   2.007   .     S
O718   C719    1.272   .     A
C719   C747    1.404   .     S
C720   C748    1.404   .     S
O721   C725    1.269   .     A
O721   Zn727   2.013   .     S
O722   C726    1.269   .     A
O722   Zn728   2.013   .     S
O723   C726    1.269   .     A
O723   Zn727   2.012   .     S
O724   C725    1.269   .     A
O724   Zn728   2.012   .     S
C725   C736    1.425   .     S
C726   C735    1.425   .     S
Zn727  N730    1.973   .     S
Zn728  N729    1.973   .     S
N730   N225    1.193   1_556 S
C731   C739    1.397   .     A
C731   I753    2.142   .     S
C731   C735    1.395   .     A
C732   C740    1.397   .     A
C732   C736    1.394   .     A
C732   I754    2.141   .     S
C733   I755    2.141   .     S
C733   C735    1.394   .     A
C733   C737    1.397   .     A
C734   I756    2.141   .     S
C734   C736    1.394   .     A
C734   C738    1.397   .     A
C737   C741    1.408   .     A
C737   C743    1.396   .     A
C738   C744    1.396   .     A
C738   C742    1.408   .     A
C739   C745    1.396   .     A
C739   C741    1.408   .     A
C740   C746    1.396   .     A
C740   C742    1.408   .     A
C741   C700    1.399   1_655 S
C743   Cl749   1.760   .     S
C743   C704    1.392   1_655 S
C744   Cl750   1.759   .     S
C745   Cl751   1.759   .     S
C745   C702    1.392   1_655 S
C746   Cl752   1.759   .     S
C748   C579    1.188   1_565 S
