data_str_m1_o10_o18_pcu_sym.71
_audit_creation_date              2020-01-03
_audit_creation_method            'Materials Studio'
_symmetry_space_group_name_H-M    'P1'
_symmetry_Int_Tables_number       1
_symmetry_cell_setting            triclinic
loop_
_symmetry_equiv_pos_as_xyz
  x,y,z
_cell_length_a                    32.5579
_cell_length_b                    32.5448
_cell_length_c                    35.3767
_cell_angle_alpha                 97.9658
_cell_angle_beta                  73.4385
_cell_angle_gamma                 98.5395
loop_
_atom_site_label
_atom_site_type_symbol
_atom_site_fract_x
_atom_site_fract_y
_atom_site_fract_z
_atom_site_U_iso_or_equiv
_atom_site_adp_type
_atom_site_occupancy
C1     C     0.05248   0.15972   0.25883   0.00000  Uiso   1.00
C2     C     0.19045   0.11449   0.45846   0.00000  Uiso   1.00
C3     C     0.21568   0.10070   0.47907   0.00000  Uiso   1.00
C4     C     0.28108   0.17352   0.24126   0.00000  Uiso   1.00
C5     C     0.20891   0.11113   0.01991   0.00000  Uiso   1.00
C6     C     0.17293   0.13254   0.04127   0.00000  Uiso   1.00
C7     C     0.23780   0.10093   0.03965   0.00000  Uiso   1.00
C8     C     0.23058   0.11270   0.08054   0.00000  Uiso   1.00
C9     C     0.16952   0.14711   0.08119   0.00000  Uiso   1.00
C10    C     0.32694   0.17622   0.23780   0.00000  Uiso   1.00
C11    C     0.00715   0.15705   0.26221   0.00000  Uiso   1.00
C12    C     0.09192   0.20418   0.42145   0.00000  Uiso   1.00
C13    C     0.18103   0.32217   0.23807   0.00000  Uiso   1.00
C14    C     0.15182   0.01202   0.26220   0.00000  Uiso   1.00
C15    C     0.15603   0.05602   0.25891   0.00000  Uiso   1.00
C16    C     0.17692   0.27767   0.24133   0.00000  Uiso   1.00
C17    C     0.18777   0.14561   0.14384   0.00000  Uiso   1.00
C18    C     0.14533   0.18736   0.35643   0.00000  Uiso   1.00
C19    C     0.13114   0.18952   0.40008   0.00000  Uiso   1.00
C20    C     0.19680   0.13583   0.10098   0.00000  Uiso   1.00
C21    C     0.07547   0.19918   0.46172   0.00000  Uiso   1.00
C22    C     0.31213   0.08458   0.03114   0.00000  Uiso   1.00
C23    C     0.15431   0.17128   0.41989   0.00000  Uiso   1.00
C24    C     0.07315   0.13419   0.07923   0.00000  Uiso   1.00
C25    C     0.07235   0.08684   0.07709   0.00000  Uiso   1.00
C26    C     0.16195   0.06714   0.41064   0.00000  Uiso   1.00
C27    C     0.13654   0.16253   0.45959   0.00000  Uiso   1.00
C28    C     0.09730   0.17822   0.48085   0.00000  Uiso   1.00
C29    C     0.15743   0.14004   0.47913   0.00000  Uiso   1.00
C30    C     0.14365   0.14188   0.02123   0.00000  Uiso   1.00
C31    C     0.10067   0.15150   0.04079   0.00000  Uiso   1.00
C32    C     0.07912   0.17115   0.02045   0.00000  Uiso   1.00
H33    H     0.04726   0.18018   0.03536   0.00000  Uiso   1.00
H34    H     0.07334   0.21835   0.40684   0.00000  Uiso   1.00
H35    H     0.18637   0.16430   0.40371   0.00000  Uiso   1.00
H36    H     0.26433   0.04787   0.00803   0.00000  Uiso   1.00
H37    H     0.00553   0.07239   0.00693   0.00000  Uiso   1.00
H38    H     0.30758   0.06749   0.05738   0.00000  Uiso   1.00
H39    H     0.32131   0.11840   0.03832   0.00000  Uiso   1.00
H40    H     0.06316   0.07138   0.05018   0.00000  Uiso   1.00
H41    H     0.10426   0.07830   0.07653   0.00000  Uiso   1.00
H42    H     0.04827   0.07502   0.10360   0.00000  Uiso   1.00
H43    H     0.08238   0.14958   0.10586   0.00000  Uiso   1.00
H44    H     0.01649   0.19392   0.21527   0.00000  Uiso   1.00
H45    H     0.03910   0.14033   0.08498   0.00000  Uiso   1.00
H46    H     0.22624   0.09041   0.40335   0.00000  Uiso   1.00
H47    H     0.16771   0.05837   0.37824   0.00000  Uiso   1.00
H48    H     0.13001   0.07912   0.42202   0.00000  Uiso   1.00
H49    H     0.16157   0.03887   0.42519   0.00000  Uiso   1.00
H50    H     0.31829   0.13915   0.28491   0.00000  Uiso   1.00
H51    H     0.20802   0.00282   0.21587   0.00000  Uiso   1.00
H52    H     0.12446   0.33212   0.28448   0.00000  Uiso   1.00
H53    H     0.14748   0.16927   0.09683   0.00000  Uiso   1.00
H54    H     0.25091   0.10376   0.09675   0.00000  Uiso   1.00
H55    H     0.24117   0.08208   0.46253   0.00000  Uiso   1.00
H56    H     0.04495   0.21058   0.47765   0.00000  Uiso   1.00
N57    N     0.27313   0.07824   0.01814   0.00000  Uiso   1.00
N58    N     0.19589   0.09871   0.41789   0.00000  Uiso   1.00
O59    O     0.16667   0.16667   0.25000   0.00000  Uiso   1.00
O60    O     0.15693   0.12393   0.16625   0.00000  Uiso   1.00
O61    O     0.12687   0.20646   0.33749   0.00000  Uiso   1.00
O62    O     0.21088   0.17493   0.15877   0.00000  Uiso   1.00
O63    O     0.17198   0.16135   0.33749   0.00000  Uiso   1.00
O64    O     0.17849   0.08101   0.27820   0.00000  Uiso   1.00
O65    O     0.14581   0.26136   0.26767   0.00000  Uiso   1.00
O66    O     0.07452   0.13251   0.23607   0.00000  Uiso   1.00
O67    O     0.26785   0.19179   0.21805   0.00000  Uiso   1.00
O68    O     0.06990   0.18960   0.27820   0.00000  Uiso   1.00
O69    O     0.25440   0.15277   0.26767   0.00000  Uiso   1.00
O70    O     0.13800   0.06903   0.23607   0.00000  Uiso   1.00
O71    O     0.20437   0.25527   0.21805   0.00000  Uiso   1.00
Zn72   Zn    0.19244   0.14090   0.28277   0.00000  Uiso   1.00
Zn73   Zn    0.13459   0.12378   0.22257   0.00000  Uiso   1.00
Zn74   Zn    0.21166   0.19664   0.21188   0.00000  Uiso   1.00
Zn75   Zn    0.12798   0.20535   0.28277   0.00000  Uiso   1.00
C76    C     0.38581   0.15972   0.25883   0.00000  Uiso   1.00
C77    C     0.52379   0.11449   0.45846   0.00000  Uiso   1.00
C78    C     0.54901   0.10070   0.47907   0.00000  Uiso   1.00
C79    C     0.61441   0.17352   0.24126   0.00000  Uiso   1.00
C80    C     0.54224   0.11113   0.01991   0.00000  Uiso   1.00
C81    C     0.50626   0.13254   0.04127   0.00000  Uiso   1.00
C82    C     0.57113   0.10093   0.03965   0.00000  Uiso   1.00
C83    C     0.56391   0.11270   0.08054   0.00000  Uiso   1.00
C84    C     0.50285   0.14711   0.08119   0.00000  Uiso   1.00
C85    C     0.66027   0.17622   0.23780   0.00000  Uiso   1.00
C86    C     0.34048   0.15705   0.26221   0.00000  Uiso   1.00
C87    C     0.42525   0.20418   0.42145   0.00000  Uiso   1.00
C88    C     0.51436   0.32217   0.23807   0.00000  Uiso   1.00
C89    C     0.48515   0.01202   0.26220   0.00000  Uiso   1.00
C90    C     0.48936   0.05602   0.25891   0.00000  Uiso   1.00
C91    C     0.51025   0.27767   0.24133   0.00000  Uiso   1.00
C92    C     0.52110   0.14561   0.14384   0.00000  Uiso   1.00
C93    C     0.47867   0.18736   0.35643   0.00000  Uiso   1.00
C94    C     0.46448   0.18952   0.40008   0.00000  Uiso   1.00
C95    C     0.53013   0.13583   0.10098   0.00000  Uiso   1.00
C96    C     0.40880   0.19918   0.46172   0.00000  Uiso   1.00
C97    C     0.64546   0.08458   0.03114   0.00000  Uiso   1.00
C98    C     0.48764   0.17128   0.41989   0.00000  Uiso   1.00
C99    C     0.40649   0.13419   0.07923   0.00000  Uiso   1.00
C100   C     0.40568   0.08684   0.07709   0.00000  Uiso   1.00
C101   C     0.49528   0.06714   0.41064   0.00000  Uiso   1.00
C102   C     0.46988   0.16253   0.45959   0.00000  Uiso   1.00
C103   C     0.43063   0.17822   0.48085   0.00000  Uiso   1.00
C104   C     0.49076   0.14004   0.47913   0.00000  Uiso   1.00
C105   C     0.47699   0.14188   0.02123   0.00000  Uiso   1.00
C106   C     0.43400   0.15150   0.04079   0.00000  Uiso   1.00
C107   C     0.41246   0.17115   0.02045   0.00000  Uiso   1.00
H108   H     0.38060   0.18018   0.03536   0.00000  Uiso   1.00
H109   H     0.40667   0.21835   0.40684   0.00000  Uiso   1.00
H110   H     0.51970   0.16430   0.40371   0.00000  Uiso   1.00
H111   H     0.59766   0.04787   0.00803   0.00000  Uiso   1.00
H112   H     0.33886   0.07239   0.00693   0.00000  Uiso   1.00
H113   H     0.64092   0.06749   0.05738   0.00000  Uiso   1.00
H114   H     0.65464   0.11840   0.03832   0.00000  Uiso   1.00
H115   H     0.39650   0.07138   0.05018   0.00000  Uiso   1.00
H116   H     0.43759   0.07830   0.07653   0.00000  Uiso   1.00
H117   H     0.38161   0.07502   0.10360   0.00000  Uiso   1.00
H118   H     0.41571   0.14958   0.10586   0.00000  Uiso   1.00
H119   H     0.34982   0.19392   0.21527   0.00000  Uiso   1.00
H120   H     0.37243   0.14033   0.08498   0.00000  Uiso   1.00
H121   H     0.55957   0.09041   0.40335   0.00000  Uiso   1.00
H122   H     0.50104   0.05837   0.37824   0.00000  Uiso   1.00
H123   H     0.46334   0.07912   0.42202   0.00000  Uiso   1.00
H124   H     0.49490   0.03887   0.42519   0.00000  Uiso   1.00
H125   H     0.65163   0.13915   0.28491   0.00000  Uiso   1.00
H126   H     0.54135   0.00282   0.21587   0.00000  Uiso   1.00
H127   H     0.45779   0.33212   0.28448   0.00000  Uiso   1.00
H128   H     0.48082   0.16927   0.09683   0.00000  Uiso   1.00
H129   H     0.58424   0.10376   0.09675   0.00000  Uiso   1.00
H130   H     0.57450   0.08208   0.46253   0.00000  Uiso   1.00
H131   H     0.37829   0.21058   0.47765   0.00000  Uiso   1.00
N132   N     0.60646   0.07824   0.01814   0.00000  Uiso   1.00
N133   N     0.52922   0.09871   0.41789   0.00000  Uiso   1.00
O134   O     0.50000   0.16667   0.25000   0.00000  Uiso   1.00
O135   O     0.49027   0.12393   0.16625   0.00000  Uiso   1.00
O136   O     0.46020   0.20646   0.33749   0.00000  Uiso   1.00
O137   O     0.54421   0.17493   0.15877   0.00000  Uiso   1.00
O138   O     0.50532   0.16135   0.33749   0.00000  Uiso   1.00
O139   O     0.51182   0.08101   0.27820   0.00000  Uiso   1.00
O140   O     0.47914   0.26136   0.26767   0.00000  Uiso   1.00
O141   O     0.40785   0.13251   0.23607   0.00000  Uiso   1.00
O142   O     0.60119   0.19179   0.21805   0.00000  Uiso   1.00
O143   O     0.40323   0.18960   0.27820   0.00000  Uiso   1.00
O144   O     0.58773   0.15277   0.26767   0.00000  Uiso   1.00
O145   O     0.47133   0.06903   0.23607   0.00000  Uiso   1.00
O146   O     0.53771   0.25527   0.21805   0.00000  Uiso   1.00
Zn147  Zn    0.52577   0.14090   0.28277   0.00000  Uiso   1.00
Zn148  Zn    0.46792   0.12378   0.22257   0.00000  Uiso   1.00
Zn149  Zn    0.54500   0.19664   0.21188   0.00000  Uiso   1.00
Zn150  Zn    0.46131   0.20535   0.28277   0.00000  Uiso   1.00
C151   C     0.71914   0.15972   0.25883   0.00000  Uiso   1.00
C152   C     0.85712   0.11449   0.45846   0.00000  Uiso   1.00
C153   C     0.88235   0.10070   0.47907   0.00000  Uiso   1.00
C154   C     0.94775   0.17352   0.24126   0.00000  Uiso   1.00
C155   C     0.87558   0.11113   0.01991   0.00000  Uiso   1.00
C156   C     0.83960   0.13254   0.04127   0.00000  Uiso   1.00
C157   C     0.90447   0.10093   0.03965   0.00000  Uiso   1.00
C158   C     0.89725   0.11270   0.08054   0.00000  Uiso   1.00
C159   C     0.83618   0.14711   0.08119   0.00000  Uiso   1.00
C160   C     0.99361   0.17622   0.23780   0.00000  Uiso   1.00
C161   C     0.67382   0.15705   0.26221   0.00000  Uiso   1.00
C162   C     0.75858   0.20418   0.42145   0.00000  Uiso   1.00
C163   C     0.84769   0.32217   0.23807   0.00000  Uiso   1.00
C164   C     0.81849   0.01202   0.26220   0.00000  Uiso   1.00
C165   C     0.82270   0.05602   0.25891   0.00000  Uiso   1.00
C166   C     0.84359   0.27767   0.24133   0.00000  Uiso   1.00
C167   C     0.85444   0.14561   0.14384   0.00000  Uiso   1.00
C168   C     0.81200   0.18736   0.35643   0.00000  Uiso   1.00
C169   C     0.79781   0.18952   0.40008   0.00000  Uiso   1.00
C170   C     0.86347   0.13583   0.10098   0.00000  Uiso   1.00
C171   C     0.74213   0.19918   0.46172   0.00000  Uiso   1.00
C172   C     0.97880   0.08458   0.03114   0.00000  Uiso   1.00
C173   C     0.82097   0.17128   0.41989   0.00000  Uiso   1.00
C174   C     0.73982   0.13419   0.07923   0.00000  Uiso   1.00
C175   C     0.73902   0.08684   0.07709   0.00000  Uiso   1.00
C176   C     0.82861   0.06714   0.41064   0.00000  Uiso   1.00
C177   C     0.80321   0.16253   0.45959   0.00000  Uiso   1.00
C178   C     0.76396   0.17822   0.48085   0.00000  Uiso   1.00
C179   C     0.82409   0.14004   0.47913   0.00000  Uiso   1.00
C180   C     0.81032   0.14188   0.02123   0.00000  Uiso   1.00
C181   C     0.76734   0.15150   0.04079   0.00000  Uiso   1.00
C182   C     0.74579   0.17115   0.02045   0.00000  Uiso   1.00
H183   H     0.71393   0.18018   0.03536   0.00000  Uiso   1.00
H184   H     0.74000   0.21835   0.40684   0.00000  Uiso   1.00
H185   H     0.85304   0.16430   0.40371   0.00000  Uiso   1.00
H186   H     0.93099   0.04787   0.00803   0.00000  Uiso   1.00
H187   H     0.67220   0.07239   0.00693   0.00000  Uiso   1.00
H188   H     0.97425   0.06749   0.05738   0.00000  Uiso   1.00
H189   H     0.98798   0.11840   0.03832   0.00000  Uiso   1.00
H190   H     0.72983   0.07138   0.05018   0.00000  Uiso   1.00
H191   H     0.77092   0.07830   0.07653   0.00000  Uiso   1.00
H192   H     0.71494   0.07502   0.10360   0.00000  Uiso   1.00
H193   H     0.74905   0.14958   0.10586   0.00000  Uiso   1.00
H194   H     0.68315   0.19392   0.21527   0.00000  Uiso   1.00
H195   H     0.70576   0.14033   0.08498   0.00000  Uiso   1.00
H196   H     0.89290   0.09041   0.40335   0.00000  Uiso   1.00
H197   H     0.83438   0.05837   0.37824   0.00000  Uiso   1.00
H198   H     0.79668   0.07912   0.42202   0.00000  Uiso   1.00
H199   H     0.82823   0.03887   0.42519   0.00000  Uiso   1.00
H200   H     0.98496   0.13915   0.28491   0.00000  Uiso   1.00
H201   H     0.87469   0.00282   0.21587   0.00000  Uiso   1.00
H202   H     0.79112   0.33212   0.28448   0.00000  Uiso   1.00
H203   H     0.81415   0.16927   0.09683   0.00000  Uiso   1.00
H204   H     0.91758   0.10376   0.09675   0.00000  Uiso   1.00
H205   H     0.90784   0.08208   0.46253   0.00000  Uiso   1.00
H206   H     0.71162   0.21058   0.47765   0.00000  Uiso   1.00
N207   N     0.93979   0.07824   0.01814   0.00000  Uiso   1.00
N208   N     0.86256   0.09871   0.41789   0.00000  Uiso   1.00
O209   O     0.83333   0.16667   0.25000   0.00000  Uiso   1.00
O210   O     0.82360   0.12393   0.16625   0.00000  Uiso   1.00
O211   O     0.79354   0.20646   0.33749   0.00000  Uiso   1.00
O212   O     0.87755   0.17493   0.15877   0.00000  Uiso   1.00
O213   O     0.83865   0.16135   0.33749   0.00000  Uiso   1.00
O214   O     0.84515   0.08101   0.27820   0.00000  Uiso   1.00
O215   O     0.81247   0.26136   0.26767   0.00000  Uiso   1.00
O216   O     0.74119   0.13251   0.23607   0.00000  Uiso   1.00
O217   O     0.93452   0.19179   0.21805   0.00000  Uiso   1.00
O218   O     0.73656   0.18960   0.27820   0.00000  Uiso   1.00
O219   O     0.92106   0.15277   0.26767   0.00000  Uiso   1.00
O220   O     0.80467   0.06903   0.23607   0.00000  Uiso   1.00
O221   O     0.87104   0.25527   0.21805   0.00000  Uiso   1.00
Zn222  Zn    0.85910   0.14090   0.28277   0.00000  Uiso   1.00
Zn223  Zn    0.80125   0.12378   0.22257   0.00000  Uiso   1.00
Zn224  Zn    0.87833   0.19664   0.21188   0.00000  Uiso   1.00
Zn225  Zn    0.79465   0.20535   0.28277   0.00000  Uiso   1.00
C226   C     0.05248   0.49305   0.25883   0.00000  Uiso   1.00
C227   C     0.19045   0.44782   0.45846   0.00000  Uiso   1.00
C228   C     0.21568   0.43403   0.47907   0.00000  Uiso   1.00
C229   C     0.28108   0.50685   0.24126   0.00000  Uiso   1.00
C230   C     0.20891   0.44446   0.01991   0.00000  Uiso   1.00
C231   C     0.17293   0.46587   0.04127   0.00000  Uiso   1.00
C232   C     0.23780   0.43426   0.03965   0.00000  Uiso   1.00
C233   C     0.23058   0.44603   0.08054   0.00000  Uiso   1.00
C234   C     0.16952   0.48044   0.08119   0.00000  Uiso   1.00
C235   C     0.32694   0.50956   0.23780   0.00000  Uiso   1.00
C236   C     0.00715   0.49038   0.26221   0.00000  Uiso   1.00
C237   C     0.09192   0.53752   0.42145   0.00000  Uiso   1.00
C238   C     0.18103   0.65550   0.23807   0.00000  Uiso   1.00
C239   C     0.15182   0.34536   0.26220   0.00000  Uiso   1.00
C240   C     0.15603   0.38936   0.25891   0.00000  Uiso   1.00
C241   C     0.17692   0.61101   0.24133   0.00000  Uiso   1.00
C242   C     0.18777   0.47894   0.14384   0.00000  Uiso   1.00
C243   C     0.14533   0.52069   0.35643   0.00000  Uiso   1.00
C244   C     0.13114   0.52285   0.40008   0.00000  Uiso   1.00
C245   C     0.19680   0.46916   0.10098   0.00000  Uiso   1.00
C246   C     0.07547   0.53251   0.46172   0.00000  Uiso   1.00
C247   C     0.31213   0.41792   0.03114   0.00000  Uiso   1.00
C248   C     0.15431   0.50461   0.41989   0.00000  Uiso   1.00
C249   C     0.07315   0.46752   0.07923   0.00000  Uiso   1.00
C250   C     0.07235   0.42017   0.07709   0.00000  Uiso   1.00
C251   C     0.16195   0.40047   0.41064   0.00000  Uiso   1.00
C252   C     0.13654   0.49587   0.45959   0.00000  Uiso   1.00
C253   C     0.09730   0.51155   0.48085   0.00000  Uiso   1.00
C254   C     0.15743   0.47337   0.47913   0.00000  Uiso   1.00
C255   C     0.14365   0.47521   0.02123   0.00000  Uiso   1.00
C256   C     0.10067   0.48484   0.04079   0.00000  Uiso   1.00
C257   C     0.07912   0.50448   0.02045   0.00000  Uiso   1.00
H258   H     0.04726   0.51351   0.03536   0.00000  Uiso   1.00
H259   H     0.07334   0.55168   0.40684   0.00000  Uiso   1.00
H260   H     0.18637   0.49763   0.40371   0.00000  Uiso   1.00
H261   H     0.26433   0.38121   0.00803   0.00000  Uiso   1.00
H262   H     0.00553   0.40572   0.00693   0.00000  Uiso   1.00
H263   H     0.30758   0.40083   0.05738   0.00000  Uiso   1.00
H264   H     0.32131   0.45174   0.03832   0.00000  Uiso   1.00
H265   H     0.06316   0.40471   0.05018   0.00000  Uiso   1.00
H266   H     0.10426   0.41163   0.07653   0.00000  Uiso   1.00
H267   H     0.04827   0.40836   0.10360   0.00000  Uiso   1.00
H268   H     0.08238   0.48292   0.10586   0.00000  Uiso   1.00
H269   H     0.01649   0.52725   0.21527   0.00000  Uiso   1.00
H270   H     0.03910   0.47366   0.08498   0.00000  Uiso   1.00
H271   H     0.22624   0.42374   0.40335   0.00000  Uiso   1.00
H272   H     0.16771   0.39170   0.37824   0.00000  Uiso   1.00
H273   H     0.13001   0.41245   0.42202   0.00000  Uiso   1.00
H274   H     0.16157   0.37221   0.42519   0.00000  Uiso   1.00
H275   H     0.31829   0.47248   0.28491   0.00000  Uiso   1.00
H276   H     0.20802   0.33616   0.21587   0.00000  Uiso   1.00
H277   H     0.12446   0.66545   0.28448   0.00000  Uiso   1.00
H278   H     0.14748   0.50260   0.09683   0.00000  Uiso   1.00
H279   H     0.25091   0.43709   0.09675   0.00000  Uiso   1.00
H280   H     0.24117   0.41542   0.46253   0.00000  Uiso   1.00
H281   H     0.04495   0.54391   0.47765   0.00000  Uiso   1.00
N282   N     0.27313   0.41158   0.01814   0.00000  Uiso   1.00
N283   N     0.19589   0.43205   0.41789   0.00000  Uiso   1.00
O284   O     0.16667   0.50000   0.25000   0.00000  Uiso   1.00
O285   O     0.15693   0.45726   0.16625   0.00000  Uiso   1.00
O286   O     0.12687   0.53979   0.33749   0.00000  Uiso   1.00
O287   O     0.21088   0.50826   0.15877   0.00000  Uiso   1.00
O288   O     0.17198   0.49468   0.33749   0.00000  Uiso   1.00
O289   O     0.17849   0.41434   0.27820   0.00000  Uiso   1.00
O290   O     0.14581   0.59469   0.26767   0.00000  Uiso   1.00
O291   O     0.07452   0.46584   0.23607   0.00000  Uiso   1.00
O292   O     0.26785   0.52512   0.21805   0.00000  Uiso   1.00
O293   O     0.06990   0.52293   0.27820   0.00000  Uiso   1.00
O294   O     0.25440   0.48610   0.26767   0.00000  Uiso   1.00
O295   O     0.13800   0.40236   0.23607   0.00000  Uiso   1.00
O296   O     0.20437   0.58860   0.21805   0.00000  Uiso   1.00
Zn297  Zn    0.19244   0.47423   0.28277   0.00000  Uiso   1.00
Zn298  Zn    0.13459   0.45711   0.22257   0.00000  Uiso   1.00
Zn299  Zn    0.21166   0.52997   0.21188   0.00000  Uiso   1.00
Zn300  Zn    0.12798   0.53868   0.28277   0.00000  Uiso   1.00
C301   C     0.38581   0.49305   0.25883   0.00000  Uiso   1.00
C302   C     0.52379   0.44782   0.45846   0.00000  Uiso   1.00
C303   C     0.54901   0.43403   0.47907   0.00000  Uiso   1.00
C304   C     0.61441   0.50685   0.24126   0.00000  Uiso   1.00
C305   C     0.54224   0.44446   0.01991   0.00000  Uiso   1.00
C306   C     0.50626   0.46587   0.04127   0.00000  Uiso   1.00
C307   C     0.57113   0.43426   0.03965   0.00000  Uiso   1.00
C308   C     0.56391   0.44603   0.08054   0.00000  Uiso   1.00
C309   C     0.50285   0.48044   0.08119   0.00000  Uiso   1.00
C310   C     0.66027   0.50956   0.23780   0.00000  Uiso   1.00
C311   C     0.34048   0.49038   0.26221   0.00000  Uiso   1.00
C312   C     0.42525   0.53752   0.42145   0.00000  Uiso   1.00
C313   C     0.51436   0.65550   0.23807   0.00000  Uiso   1.00
C314   C     0.48515   0.34536   0.26220   0.00000  Uiso   1.00
C315   C     0.48936   0.38936   0.25891   0.00000  Uiso   1.00
C316   C     0.51025   0.61101   0.24133   0.00000  Uiso   1.00
C317   C     0.52110   0.47894   0.14384   0.00000  Uiso   1.00
C318   C     0.47867   0.52069   0.35643   0.00000  Uiso   1.00
C319   C     0.46448   0.52285   0.40008   0.00000  Uiso   1.00
C320   C     0.53013   0.46916   0.10098   0.00000  Uiso   1.00
C321   C     0.40880   0.53251   0.46172   0.00000  Uiso   1.00
C322   C     0.64546   0.41792   0.03114   0.00000  Uiso   1.00
C323   C     0.48764   0.50461   0.41989   0.00000  Uiso   1.00
C324   C     0.40649   0.46752   0.07923   0.00000  Uiso   1.00
C325   C     0.40568   0.42017   0.07709   0.00000  Uiso   1.00
C326   C     0.49528   0.40047   0.41064   0.00000  Uiso   1.00
C327   C     0.46988   0.49587   0.45959   0.00000  Uiso   1.00
C328   C     0.43063   0.51155   0.48085   0.00000  Uiso   1.00
C329   C     0.49076   0.47337   0.47913   0.00000  Uiso   1.00
C330   C     0.47699   0.47521   0.02123   0.00000  Uiso   1.00
C331   C     0.43400   0.48484   0.04079   0.00000  Uiso   1.00
C332   C     0.41246   0.50448   0.02045   0.00000  Uiso   1.00
H333   H     0.38060   0.51351   0.03536   0.00000  Uiso   1.00
H334   H     0.40667   0.55168   0.40684   0.00000  Uiso   1.00
H335   H     0.51970   0.49763   0.40371   0.00000  Uiso   1.00
H336   H     0.59766   0.38121   0.00803   0.00000  Uiso   1.00
H337   H     0.33886   0.40572   0.00693   0.00000  Uiso   1.00
H338   H     0.64092   0.40083   0.05738   0.00000  Uiso   1.00
H339   H     0.65464   0.45174   0.03832   0.00000  Uiso   1.00
H340   H     0.39650   0.40471   0.05018   0.00000  Uiso   1.00
H341   H     0.43759   0.41163   0.07653   0.00000  Uiso   1.00
H342   H     0.38161   0.40836   0.10360   0.00000  Uiso   1.00
H343   H     0.41571   0.48292   0.10586   0.00000  Uiso   1.00
H344   H     0.34982   0.52725   0.21527   0.00000  Uiso   1.00
H345   H     0.37243   0.47366   0.08498   0.00000  Uiso   1.00
H346   H     0.55957   0.42374   0.40335   0.00000  Uiso   1.00
H347   H     0.50104   0.39170   0.37824   0.00000  Uiso   1.00
H348   H     0.46334   0.41245   0.42202   0.00000  Uiso   1.00
H349   H     0.49490   0.37221   0.42519   0.00000  Uiso   1.00
H350   H     0.65163   0.47248   0.28491   0.00000  Uiso   1.00
H351   H     0.54135   0.33616   0.21587   0.00000  Uiso   1.00
H352   H     0.45779   0.66545   0.28448   0.00000  Uiso   1.00
H353   H     0.48082   0.50260   0.09683   0.00000  Uiso   1.00
H354   H     0.58424   0.43709   0.09675   0.00000  Uiso   1.00
H355   H     0.57450   0.41542   0.46253   0.00000  Uiso   1.00
H356   H     0.37829   0.54391   0.47765   0.00000  Uiso   1.00
N357   N     0.60646   0.41158   0.01814   0.00000  Uiso   1.00
N358   N     0.52922   0.43205   0.41789   0.00000  Uiso   1.00
O359   O     0.50000   0.50000   0.25000   0.00000  Uiso   1.00
O360   O     0.49027   0.45726   0.16625   0.00000  Uiso   1.00
O361   O     0.46020   0.53979   0.33749   0.00000  Uiso   1.00
O362   O     0.54421   0.50826   0.15877   0.00000  Uiso   1.00
O363   O     0.50532   0.49468   0.33749   0.00000  Uiso   1.00
O364   O     0.51182   0.41434   0.27820   0.00000  Uiso   1.00
O365   O     0.47914   0.59469   0.26767   0.00000  Uiso   1.00
O366   O     0.40785   0.46584   0.23607   0.00000  Uiso   1.00
O367   O     0.60119   0.52512   0.21805   0.00000  Uiso   1.00
O368   O     0.40323   0.52293   0.27820   0.00000  Uiso   1.00
O369   O     0.58773   0.48610   0.26767   0.00000  Uiso   1.00
O370   O     0.47133   0.40236   0.23607   0.00000  Uiso   1.00
O371   O     0.53771   0.58860   0.21805   0.00000  Uiso   1.00
Zn372  Zn    0.52577   0.47423   0.28277   0.00000  Uiso   1.00
Zn373  Zn    0.46792   0.45711   0.22257   0.00000  Uiso   1.00
Zn374  Zn    0.54500   0.52997   0.21188   0.00000  Uiso   1.00
Zn375  Zn    0.46131   0.53868   0.28277   0.00000  Uiso   1.00
C376   C     0.71914   0.49305   0.25883   0.00000  Uiso   1.00
C377   C     0.85712   0.44782   0.45846   0.00000  Uiso   1.00
C378   C     0.88235   0.43403   0.47907   0.00000  Uiso   1.00
C379   C     0.94775   0.50685   0.24126   0.00000  Uiso   1.00
C380   C     0.87558   0.44446   0.01991   0.00000  Uiso   1.00
C381   C     0.83960   0.46587   0.04127   0.00000  Uiso   1.00
C382   C     0.90447   0.43426   0.03965   0.00000  Uiso   1.00
C383   C     0.89725   0.44603   0.08054   0.00000  Uiso   1.00
C384   C     0.83618   0.48044   0.08119   0.00000  Uiso   1.00
C385   C     0.99361   0.50956   0.23780   0.00000  Uiso   1.00
C386   C     0.67382   0.49038   0.26221   0.00000  Uiso   1.00
C387   C     0.75858   0.53752   0.42145   0.00000  Uiso   1.00
C388   C     0.84769   0.65550   0.23807   0.00000  Uiso   1.00
C389   C     0.81849   0.34536   0.26220   0.00000  Uiso   1.00
C390   C     0.82270   0.38936   0.25891   0.00000  Uiso   1.00
C391   C     0.84359   0.61101   0.24133   0.00000  Uiso   1.00
C392   C     0.85444   0.47894   0.14384   0.00000  Uiso   1.00
C393   C     0.81200   0.52069   0.35643   0.00000  Uiso   1.00
C394   C     0.79781   0.52285   0.40008   0.00000  Uiso   1.00
C395   C     0.86347   0.46916   0.10098   0.00000  Uiso   1.00
C396   C     0.74213   0.53251   0.46172   0.00000  Uiso   1.00
C397   C     0.97880   0.41792   0.03114   0.00000  Uiso   1.00
C398   C     0.82097   0.50461   0.41989   0.00000  Uiso   1.00
C399   C     0.73982   0.46752   0.07923   0.00000  Uiso   1.00
C400   C     0.73902   0.42017   0.07709   0.00000  Uiso   1.00
C401   C     0.82861   0.40047   0.41064   0.00000  Uiso   1.00
C402   C     0.80321   0.49587   0.45959   0.00000  Uiso   1.00
C403   C     0.76396   0.51155   0.48085   0.00000  Uiso   1.00
C404   C     0.82409   0.47337   0.47913   0.00000  Uiso   1.00
C405   C     0.81032   0.47521   0.02123   0.00000  Uiso   1.00
C406   C     0.76734   0.48484   0.04079   0.00000  Uiso   1.00
C407   C     0.74579   0.50448   0.02045   0.00000  Uiso   1.00
H408   H     0.71393   0.51351   0.03536   0.00000  Uiso   1.00
H409   H     0.74000   0.55168   0.40684   0.00000  Uiso   1.00
H410   H     0.85304   0.49763   0.40371   0.00000  Uiso   1.00
H411   H     0.93099   0.38121   0.00803   0.00000  Uiso   1.00
H412   H     0.67220   0.40572   0.00693   0.00000  Uiso   1.00
H413   H     0.97425   0.40083   0.05738   0.00000  Uiso   1.00
H414   H     0.98798   0.45174   0.03832   0.00000  Uiso   1.00
H415   H     0.72983   0.40471   0.05018   0.00000  Uiso   1.00
H416   H     0.77092   0.41163   0.07653   0.00000  Uiso   1.00
H417   H     0.71494   0.40836   0.10360   0.00000  Uiso   1.00
H418   H     0.74905   0.48292   0.10586   0.00000  Uiso   1.00
H419   H     0.68315   0.52725   0.21527   0.00000  Uiso   1.00
H420   H     0.70576   0.47366   0.08498   0.00000  Uiso   1.00
H421   H     0.89290   0.42374   0.40335   0.00000  Uiso   1.00
H422   H     0.83438   0.39170   0.37824   0.00000  Uiso   1.00
H423   H     0.79668   0.41245   0.42202   0.00000  Uiso   1.00
H424   H     0.82823   0.37221   0.42519   0.00000  Uiso   1.00
H425   H     0.98496   0.47248   0.28491   0.00000  Uiso   1.00
H426   H     0.87469   0.33616   0.21587   0.00000  Uiso   1.00
H427   H     0.79112   0.66545   0.28448   0.00000  Uiso   1.00
H428   H     0.81415   0.50260   0.09683   0.00000  Uiso   1.00
H429   H     0.91758   0.43709   0.09675   0.00000  Uiso   1.00
H430   H     0.90784   0.41542   0.46253   0.00000  Uiso   1.00
H431   H     0.71162   0.54391   0.47765   0.00000  Uiso   1.00
N432   N     0.93979   0.41158   0.01814   0.00000  Uiso   1.00
N433   N     0.86256   0.43205   0.41789   0.00000  Uiso   1.00
O434   O     0.83333   0.50000   0.25000   0.00000  Uiso   1.00
O435   O     0.82360   0.45726   0.16625   0.00000  Uiso   1.00
O436   O     0.79354   0.53979   0.33749   0.00000  Uiso   1.00
O437   O     0.87755   0.50826   0.15877   0.00000  Uiso   1.00
O438   O     0.83865   0.49468   0.33749   0.00000  Uiso   1.00
O439   O     0.84515   0.41434   0.27820   0.00000  Uiso   1.00
O440   O     0.81247   0.59469   0.26767   0.00000  Uiso   1.00
O441   O     0.74119   0.46584   0.23607   0.00000  Uiso   1.00
O442   O     0.93452   0.52512   0.21805   0.00000  Uiso   1.00
O443   O     0.73656   0.52293   0.27820   0.00000  Uiso   1.00
O444   O     0.92106   0.48610   0.26767   0.00000  Uiso   1.00
O445   O     0.80467   0.40236   0.23607   0.00000  Uiso   1.00
O446   O     0.87104   0.58860   0.21805   0.00000  Uiso   1.00
Zn447  Zn    0.85910   0.47423   0.28277   0.00000  Uiso   1.00
Zn448  Zn    0.80125   0.45711   0.22257   0.00000  Uiso   1.00
Zn449  Zn    0.87833   0.52997   0.21188   0.00000  Uiso   1.00
Zn450  Zn    0.79465   0.53868   0.28277   0.00000  Uiso   1.00
C451   C     0.05248   0.82638   0.25883   0.00000  Uiso   1.00
C452   C     0.19045   0.78116   0.45846   0.00000  Uiso   1.00
C453   C     0.21568   0.76736   0.47907   0.00000  Uiso   1.00
C454   C     0.28108   0.84019   0.24126   0.00000  Uiso   1.00
C455   C     0.20891   0.77780   0.01991   0.00000  Uiso   1.00
C456   C     0.17293   0.79921   0.04127   0.00000  Uiso   1.00
C457   C     0.23780   0.76760   0.03965   0.00000  Uiso   1.00
C458   C     0.23058   0.77936   0.08054   0.00000  Uiso   1.00
C459   C     0.16952   0.81377   0.08119   0.00000  Uiso   1.00
C460   C     0.32694   0.84289   0.23780   0.00000  Uiso   1.00
C461   C     0.00715   0.82371   0.26221   0.00000  Uiso   1.00
C462   C     0.09192   0.87085   0.42145   0.00000  Uiso   1.00
C463   C     0.18103   0.98883   0.23807   0.00000  Uiso   1.00
C464   C     0.15182   0.67869   0.26220   0.00000  Uiso   1.00
C465   C     0.15603   0.72269   0.25891   0.00000  Uiso   1.00
C466   C     0.17692   0.94434   0.24133   0.00000  Uiso   1.00
C467   C     0.18777   0.81228   0.14384   0.00000  Uiso   1.00
C468   C     0.14533   0.85403   0.35643   0.00000  Uiso   1.00
C469   C     0.13114   0.85618   0.40008   0.00000  Uiso   1.00
C470   C     0.19680   0.80249   0.10098   0.00000  Uiso   1.00
C471   C     0.07547   0.86584   0.46172   0.00000  Uiso   1.00
C472   C     0.31213   0.75125   0.03114   0.00000  Uiso   1.00
C473   C     0.15431   0.83795   0.41989   0.00000  Uiso   1.00
C474   C     0.07315   0.80085   0.07923   0.00000  Uiso   1.00
C475   C     0.07235   0.75351   0.07709   0.00000  Uiso   1.00
C476   C     0.16195   0.73380   0.41064   0.00000  Uiso   1.00
C477   C     0.13654   0.82920   0.45959   0.00000  Uiso   1.00
C478   C     0.09730   0.84489   0.48085   0.00000  Uiso   1.00
C479   C     0.15743   0.80671   0.47913   0.00000  Uiso   1.00
C480   C     0.14365   0.80855   0.02123   0.00000  Uiso   1.00
C481   C     0.10067   0.81817   0.04079   0.00000  Uiso   1.00
C482   C     0.07912   0.83781   0.02045   0.00000  Uiso   1.00
H483   H     0.04726   0.84684   0.03536   0.00000  Uiso   1.00
H484   H     0.07334   0.88501   0.40684   0.00000  Uiso   1.00
H485   H     0.18637   0.83097   0.40371   0.00000  Uiso   1.00
H486   H     0.26433   0.71454   0.00803   0.00000  Uiso   1.00
H487   H     0.00553   0.73906   0.00693   0.00000  Uiso   1.00
H488   H     0.30758   0.73416   0.05738   0.00000  Uiso   1.00
H489   H     0.32131   0.78507   0.03832   0.00000  Uiso   1.00
H490   H     0.06316   0.73805   0.05018   0.00000  Uiso   1.00
H491   H     0.10426   0.74496   0.07653   0.00000  Uiso   1.00
H492   H     0.04827   0.74169   0.10360   0.00000  Uiso   1.00
H493   H     0.08238   0.81625   0.10586   0.00000  Uiso   1.00
H494   H     0.01649   0.86059   0.21527   0.00000  Uiso   1.00
H495   H     0.03910   0.80699   0.08498   0.00000  Uiso   1.00
H496   H     0.22624   0.75707   0.40335   0.00000  Uiso   1.00
H497   H     0.16771   0.72504   0.37824   0.00000  Uiso   1.00
H498   H     0.13001   0.74578   0.42202   0.00000  Uiso   1.00
H499   H     0.16157   0.70554   0.42519   0.00000  Uiso   1.00
H500   H     0.31829   0.80581   0.28491   0.00000  Uiso   1.00
H501   H     0.20802   0.66949   0.21587   0.00000  Uiso   1.00
H502   H     0.12446   0.99879   0.28448   0.00000  Uiso   1.00
H503   H     0.14748   0.83594   0.09683   0.00000  Uiso   1.00
H504   H     0.25091   0.77042   0.09675   0.00000  Uiso   1.00
H505   H     0.24117   0.74875   0.46253   0.00000  Uiso   1.00
H506   H     0.04495   0.87724   0.47765   0.00000  Uiso   1.00
N507   N     0.27313   0.74491   0.01814   0.00000  Uiso   1.00
N508   N     0.19589   0.76538   0.41789   0.00000  Uiso   1.00
O509   O     0.16667   0.83333   0.25000   0.00000  Uiso   1.00
O510   O     0.15693   0.79060   0.16625   0.00000  Uiso   1.00
O511   O     0.12687   0.87313   0.33749   0.00000  Uiso   1.00
O512   O     0.21088   0.84159   0.15877   0.00000  Uiso   1.00
O513   O     0.17198   0.82802   0.33749   0.00000  Uiso   1.00
O514   O     0.17849   0.74768   0.27820   0.00000  Uiso   1.00
O515   O     0.14581   0.92803   0.26767   0.00000  Uiso   1.00
O516   O     0.07452   0.79917   0.23607   0.00000  Uiso   1.00
O517   O     0.26785   0.85845   0.21805   0.00000  Uiso   1.00
O518   O     0.06990   0.85627   0.27820   0.00000  Uiso   1.00
O519   O     0.25440   0.81944   0.26767   0.00000  Uiso   1.00
O520   O     0.13800   0.73570   0.23607   0.00000  Uiso   1.00
O521   O     0.20437   0.92193   0.21805   0.00000  Uiso   1.00
Zn522  Zn    0.19244   0.80756   0.28277   0.00000  Uiso   1.00
Zn523  Zn    0.13459   0.79044   0.22257   0.00000  Uiso   1.00
Zn524  Zn    0.21166   0.86331   0.21188   0.00000  Uiso   1.00
Zn525  Zn    0.12798   0.87202   0.28277   0.00000  Uiso   1.00
C526   C     0.38581   0.82638   0.25883   0.00000  Uiso   1.00
C527   C     0.52379   0.78116   0.45846   0.00000  Uiso   1.00
C528   C     0.54901   0.76736   0.47907   0.00000  Uiso   1.00
C529   C     0.61441   0.84019   0.24126   0.00000  Uiso   1.00
C530   C     0.54224   0.77780   0.01991   0.00000  Uiso   1.00
C531   C     0.50626   0.79921   0.04127   0.00000  Uiso   1.00
C532   C     0.57113   0.76760   0.03965   0.00000  Uiso   1.00
C533   C     0.56391   0.77936   0.08054   0.00000  Uiso   1.00
C534   C     0.50285   0.81377   0.08119   0.00000  Uiso   1.00
C535   C     0.66027   0.84289   0.23780   0.00000  Uiso   1.00
C536   C     0.34048   0.82371   0.26221   0.00000  Uiso   1.00
C537   C     0.42525   0.87085   0.42145   0.00000  Uiso   1.00
C538   C     0.51436   0.98883   0.23807   0.00000  Uiso   1.00
C539   C     0.48515   0.67869   0.26220   0.00000  Uiso   1.00
C540   C     0.48936   0.72269   0.25891   0.00000  Uiso   1.00
C541   C     0.51025   0.94434   0.24133   0.00000  Uiso   1.00
C542   C     0.52110   0.81228   0.14384   0.00000  Uiso   1.00
C543   C     0.47867   0.85403   0.35643   0.00000  Uiso   1.00
C544   C     0.46448   0.85618   0.40008   0.00000  Uiso   1.00
C545   C     0.53013   0.80249   0.10098   0.00000  Uiso   1.00
C546   C     0.40880   0.86584   0.46172   0.00000  Uiso   1.00
C547   C     0.64546   0.75125   0.03114   0.00000  Uiso   1.00
C548   C     0.48764   0.83795   0.41989   0.00000  Uiso   1.00
C549   C     0.40649   0.80085   0.07923   0.00000  Uiso   1.00
C550   C     0.40568   0.75351   0.07709   0.00000  Uiso   1.00
C551   C     0.49528   0.73380   0.41064   0.00000  Uiso   1.00
C552   C     0.46988   0.82920   0.45959   0.00000  Uiso   1.00
C553   C     0.43063   0.84489   0.48085   0.00000  Uiso   1.00
C554   C     0.49076   0.80671   0.47913   0.00000  Uiso   1.00
C555   C     0.47699   0.80855   0.02123   0.00000  Uiso   1.00
C556   C     0.43400   0.81817   0.04079   0.00000  Uiso   1.00
C557   C     0.41246   0.83781   0.02045   0.00000  Uiso   1.00
H558   H     0.38060   0.84684   0.03536   0.00000  Uiso   1.00
H559   H     0.40667   0.88501   0.40684   0.00000  Uiso   1.00
H560   H     0.51970   0.83097   0.40371   0.00000  Uiso   1.00
H561   H     0.59766   0.71454   0.00803   0.00000  Uiso   1.00
H562   H     0.33886   0.73906   0.00693   0.00000  Uiso   1.00
H563   H     0.64092   0.73416   0.05738   0.00000  Uiso   1.00
H564   H     0.65464   0.78507   0.03832   0.00000  Uiso   1.00
H565   H     0.39650   0.73805   0.05018   0.00000  Uiso   1.00
H566   H     0.43759   0.74496   0.07653   0.00000  Uiso   1.00
H567   H     0.38161   0.74169   0.10360   0.00000  Uiso   1.00
H568   H     0.41571   0.81625   0.10586   0.00000  Uiso   1.00
H569   H     0.34982   0.86059   0.21527   0.00000  Uiso   1.00
H570   H     0.37243   0.80699   0.08498   0.00000  Uiso   1.00
H571   H     0.55957   0.75707   0.40335   0.00000  Uiso   1.00
H572   H     0.50104   0.72504   0.37824   0.00000  Uiso   1.00
H573   H     0.46334   0.74578   0.42202   0.00000  Uiso   1.00
H574   H     0.49490   0.70554   0.42519   0.00000  Uiso   1.00
H575   H     0.65163   0.80581   0.28491   0.00000  Uiso   1.00
H576   H     0.54135   0.66949   0.21587   0.00000  Uiso   1.00
H577   H     0.45779   0.99879   0.28448   0.00000  Uiso   1.00
H578   H     0.48082   0.83594   0.09683   0.00000  Uiso   1.00
H579   H     0.58424   0.77042   0.09675   0.00000  Uiso   1.00
H580   H     0.57450   0.74875   0.46253   0.00000  Uiso   1.00
H581   H     0.37829   0.87724   0.47765   0.00000  Uiso   1.00
N582   N     0.60646   0.74491   0.01814   0.00000  Uiso   1.00
N583   N     0.52922   0.76538   0.41789   0.00000  Uiso   1.00
O584   O     0.50000   0.83333   0.25000   0.00000  Uiso   1.00
O585   O     0.49027   0.79060   0.16625   0.00000  Uiso   1.00
O586   O     0.46020   0.87313   0.33749   0.00000  Uiso   1.00
O587   O     0.54421   0.84159   0.15877   0.00000  Uiso   1.00
O588   O     0.50532   0.82802   0.33749   0.00000  Uiso   1.00
O589   O     0.51182   0.74768   0.27820   0.00000  Uiso   1.00
O590   O     0.47914   0.92803   0.26767   0.00000  Uiso   1.00
O591   O     0.40785   0.79917   0.23607   0.00000  Uiso   1.00
O592   O     0.60119   0.85845   0.21805   0.00000  Uiso   1.00
O593   O     0.40323   0.85627   0.27820   0.00000  Uiso   1.00
O594   O     0.58773   0.81944   0.26767   0.00000  Uiso   1.00
O595   O     0.47133   0.73570   0.23607   0.00000  Uiso   1.00
O596   O     0.53771   0.92193   0.21805   0.00000  Uiso   1.00
Zn597  Zn    0.52577   0.80756   0.28277   0.00000  Uiso   1.00
Zn598  Zn    0.46792   0.79044   0.22257   0.00000  Uiso   1.00
Zn599  Zn    0.54500   0.86331   0.21188   0.00000  Uiso   1.00
Zn600  Zn    0.46131   0.87202   0.28277   0.00000  Uiso   1.00
C601   C     0.71914   0.82638   0.25883   0.00000  Uiso   1.00
C602   C     0.85712   0.78116   0.45846   0.00000  Uiso   1.00
C603   C     0.88235   0.76736   0.47907   0.00000  Uiso   1.00
C604   C     0.94775   0.84019   0.24126   0.00000  Uiso   1.00
C605   C     0.87558   0.77780   0.01991   0.00000  Uiso   1.00
C606   C     0.83960   0.79921   0.04127   0.00000  Uiso   1.00
C607   C     0.90447   0.76760   0.03965   0.00000  Uiso   1.00
C608   C     0.89725   0.77936   0.08054   0.00000  Uiso   1.00
C609   C     0.83618   0.81377   0.08119   0.00000  Uiso   1.00
C610   C     0.99361   0.84289   0.23780   0.00000  Uiso   1.00
C611   C     0.67382   0.82371   0.26221   0.00000  Uiso   1.00
C612   C     0.75858   0.87085   0.42145   0.00000  Uiso   1.00
C613   C     0.84769   0.98883   0.23807   0.00000  Uiso   1.00
C614   C     0.81849   0.67869   0.26220   0.00000  Uiso   1.00
C615   C     0.82270   0.72269   0.25891   0.00000  Uiso   1.00
C616   C     0.84359   0.94434   0.24133   0.00000  Uiso   1.00
C617   C     0.85444   0.81228   0.14384   0.00000  Uiso   1.00
C618   C     0.81200   0.85403   0.35643   0.00000  Uiso   1.00
C619   C     0.79781   0.85618   0.40008   0.00000  Uiso   1.00
C620   C     0.86347   0.80249   0.10098   0.00000  Uiso   1.00
C621   C     0.74213   0.86584   0.46172   0.00000  Uiso   1.00
C622   C     0.97880   0.75125   0.03114   0.00000  Uiso   1.00
C623   C     0.82097   0.83795   0.41989   0.00000  Uiso   1.00
C624   C     0.73982   0.80085   0.07923   0.00000  Uiso   1.00
C625   C     0.73902   0.75351   0.07709   0.00000  Uiso   1.00
C626   C     0.82861   0.73380   0.41064   0.00000  Uiso   1.00
C627   C     0.80321   0.82920   0.45959   0.00000  Uiso   1.00
C628   C     0.76396   0.84489   0.48085   0.00000  Uiso   1.00
C629   C     0.82409   0.80671   0.47913   0.00000  Uiso   1.00
C630   C     0.81032   0.80855   0.02123   0.00000  Uiso   1.00
C631   C     0.76734   0.81817   0.04079   0.00000  Uiso   1.00
C632   C     0.74579   0.83781   0.02045   0.00000  Uiso   1.00
H633   H     0.71393   0.84684   0.03536   0.00000  Uiso   1.00
H634   H     0.74000   0.88501   0.40684   0.00000  Uiso   1.00
H635   H     0.85304   0.83097   0.40371   0.00000  Uiso   1.00
H636   H     0.93099   0.71454   0.00803   0.00000  Uiso   1.00
H637   H     0.67220   0.73906   0.00693   0.00000  Uiso   1.00
H638   H     0.97425   0.73416   0.05738   0.00000  Uiso   1.00
H639   H     0.98798   0.78507   0.03832   0.00000  Uiso   1.00
H640   H     0.72983   0.73805   0.05018   0.00000  Uiso   1.00
H641   H     0.77092   0.74496   0.07653   0.00000  Uiso   1.00
H642   H     0.71494   0.74169   0.10360   0.00000  Uiso   1.00
H643   H     0.74905   0.81625   0.10586   0.00000  Uiso   1.00
H644   H     0.68315   0.86059   0.21527   0.00000  Uiso   1.00
H645   H     0.70576   0.80699   0.08498   0.00000  Uiso   1.00
H646   H     0.89290   0.75707   0.40335   0.00000  Uiso   1.00
H647   H     0.83438   0.72504   0.37824   0.00000  Uiso   1.00
H648   H     0.79668   0.74578   0.42202   0.00000  Uiso   1.00
H649   H     0.82823   0.70554   0.42519   0.00000  Uiso   1.00
H650   H     0.98496   0.80581   0.28491   0.00000  Uiso   1.00
H651   H     0.87469   0.66949   0.21587   0.00000  Uiso   1.00
H652   H     0.79112   0.99879   0.28448   0.00000  Uiso   1.00
H653   H     0.81415   0.83594   0.09683   0.00000  Uiso   1.00
H654   H     0.91758   0.77042   0.09675   0.00000  Uiso   1.00
H655   H     0.90784   0.74875   0.46253   0.00000  Uiso   1.00
H656   H     0.71162   0.87724   0.47765   0.00000  Uiso   1.00
N657   N     0.93979   0.74491   0.01814   0.00000  Uiso   1.00
N658   N     0.86256   0.76538   0.41789   0.00000  Uiso   1.00
O659   O     0.83333   0.83333   0.25000   0.00000  Uiso   1.00
O660   O     0.82360   0.79060   0.16625   0.00000  Uiso   1.00
O661   O     0.79354   0.87313   0.33749   0.00000  Uiso   1.00
O662   O     0.87755   0.84159   0.15877   0.00000  Uiso   1.00
O663   O     0.83865   0.82802   0.33749   0.00000  Uiso   1.00
O664   O     0.84515   0.74768   0.27820   0.00000  Uiso   1.00
O665   O     0.81247   0.92803   0.26767   0.00000  Uiso   1.00
O666   O     0.74119   0.79917   0.23607   0.00000  Uiso   1.00
O667   O     0.93452   0.85845   0.21805   0.00000  Uiso   1.00
O668   O     0.73656   0.85627   0.27820   0.00000  Uiso   1.00
O669   O     0.92106   0.81944   0.26767   0.00000  Uiso   1.00
O670   O     0.80467   0.73570   0.23607   0.00000  Uiso   1.00
O671   O     0.87104   0.92193   0.21805   0.00000  Uiso   1.00
Zn672  Zn    0.85910   0.80756   0.28277   0.00000  Uiso   1.00
Zn673  Zn    0.80125   0.79044   0.22257   0.00000  Uiso   1.00
Zn674  Zn    0.87833   0.86331   0.21188   0.00000  Uiso   1.00
Zn675  Zn    0.79465   0.87202   0.28277   0.00000  Uiso   1.00
C676   C     0.05248   0.15972   0.75883   0.00000  Uiso   1.00
C677   C     0.19045   0.11449   0.95846   0.00000  Uiso   1.00
C678   C     0.21568   0.10070   0.97907   0.00000  Uiso   1.00
C679   C     0.28108   0.17352   0.74126   0.00000  Uiso   1.00
C680   C     0.20891   0.11113   0.51991   0.00000  Uiso   1.00
C681   C     0.17293   0.13254   0.54127   0.00000  Uiso   1.00
C682   C     0.23780   0.10093   0.53965   0.00000  Uiso   1.00
C683   C     0.23058   0.11270   0.58054   0.00000  Uiso   1.00
C684   C     0.16952   0.14711   0.58119   0.00000  Uiso   1.00
C685   C     0.32694   0.17622   0.73780   0.00000  Uiso   1.00
C686   C     0.00715   0.15705   0.76221   0.00000  Uiso   1.00
C687   C     0.09192   0.20418   0.92145   0.00000  Uiso   1.00
C688   C     0.18103   0.32217   0.73807   0.00000  Uiso   1.00
C689   C     0.15182   0.01202   0.76220   0.00000  Uiso   1.00
C690   C     0.15603   0.05602   0.75891   0.00000  Uiso   1.00
C691   C     0.17692   0.27767   0.74133   0.00000  Uiso   1.00
C692   C     0.18777   0.14561   0.64384   0.00000  Uiso   1.00
C693   C     0.14533   0.18736   0.85643   0.00000  Uiso   1.00
C694   C     0.13114   0.18952   0.90008   0.00000  Uiso   1.00
C695   C     0.19680   0.13583   0.60098   0.00000  Uiso   1.00
C696   C     0.07547   0.19918   0.96172   0.00000  Uiso   1.00
C697   C     0.31213   0.08458   0.53114   0.00000  Uiso   1.00
C698   C     0.15431   0.17128   0.91989   0.00000  Uiso   1.00
C699   C     0.07315   0.13419   0.57923   0.00000  Uiso   1.00
C700   C     0.07235   0.08684   0.57709   0.00000  Uiso   1.00
C701   C     0.16195   0.06714   0.91064   0.00000  Uiso   1.00
C702   C     0.13654   0.16253   0.95959   0.00000  Uiso   1.00
C703   C     0.09730   0.17822   0.98085   0.00000  Uiso   1.00
C704   C     0.15743   0.14004   0.97913   0.00000  Uiso   1.00
C705   C     0.14365   0.14188   0.52123   0.00000  Uiso   1.00
C706   C     0.10067   0.15150   0.54079   0.00000  Uiso   1.00
C707   C     0.07912   0.17115   0.52045   0.00000  Uiso   1.00
H708   H     0.04726   0.18018   0.53536   0.00000  Uiso   1.00
H709   H     0.07334   0.21835   0.90684   0.00000  Uiso   1.00
H710   H     0.18637   0.16430   0.90371   0.00000  Uiso   1.00
H711   H     0.26433   0.04787   0.50803   0.00000  Uiso   1.00
H712   H     0.00553   0.07239   0.50693   0.00000  Uiso   1.00
H713   H     0.30758   0.06749   0.55738   0.00000  Uiso   1.00
H714   H     0.32131   0.11840   0.53832   0.00000  Uiso   1.00
H715   H     0.06316   0.07138   0.55018   0.00000  Uiso   1.00
H716   H     0.10426   0.07830   0.57653   0.00000  Uiso   1.00
H717   H     0.04827   0.07502   0.60360   0.00000  Uiso   1.00
H718   H     0.08238   0.14958   0.60586   0.00000  Uiso   1.00
H719   H     0.01649   0.19392   0.71527   0.00000  Uiso   1.00
H720   H     0.03910   0.14033   0.58498   0.00000  Uiso   1.00
H721   H     0.22624   0.09041   0.90335   0.00000  Uiso   1.00
H722   H     0.16771   0.05837   0.87824   0.00000  Uiso   1.00
H723   H     0.13001   0.07912   0.92202   0.00000  Uiso   1.00
H724   H     0.16157   0.03887   0.92519   0.00000  Uiso   1.00
H725   H     0.31829   0.13915   0.78491   0.00000  Uiso   1.00
H726   H     0.20802   0.00282   0.71587   0.00000  Uiso   1.00
H727   H     0.12446   0.33212   0.78448   0.00000  Uiso   1.00
H728   H     0.14748   0.16927   0.59683   0.00000  Uiso   1.00
H729   H     0.25091   0.10376   0.59675   0.00000  Uiso   1.00
H730   H     0.24117   0.08208   0.96253   0.00000  Uiso   1.00
H731   H     0.04495   0.21058   0.97765   0.00000  Uiso   1.00
N732   N     0.27313   0.07824   0.51814   0.00000  Uiso   1.00
N733   N     0.19589   0.09871   0.91789   0.00000  Uiso   1.00
O734   O     0.16667   0.16667   0.75000   0.00000  Uiso   1.00
O735   O     0.15693   0.12393   0.66625   0.00000  Uiso   1.00
O736   O     0.12687   0.20646   0.83749   0.00000  Uiso   1.00
O737   O     0.21088   0.17493   0.65877   0.00000  Uiso   1.00
O738   O     0.17198   0.16135   0.83749   0.00000  Uiso   1.00
O739   O     0.17849   0.08101   0.77820   0.00000  Uiso   1.00
O740   O     0.14581   0.26136   0.76767   0.00000  Uiso   1.00
O741   O     0.07452   0.13251   0.73607   0.00000  Uiso   1.00
O742   O     0.26785   0.19179   0.71805   0.00000  Uiso   1.00
O743   O     0.06990   0.18960   0.77820   0.00000  Uiso   1.00
O744   O     0.25440   0.15277   0.76767   0.00000  Uiso   1.00
O745   O     0.13800   0.06903   0.73607   0.00000  Uiso   1.00
O746   O     0.20437   0.25527   0.71805   0.00000  Uiso   1.00
Zn747  Zn    0.19244   0.14090   0.78277   0.00000  Uiso   1.00
Zn748  Zn    0.13459   0.12378   0.72257   0.00000  Uiso   1.00
Zn749  Zn    0.21166   0.19664   0.71188   0.00000  Uiso   1.00
Zn750  Zn    0.12798   0.20535   0.78277   0.00000  Uiso   1.00
C751   C     0.38581   0.15972   0.75883   0.00000  Uiso   1.00
C752   C     0.52379   0.11449   0.95846   0.00000  Uiso   1.00
C753   C     0.54901   0.10070   0.97907   0.00000  Uiso   1.00
C754   C     0.61441   0.17352   0.74126   0.00000  Uiso   1.00
C755   C     0.54224   0.11113   0.51991   0.00000  Uiso   1.00
C756   C     0.50626   0.13254   0.54127   0.00000  Uiso   1.00
C757   C     0.57113   0.10093   0.53965   0.00000  Uiso   1.00
C758   C     0.56391   0.11270   0.58054   0.00000  Uiso   1.00
C759   C     0.50285   0.14711   0.58119   0.00000  Uiso   1.00
C760   C     0.66027   0.17622   0.73780   0.00000  Uiso   1.00
C761   C     0.34048   0.15705   0.76221   0.00000  Uiso   1.00
C762   C     0.42525   0.20418   0.92145   0.00000  Uiso   1.00
C763   C     0.51436   0.32217   0.73807   0.00000  Uiso   1.00
C764   C     0.48515   0.01202   0.76220   0.00000  Uiso   1.00
C765   C     0.48936   0.05602   0.75891   0.00000  Uiso   1.00
C766   C     0.51025   0.27767   0.74133   0.00000  Uiso   1.00
C767   C     0.52110   0.14561   0.64384   0.00000  Uiso   1.00
C768   C     0.47867   0.18736   0.85643   0.00000  Uiso   1.00
C769   C     0.46448   0.18952   0.90008   0.00000  Uiso   1.00
C770   C     0.53013   0.13583   0.60098   0.00000  Uiso   1.00
C771   C     0.40880   0.19918   0.96172   0.00000  Uiso   1.00
C772   C     0.64546   0.08458   0.53114   0.00000  Uiso   1.00
C773   C     0.48764   0.17128   0.91989   0.00000  Uiso   1.00
C774   C     0.40649   0.13419   0.57923   0.00000  Uiso   1.00
C775   C     0.40568   0.08684   0.57709   0.00000  Uiso   1.00
C776   C     0.49528   0.06714   0.91064   0.00000  Uiso   1.00
C777   C     0.46988   0.16253   0.95959   0.00000  Uiso   1.00
C778   C     0.43063   0.17822   0.98085   0.00000  Uiso   1.00
C779   C     0.49076   0.14004   0.97913   0.00000  Uiso   1.00
C780   C     0.47699   0.14188   0.52123   0.00000  Uiso   1.00
C781   C     0.43400   0.15150   0.54079   0.00000  Uiso   1.00
C782   C     0.41246   0.17115   0.52045   0.00000  Uiso   1.00
H783   H     0.38060   0.18018   0.53536   0.00000  Uiso   1.00
H784   H     0.40667   0.21835   0.90684   0.00000  Uiso   1.00
H785   H     0.51970   0.16430   0.90371   0.00000  Uiso   1.00
H786   H     0.59766   0.04787   0.50803   0.00000  Uiso   1.00
H787   H     0.33886   0.07239   0.50693   0.00000  Uiso   1.00
H788   H     0.64092   0.06749   0.55738   0.00000  Uiso   1.00
H789   H     0.65464   0.11840   0.53832   0.00000  Uiso   1.00
H790   H     0.39650   0.07138   0.55018   0.00000  Uiso   1.00
H791   H     0.43759   0.07830   0.57653   0.00000  Uiso   1.00
H792   H     0.38161   0.07502   0.60360   0.00000  Uiso   1.00
H793   H     0.41571   0.14958   0.60586   0.00000  Uiso   1.00
H794   H     0.34982   0.19392   0.71527   0.00000  Uiso   1.00
H795   H     0.37243   0.14033   0.58498   0.00000  Uiso   1.00
H796   H     0.55957   0.09041   0.90335   0.00000  Uiso   1.00
H797   H     0.50104   0.05837   0.87824   0.00000  Uiso   1.00
H798   H     0.46334   0.07912   0.92202   0.00000  Uiso   1.00
H799   H     0.49490   0.03887   0.92519   0.00000  Uiso   1.00
H800   H     0.65163   0.13915   0.78491   0.00000  Uiso   1.00
H801   H     0.54135   0.00282   0.71587   0.00000  Uiso   1.00
H802   H     0.45779   0.33212   0.78448   0.00000  Uiso   1.00
H803   H     0.48082   0.16927   0.59683   0.00000  Uiso   1.00
H804   H     0.58424   0.10376   0.59675   0.00000  Uiso   1.00
H805   H     0.57450   0.08208   0.96253   0.00000  Uiso   1.00
H806   H     0.37829   0.21058   0.97765   0.00000  Uiso   1.00
N807   N     0.60646   0.07824   0.51814   0.00000  Uiso   1.00
N808   N     0.52922   0.09871   0.91789   0.00000  Uiso   1.00
O809   O     0.50000   0.16667   0.75000   0.00000  Uiso   1.00
O810   O     0.49027   0.12393   0.66625   0.00000  Uiso   1.00
O811   O     0.46020   0.20646   0.83749   0.00000  Uiso   1.00
O812   O     0.54421   0.17493   0.65877   0.00000  Uiso   1.00
O813   O     0.50532   0.16135   0.83749   0.00000  Uiso   1.00
O814   O     0.51182   0.08101   0.77820   0.00000  Uiso   1.00
O815   O     0.47914   0.26136   0.76767   0.00000  Uiso   1.00
O816   O     0.40785   0.13251   0.73607   0.00000  Uiso   1.00
O817   O     0.60119   0.19179   0.71805   0.00000  Uiso   1.00
O818   O     0.40323   0.18960   0.77820   0.00000  Uiso   1.00
O819   O     0.58773   0.15277   0.76767   0.00000  Uiso   1.00
O820   O     0.47133   0.06903   0.73607   0.00000  Uiso   1.00
O821   O     0.53771   0.25527   0.71805   0.00000  Uiso   1.00
Zn822  Zn    0.52577   0.14090   0.78277   0.00000  Uiso   1.00
Zn823  Zn    0.46792   0.12378   0.72257   0.00000  Uiso   1.00
Zn824  Zn    0.54500   0.19664   0.71188   0.00000  Uiso   1.00
Zn825  Zn    0.46131   0.20535   0.78277   0.00000  Uiso   1.00
C826   C     0.71914   0.15972   0.75883   0.00000  Uiso   1.00
C827   C     0.85712   0.11449   0.95846   0.00000  Uiso   1.00
C828   C     0.88235   0.10070   0.97907   0.00000  Uiso   1.00
C829   C     0.94775   0.17352   0.74126   0.00000  Uiso   1.00
C830   C     0.87558   0.11113   0.51991   0.00000  Uiso   1.00
C831   C     0.83960   0.13254   0.54127   0.00000  Uiso   1.00
C832   C     0.90447   0.10093   0.53965   0.00000  Uiso   1.00
C833   C     0.89725   0.11270   0.58054   0.00000  Uiso   1.00
C834   C     0.83618   0.14711   0.58119   0.00000  Uiso   1.00
C835   C     0.99361   0.17622   0.73780   0.00000  Uiso   1.00
C836   C     0.67382   0.15705   0.76221   0.00000  Uiso   1.00
C837   C     0.75858   0.20418   0.92145   0.00000  Uiso   1.00
C838   C     0.84769   0.32217   0.73807   0.00000  Uiso   1.00
C839   C     0.81849   0.01202   0.76220   0.00000  Uiso   1.00
C840   C     0.82270   0.05602   0.75891   0.00000  Uiso   1.00
C841   C     0.84359   0.27767   0.74133   0.00000  Uiso   1.00
C842   C     0.85444   0.14561   0.64384   0.00000  Uiso   1.00
C843   C     0.81200   0.18736   0.85643   0.00000  Uiso   1.00
C844   C     0.79781   0.18952   0.90008   0.00000  Uiso   1.00
C845   C     0.86347   0.13583   0.60098   0.00000  Uiso   1.00
C846   C     0.74213   0.19918   0.96172   0.00000  Uiso   1.00
C847   C     0.97880   0.08458   0.53114   0.00000  Uiso   1.00
C848   C     0.82097   0.17128   0.91989   0.00000  Uiso   1.00
C849   C     0.73982   0.13419   0.57923   0.00000  Uiso   1.00
C850   C     0.73902   0.08684   0.57709   0.00000  Uiso   1.00
C851   C     0.82861   0.06714   0.91064   0.00000  Uiso   1.00
C852   C     0.80321   0.16253   0.95959   0.00000  Uiso   1.00
C853   C     0.76396   0.17822   0.98085   0.00000  Uiso   1.00
C854   C     0.82409   0.14004   0.97913   0.00000  Uiso   1.00
C855   C     0.81032   0.14188   0.52123   0.00000  Uiso   1.00
C856   C     0.76734   0.15150   0.54079   0.00000  Uiso   1.00
C857   C     0.74579   0.17115   0.52045   0.00000  Uiso   1.00
H858   H     0.71393   0.18018   0.53536   0.00000  Uiso   1.00
H859   H     0.74000   0.21835   0.90684   0.00000  Uiso   1.00
H860   H     0.85304   0.16430   0.90371   0.00000  Uiso   1.00
H861   H     0.93099   0.04787   0.50803   0.00000  Uiso   1.00
H862   H     0.67220   0.07239   0.50693   0.00000  Uiso   1.00
H863   H     0.97425   0.06749   0.55738   0.00000  Uiso   1.00
H864   H     0.98798   0.11840   0.53832   0.00000  Uiso   1.00
H865   H     0.72983   0.07138   0.55018   0.00000  Uiso   1.00
H866   H     0.77092   0.07830   0.57653   0.00000  Uiso   1.00
H867   H     0.71494   0.07502   0.60360   0.00000  Uiso   1.00
H868   H     0.74905   0.14958   0.60586   0.00000  Uiso   1.00
H869   H     0.68315   0.19392   0.71527   0.00000  Uiso   1.00
H870   H     0.70576   0.14033   0.58498   0.00000  Uiso   1.00
H871   H     0.89290   0.09041   0.90335   0.00000  Uiso   1.00
H872   H     0.83438   0.05837   0.87824   0.00000  Uiso   1.00
H873   H     0.79668   0.07912   0.92202   0.00000  Uiso   1.00
H874   H     0.82823   0.03887   0.92519   0.00000  Uiso   1.00
H875   H     0.98496   0.13915   0.78491   0.00000  Uiso   1.00
H876   H     0.87469   0.00282   0.71587   0.00000  Uiso   1.00
H877   H     0.79112   0.33212   0.78448   0.00000  Uiso   1.00
H878   H     0.81415   0.16927   0.59683   0.00000  Uiso   1.00
H879   H     0.91758   0.10376   0.59675   0.00000  Uiso   1.00
H880   H     0.90784   0.08208   0.96253   0.00000  Uiso   1.00
H881   H     0.71162   0.21058   0.97765   0.00000  Uiso   1.00
N882   N     0.93979   0.07824   0.51814   0.00000  Uiso   1.00
N883   N     0.86256   0.09871   0.91789   0.00000  Uiso   1.00
O884   O     0.83333   0.16667   0.75000   0.00000  Uiso   1.00
O885   O     0.82360   0.12393   0.66625   0.00000  Uiso   1.00
O886   O     0.79354   0.20646   0.83749   0.00000  Uiso   1.00
O887   O     0.87755   0.17493   0.65877   0.00000  Uiso   1.00
O888   O     0.83865   0.16135   0.83749   0.00000  Uiso   1.00
O889   O     0.84515   0.08101   0.77820   0.00000  Uiso   1.00
O890   O     0.81247   0.26136   0.76767   0.00000  Uiso   1.00
O891   O     0.74119   0.13251   0.73607   0.00000  Uiso   1.00
O892   O     0.93452   0.19179   0.71805   0.00000  Uiso   1.00
O893   O     0.73656   0.18960   0.77820   0.00000  Uiso   1.00
O894   O     0.92106   0.15277   0.76767   0.00000  Uiso   1.00
O895   O     0.80467   0.06903   0.73607   0.00000  Uiso   1.00
O896   O     0.87104   0.25527   0.71805   0.00000  Uiso   1.00
Zn897  Zn    0.85910   0.14090   0.78277   0.00000  Uiso   1.00
Zn898  Zn    0.80125   0.12378   0.72257   0.00000  Uiso   1.00
Zn899  Zn    0.87833   0.19664   0.71188   0.00000  Uiso   1.00
Zn900  Zn    0.79465   0.20535   0.78277   0.00000  Uiso   1.00
C901   C     0.05248   0.49305   0.75883   0.00000  Uiso   1.00
C902   C     0.19045   0.44782   0.95846   0.00000  Uiso   1.00
C903   C     0.21568   0.43403   0.97907   0.00000  Uiso   1.00
C904   C     0.28108   0.50685   0.74126   0.00000  Uiso   1.00
C905   C     0.20891   0.44446   0.51991   0.00000  Uiso   1.00
C906   C     0.17293   0.46587   0.54127   0.00000  Uiso   1.00
C907   C     0.23780   0.43426   0.53965   0.00000  Uiso   1.00
C908   C     0.23058   0.44603   0.58054   0.00000  Uiso   1.00
C909   C     0.16952   0.48044   0.58119   0.00000  Uiso   1.00
C910   C     0.32694   0.50956   0.73780   0.00000  Uiso   1.00
C911   C     0.00715   0.49038   0.76221   0.00000  Uiso   1.00
C912   C     0.09192   0.53752   0.92145   0.00000  Uiso   1.00
C913   C     0.18103   0.65550   0.73807   0.00000  Uiso   1.00
C914   C     0.15182   0.34536   0.76220   0.00000  Uiso   1.00
C915   C     0.15603   0.38936   0.75891   0.00000  Uiso   1.00
C916   C     0.17692   0.61101   0.74133   0.00000  Uiso   1.00
C917   C     0.18777   0.47894   0.64384   0.00000  Uiso   1.00
C918   C     0.14533   0.52069   0.85643   0.00000  Uiso   1.00
C919   C     0.13114   0.52285   0.90008   0.00000  Uiso   1.00
C920   C     0.19680   0.46916   0.60098   0.00000  Uiso   1.00
C921   C     0.07547   0.53251   0.96172   0.00000  Uiso   1.00
C922   C     0.31213   0.41792   0.53114   0.00000  Uiso   1.00
C923   C     0.15431   0.50461   0.91989   0.00000  Uiso   1.00
C924   C     0.07315   0.46752   0.57923   0.00000  Uiso   1.00
C925   C     0.07235   0.42017   0.57709   0.00000  Uiso   1.00
C926   C     0.16195   0.40047   0.91064   0.00000  Uiso   1.00
C927   C     0.13654   0.49587   0.95959   0.00000  Uiso   1.00
C928   C     0.09730   0.51155   0.98085   0.00000  Uiso   1.00
C929   C     0.15743   0.47337   0.97913   0.00000  Uiso   1.00
C930   C     0.14365   0.47521   0.52123   0.00000  Uiso   1.00
C931   C     0.10067   0.48484   0.54079   0.00000  Uiso   1.00
C932   C     0.07912   0.50448   0.52045   0.00000  Uiso   1.00
H933   H     0.04726   0.51351   0.53536   0.00000  Uiso   1.00
H934   H     0.07334   0.55168   0.90684   0.00000  Uiso   1.00
H935   H     0.18637   0.49763   0.90371   0.00000  Uiso   1.00
H936   H     0.26433   0.38121   0.50803   0.00000  Uiso   1.00
H937   H     0.00553   0.40572   0.50693   0.00000  Uiso   1.00
H938   H     0.30758   0.40083   0.55738   0.00000  Uiso   1.00
H939   H     0.32131   0.45174   0.53832   0.00000  Uiso   1.00
H940   H     0.06316   0.40471   0.55018   0.00000  Uiso   1.00
H941   H     0.10426   0.41163   0.57653   0.00000  Uiso   1.00
H942   H     0.04827   0.40836   0.60360   0.00000  Uiso   1.00
H943   H     0.08238   0.48292   0.60586   0.00000  Uiso   1.00
H944   H     0.01649   0.52725   0.71527   0.00000  Uiso   1.00
H945   H     0.03910   0.47366   0.58498   0.00000  Uiso   1.00
H946   H     0.22624   0.42374   0.90335   0.00000  Uiso   1.00
H947   H     0.16771   0.39170   0.87824   0.00000  Uiso   1.00
H948   H     0.13001   0.41245   0.92202   0.00000  Uiso   1.00
H949   H     0.16157   0.37221   0.92519   0.00000  Uiso   1.00
H950   H     0.31829   0.47248   0.78491   0.00000  Uiso   1.00
H951   H     0.20802   0.33616   0.71587   0.00000  Uiso   1.00
H952   H     0.12446   0.66545   0.78448   0.00000  Uiso   1.00
H953   H     0.14748   0.50260   0.59683   0.00000  Uiso   1.00
H954   H     0.25091   0.43709   0.59675   0.00000  Uiso   1.00
H955   H     0.24117   0.41542   0.96253   0.00000  Uiso   1.00
H956   H     0.04495   0.54391   0.97765   0.00000  Uiso   1.00
N957   N     0.27313   0.41158   0.51814   0.00000  Uiso   1.00
N958   N     0.19589   0.43205   0.91789   0.00000  Uiso   1.00
O959   O     0.16667   0.50000   0.75000   0.00000  Uiso   1.00
O960   O     0.15693   0.45726   0.66625   0.00000  Uiso   1.00
O961   O     0.12687   0.53979   0.83749   0.00000  Uiso   1.00
O962   O     0.21088   0.50826   0.65877   0.00000  Uiso   1.00
O963   O     0.17198   0.49468   0.83749   0.00000  Uiso   1.00
O964   O     0.17849   0.41434   0.77820   0.00000  Uiso   1.00
O965   O     0.14581   0.59469   0.76767   0.00000  Uiso   1.00
O966   O     0.07452   0.46584   0.73607   0.00000  Uiso   1.00
O967   O     0.26785   0.52512   0.71805   0.00000  Uiso   1.00
O968   O     0.06990   0.52293   0.77820   0.00000  Uiso   1.00
O969   O     0.25440   0.48610   0.76767   0.00000  Uiso   1.00
O970   O     0.13800   0.40236   0.73607   0.00000  Uiso   1.00
O971   O     0.20437   0.58860   0.71805   0.00000  Uiso   1.00
Zn972  Zn    0.19244   0.47423   0.78277   0.00000  Uiso   1.00
Zn973  Zn    0.13459   0.45711   0.72257   0.00000  Uiso   1.00
Zn974  Zn    0.21166   0.52997   0.71188   0.00000  Uiso   1.00
Zn975  Zn    0.12798   0.53868   0.78277   0.00000  Uiso   1.00
C976   C     0.38581   0.49305   0.75883   0.00000  Uiso   1.00
C977   C     0.52379   0.44782   0.95846   0.00000  Uiso   1.00
C978   C     0.54901   0.43403   0.97907   0.00000  Uiso   1.00
C979   C     0.61441   0.50685   0.74126   0.00000  Uiso   1.00
C980   C     0.54224   0.44446   0.51991   0.00000  Uiso   1.00
C981   C     0.50626   0.46587   0.54127   0.00000  Uiso   1.00
C982   C     0.57113   0.43426   0.53965   0.00000  Uiso   1.00
C983   C     0.56391   0.44603   0.58054   0.00000  Uiso   1.00
C984   C     0.50285   0.48044   0.58119   0.00000  Uiso   1.00
C985   C     0.66027   0.50956   0.73780   0.00000  Uiso   1.00
C986   C     0.34048   0.49038   0.76221   0.00000  Uiso   1.00
C987   C     0.42525   0.53752   0.92145   0.00000  Uiso   1.00
C988   C     0.51436   0.65550   0.73807   0.00000  Uiso   1.00
C989   C     0.48515   0.34536   0.76220   0.00000  Uiso   1.00
C990   C     0.48936   0.38936   0.75891   0.00000  Uiso   1.00
C991   C     0.51025   0.61101   0.74133   0.00000  Uiso   1.00
C992   C     0.52110   0.47894   0.64384   0.00000  Uiso   1.00
C993   C     0.47867   0.52069   0.85643   0.00000  Uiso   1.00
C994   C     0.46448   0.52285   0.90008   0.00000  Uiso   1.00
C995   C     0.53013   0.46916   0.60098   0.00000  Uiso   1.00
C996   C     0.40880   0.53251   0.96172   0.00000  Uiso   1.00
C997   C     0.64546   0.41792   0.53114   0.00000  Uiso   1.00
C998   C     0.48764   0.50461   0.91989   0.00000  Uiso   1.00
C999   C     0.40649   0.46752   0.57923   0.00000  Uiso   1.00
C1000  C     0.40568   0.42017   0.57709   0.00000  Uiso   1.00
C1001  C     0.49528   0.40047   0.91064   0.00000  Uiso   1.00
C1002  C     0.46988   0.49587   0.95959   0.00000  Uiso   1.00
C1003  C     0.43063   0.51155   0.98085   0.00000  Uiso   1.00
C1004  C     0.49076   0.47337   0.97913   0.00000  Uiso   1.00
C1005  C     0.47699   0.47521   0.52123   0.00000  Uiso   1.00
C1006  C     0.43400   0.48484   0.54079   0.00000  Uiso   1.00
C1007  C     0.41246   0.50448   0.52045   0.00000  Uiso   1.00
H1008  H     0.38060   0.51351   0.53536   0.00000  Uiso   1.00
H1009  H     0.40667   0.55168   0.90684   0.00000  Uiso   1.00
H1010  H     0.51970   0.49763   0.90371   0.00000  Uiso   1.00
H1011  H     0.59766   0.38121   0.50803   0.00000  Uiso   1.00
H1012  H     0.33886   0.40572   0.50693   0.00000  Uiso   1.00
H1013  H     0.64092   0.40083   0.55738   0.00000  Uiso   1.00
H1014  H     0.65464   0.45174   0.53832   0.00000  Uiso   1.00
H1015  H     0.39650   0.40471   0.55018   0.00000  Uiso   1.00
H1016  H     0.43759   0.41163   0.57653   0.00000  Uiso   1.00
H1017  H     0.38161   0.40836   0.60360   0.00000  Uiso   1.00
H1018  H     0.41571   0.48292   0.60586   0.00000  Uiso   1.00
H1019  H     0.34982   0.52725   0.71527   0.00000  Uiso   1.00
H1020  H     0.37243   0.47366   0.58498   0.00000  Uiso   1.00
H1021  H     0.55957   0.42374   0.90335   0.00000  Uiso   1.00
H1022  H     0.50104   0.39170   0.87824   0.00000  Uiso   1.00
H1023  H     0.46334   0.41245   0.92202   0.00000  Uiso   1.00
H1024  H     0.49490   0.37221   0.92519   0.00000  Uiso   1.00
H1025  H     0.65163   0.47248   0.78491   0.00000  Uiso   1.00
H1026  H     0.54135   0.33616   0.71587   0.00000  Uiso   1.00
H1027  H     0.45779   0.66545   0.78448   0.00000  Uiso   1.00
H1028  H     0.48082   0.50260   0.59683   0.00000  Uiso   1.00
H1029  H     0.58424   0.43709   0.59675   0.00000  Uiso   1.00
H1030  H     0.57450   0.41542   0.96253   0.00000  Uiso   1.00
H1031  H     0.37829   0.54391   0.97765   0.00000  Uiso   1.00
N1032  N     0.60646   0.41158   0.51814   0.00000  Uiso   1.00
N1033  N     0.52922   0.43205   0.91789   0.00000  Uiso   1.00
O1034  O     0.50000   0.50000   0.75000   0.00000  Uiso   1.00
O1035  O     0.49027   0.45726   0.66625   0.00000  Uiso   1.00
O1036  O     0.46020   0.53979   0.83749   0.00000  Uiso   1.00
O1037  O     0.54421   0.50826   0.65877   0.00000  Uiso   1.00
O1038  O     0.50532   0.49468   0.83749   0.00000  Uiso   1.00
O1039  O     0.51182   0.41434   0.77820   0.00000  Uiso   1.00
O1040  O     0.47914   0.59469   0.76767   0.00000  Uiso   1.00
O1041  O     0.40785   0.46584   0.73607   0.00000  Uiso   1.00
O1042  O     0.60119   0.52512   0.71805   0.00000  Uiso   1.00
O1043  O     0.40323   0.52293   0.77820   0.00000  Uiso   1.00
O1044  O     0.58773   0.48610   0.76767   0.00000  Uiso   1.00
O1045  O     0.47133   0.40236   0.73607   0.00000  Uiso   1.00
O1046  O     0.53771   0.58860   0.71805   0.00000  Uiso   1.00
Zn1047 Zn    0.52577   0.47423   0.78277   0.00000  Uiso   1.00
Zn1048 Zn    0.46792   0.45711   0.72257   0.00000  Uiso   1.00
Zn1049 Zn    0.54500   0.52997   0.71188   0.00000  Uiso   1.00
Zn1050 Zn    0.46131   0.53868   0.78277   0.00000  Uiso   1.00
C1051  C     0.71914   0.49305   0.75883   0.00000  Uiso   1.00
C1052  C     0.85712   0.44782   0.95846   0.00000  Uiso   1.00
C1053  C     0.88235   0.43403   0.97907   0.00000  Uiso   1.00
C1054  C     0.94775   0.50685   0.74126   0.00000  Uiso   1.00
C1055  C     0.87558   0.44446   0.51991   0.00000  Uiso   1.00
C1056  C     0.83960   0.46587   0.54127   0.00000  Uiso   1.00
C1057  C     0.90447   0.43426   0.53965   0.00000  Uiso   1.00
C1058  C     0.89725   0.44603   0.58054   0.00000  Uiso   1.00
C1059  C     0.83618   0.48044   0.58119   0.00000  Uiso   1.00
C1060  C     0.99361   0.50956   0.73780   0.00000  Uiso   1.00
C1061  C     0.67382   0.49038   0.76221   0.00000  Uiso   1.00
C1062  C     0.75858   0.53752   0.92145   0.00000  Uiso   1.00
C1063  C     0.84769   0.65550   0.73807   0.00000  Uiso   1.00
C1064  C     0.81849   0.34536   0.76220   0.00000  Uiso   1.00
C1065  C     0.82270   0.38936   0.75891   0.00000  Uiso   1.00
C1066  C     0.84359   0.61101   0.74133   0.00000  Uiso   1.00
C1067  C     0.85444   0.47894   0.64384   0.00000  Uiso   1.00
C1068  C     0.81200   0.52069   0.85643   0.00000  Uiso   1.00
C1069  C     0.79781   0.52285   0.90008   0.00000  Uiso   1.00
C1070  C     0.86347   0.46916   0.60098   0.00000  Uiso   1.00
C1071  C     0.74213   0.53251   0.96172   0.00000  Uiso   1.00
C1072  C     0.97880   0.41792   0.53114   0.00000  Uiso   1.00
C1073  C     0.82097   0.50461   0.91989   0.00000  Uiso   1.00
C1074  C     0.73982   0.46752   0.57923   0.00000  Uiso   1.00
C1075  C     0.73902   0.42017   0.57709   0.00000  Uiso   1.00
C1076  C     0.82861   0.40047   0.91064   0.00000  Uiso   1.00
C1077  C     0.80321   0.49587   0.95959   0.00000  Uiso   1.00
C1078  C     0.76396   0.51155   0.98085   0.00000  Uiso   1.00
C1079  C     0.82409   0.47337   0.97913   0.00000  Uiso   1.00
C1080  C     0.81032   0.47521   0.52123   0.00000  Uiso   1.00
C1081  C     0.76734   0.48484   0.54079   0.00000  Uiso   1.00
C1082  C     0.74579   0.50448   0.52045   0.00000  Uiso   1.00
H1083  H     0.71393   0.51351   0.53536   0.00000  Uiso   1.00
H1084  H     0.74000   0.55168   0.90684   0.00000  Uiso   1.00
H1085  H     0.85304   0.49763   0.90371   0.00000  Uiso   1.00
H1086  H     0.93099   0.38121   0.50803   0.00000  Uiso   1.00
H1087  H     0.67220   0.40572   0.50693   0.00000  Uiso   1.00
H1088  H     0.97425   0.40083   0.55738   0.00000  Uiso   1.00
H1089  H     0.98798   0.45174   0.53832   0.00000  Uiso   1.00
H1090  H     0.72983   0.40471   0.55018   0.00000  Uiso   1.00
H1091  H     0.77092   0.41163   0.57653   0.00000  Uiso   1.00
H1092  H     0.71494   0.40836   0.60360   0.00000  Uiso   1.00
H1093  H     0.74905   0.48292   0.60586   0.00000  Uiso   1.00
H1094  H     0.68315   0.52725   0.71527   0.00000  Uiso   1.00
H1095  H     0.70576   0.47366   0.58498   0.00000  Uiso   1.00
H1096  H     0.89290   0.42374   0.90335   0.00000  Uiso   1.00
H1097  H     0.83438   0.39170   0.87824   0.00000  Uiso   1.00
H1098  H     0.79668   0.41245   0.92202   0.00000  Uiso   1.00
H1099  H     0.82823   0.37221   0.92519   0.00000  Uiso   1.00
H1100  H     0.98496   0.47248   0.78491   0.00000  Uiso   1.00
H1101  H     0.87469   0.33616   0.71587   0.00000  Uiso   1.00
H1102  H     0.79112   0.66545   0.78448   0.00000  Uiso   1.00
H1103  H     0.81415   0.50260   0.59683   0.00000  Uiso   1.00
H1104  H     0.91758   0.43709   0.59675   0.00000  Uiso   1.00
H1105  H     0.90784   0.41542   0.96253   0.00000  Uiso   1.00
H1106  H     0.71162   0.54391   0.97765   0.00000  Uiso   1.00
N1107  N     0.93979   0.41158   0.51814   0.00000  Uiso   1.00
N1108  N     0.86256   0.43205   0.91789   0.00000  Uiso   1.00
O1109  O     0.83333   0.50000   0.75000   0.00000  Uiso   1.00
O1110  O     0.82360   0.45726   0.66625   0.00000  Uiso   1.00
O1111  O     0.79354   0.53979   0.83749   0.00000  Uiso   1.00
O1112  O     0.87755   0.50826   0.65877   0.00000  Uiso   1.00
O1113  O     0.83865   0.49468   0.83749   0.00000  Uiso   1.00
O1114  O     0.84515   0.41434   0.77820   0.00000  Uiso   1.00
O1115  O     0.81247   0.59469   0.76767   0.00000  Uiso   1.00
O1116  O     0.74119   0.46584   0.73607   0.00000  Uiso   1.00
O1117  O     0.93452   0.52512   0.71805   0.00000  Uiso   1.00
O1118  O     0.73656   0.52293   0.77820   0.00000  Uiso   1.00
O1119  O     0.92106   0.48610   0.76767   0.00000  Uiso   1.00
O1120  O     0.80467   0.40236   0.73607   0.00000  Uiso   1.00
O1121  O     0.87104   0.58860   0.71805   0.00000  Uiso   1.00
Zn1122 Zn    0.85910   0.47423   0.78277   0.00000  Uiso   1.00
Zn1123 Zn    0.80125   0.45711   0.72257   0.00000  Uiso   1.00
Zn1124 Zn    0.87833   0.52997   0.71188   0.00000  Uiso   1.00
Zn1125 Zn    0.79465   0.53868   0.78277   0.00000  Uiso   1.00
C1126  C     0.05248   0.82638   0.75883   0.00000  Uiso   1.00
C1127  C     0.19045   0.78116   0.95846   0.00000  Uiso   1.00
C1128  C     0.21568   0.76736   0.97907   0.00000  Uiso   1.00
C1129  C     0.28108   0.84019   0.74126   0.00000  Uiso   1.00
C1130  C     0.20891   0.77780   0.51991   0.00000  Uiso   1.00
C1131  C     0.17293   0.79921   0.54127   0.00000  Uiso   1.00
C1132  C     0.23780   0.76760   0.53965   0.00000  Uiso   1.00
C1133  C     0.23058   0.77936   0.58054   0.00000  Uiso   1.00
C1134  C     0.16952   0.81377   0.58119   0.00000  Uiso   1.00
C1135  C     0.32694   0.84289   0.73780   0.00000  Uiso   1.00
C1136  C     0.00715   0.82371   0.76221   0.00000  Uiso   1.00
C1137  C     0.09192   0.87085   0.92145   0.00000  Uiso   1.00
C1138  C     0.18103   0.98883   0.73807   0.00000  Uiso   1.00
C1139  C     0.15182   0.67869   0.76220   0.00000  Uiso   1.00
C1140  C     0.15603   0.72269   0.75891   0.00000  Uiso   1.00
C1141  C     0.17692   0.94434   0.74133   0.00000  Uiso   1.00
C1142  C     0.18777   0.81228   0.64384   0.00000  Uiso   1.00
C1143  C     0.14533   0.85403   0.85643   0.00000  Uiso   1.00
C1144  C     0.13114   0.85618   0.90008   0.00000  Uiso   1.00
C1145  C     0.19680   0.80249   0.60098   0.00000  Uiso   1.00
C1146  C     0.07547   0.86584   0.96172   0.00000  Uiso   1.00
C1147  C     0.31213   0.75125   0.53114   0.00000  Uiso   1.00
C1148  C     0.15431   0.83795   0.91989   0.00000  Uiso   1.00
C1149  C     0.07315   0.80085   0.57923   0.00000  Uiso   1.00
C1150  C     0.07235   0.75351   0.57709   0.00000  Uiso   1.00
C1151  C     0.16195   0.73380   0.91064   0.00000  Uiso   1.00
C1152  C     0.13654   0.82920   0.95959   0.00000  Uiso   1.00
C1153  C     0.09730   0.84489   0.98085   0.00000  Uiso   1.00
C1154  C     0.15743   0.80671   0.97913   0.00000  Uiso   1.00
C1155  C     0.14365   0.80855   0.52123   0.00000  Uiso   1.00
C1156  C     0.10067   0.81817   0.54079   0.00000  Uiso   1.00
C1157  C     0.07912   0.83781   0.52045   0.00000  Uiso   1.00
H1158  H     0.04726   0.84684   0.53536   0.00000  Uiso   1.00
H1159  H     0.07334   0.88501   0.90684   0.00000  Uiso   1.00
H1160  H     0.18637   0.83097   0.90371   0.00000  Uiso   1.00
H1161  H     0.26433   0.71454   0.50803   0.00000  Uiso   1.00
H1162  H     0.00553   0.73906   0.50693   0.00000  Uiso   1.00
H1163  H     0.30758   0.73416   0.55738   0.00000  Uiso   1.00
H1164  H     0.32131   0.78507   0.53832   0.00000  Uiso   1.00
H1165  H     0.06316   0.73805   0.55018   0.00000  Uiso   1.00
H1166  H     0.10426   0.74496   0.57653   0.00000  Uiso   1.00
H1167  H     0.04827   0.74169   0.60360   0.00000  Uiso   1.00
H1168  H     0.08238   0.81625   0.60586   0.00000  Uiso   1.00
H1169  H     0.01649   0.86059   0.71527   0.00000  Uiso   1.00
H1170  H     0.03910   0.80699   0.58498   0.00000  Uiso   1.00
H1171  H     0.22624   0.75707   0.90335   0.00000  Uiso   1.00
H1172  H     0.16771   0.72504   0.87824   0.00000  Uiso   1.00
H1173  H     0.13001   0.74578   0.92202   0.00000  Uiso   1.00
H1174  H     0.16157   0.70554   0.92519   0.00000  Uiso   1.00
H1175  H     0.31829   0.80581   0.78491   0.00000  Uiso   1.00
H1176  H     0.20802   0.66949   0.71587   0.00000  Uiso   1.00
H1177  H     0.12446   0.99879   0.78448   0.00000  Uiso   1.00
H1178  H     0.14748   0.83594   0.59683   0.00000  Uiso   1.00
H1179  H     0.25091   0.77042   0.59675   0.00000  Uiso   1.00
H1180  H     0.24117   0.74875   0.96253   0.00000  Uiso   1.00
H1181  H     0.04495   0.87724   0.97765   0.00000  Uiso   1.00
N1182  N     0.27313   0.74491   0.51814   0.00000  Uiso   1.00
N1183  N     0.19589   0.76538   0.91789   0.00000  Uiso   1.00
O1184  O     0.16667   0.83333   0.75000   0.00000  Uiso   1.00
O1185  O     0.15693   0.79060   0.66625   0.00000  Uiso   1.00
O1186  O     0.12687   0.87313   0.83749   0.00000  Uiso   1.00
O1187  O     0.21088   0.84159   0.65877   0.00000  Uiso   1.00
O1188  O     0.17198   0.82802   0.83749   0.00000  Uiso   1.00
O1189  O     0.17849   0.74768   0.77820   0.00000  Uiso   1.00
O1190  O     0.14581   0.92803   0.76767   0.00000  Uiso   1.00
O1191  O     0.07452   0.79917   0.73607   0.00000  Uiso   1.00
O1192  O     0.26785   0.85845   0.71805   0.00000  Uiso   1.00
O1193  O     0.06990   0.85627   0.77820   0.00000  Uiso   1.00
O1194  O     0.25440   0.81944   0.76767   0.00000  Uiso   1.00
O1195  O     0.13800   0.73570   0.73607   0.00000  Uiso   1.00
O1196  O     0.20437   0.92193   0.71805   0.00000  Uiso   1.00
Zn1197 Zn    0.19244   0.80756   0.78277   0.00000  Uiso   1.00
Zn1198 Zn    0.13459   0.79044   0.72257   0.00000  Uiso   1.00
Zn1199 Zn    0.21166   0.86331   0.71188   0.00000  Uiso   1.00
Zn1200 Zn    0.12798   0.87202   0.78277   0.00000  Uiso   1.00
C1201  C     0.38581   0.82638   0.75883   0.00000  Uiso   1.00
C1202  C     0.52379   0.78116   0.95846   0.00000  Uiso   1.00
C1203  C     0.54901   0.76736   0.97907   0.00000  Uiso   1.00
C1204  C     0.61441   0.84019   0.74126   0.00000  Uiso   1.00
C1205  C     0.54224   0.77780   0.51991   0.00000  Uiso   1.00
C1206  C     0.50626   0.79921   0.54127   0.00000  Uiso   1.00
C1207  C     0.57113   0.76760   0.53965   0.00000  Uiso   1.00
C1208  C     0.56391   0.77936   0.58054   0.00000  Uiso   1.00
C1209  C     0.50285   0.81377   0.58119   0.00000  Uiso   1.00
C1210  C     0.66027   0.84289   0.73780   0.00000  Uiso   1.00
C1211  C     0.34048   0.82371   0.76221   0.00000  Uiso   1.00
C1212  C     0.42525   0.87085   0.92145   0.00000  Uiso   1.00
C1213  C     0.51436   0.98883   0.73807   0.00000  Uiso   1.00
C1214  C     0.48515   0.67869   0.76220   0.00000  Uiso   1.00
C1215  C     0.48936   0.72269   0.75891   0.00000  Uiso   1.00
C1216  C     0.51025   0.94434   0.74133   0.00000  Uiso   1.00
C1217  C     0.52110   0.81228   0.64384   0.00000  Uiso   1.00
C1218  C     0.47867   0.85403   0.85643   0.00000  Uiso   1.00
C1219  C     0.46448   0.85618   0.90008   0.00000  Uiso   1.00
C1220  C     0.53013   0.80249   0.60098   0.00000  Uiso   1.00
C1221  C     0.40880   0.86584   0.96172   0.00000  Uiso   1.00
C1222  C     0.64546   0.75125   0.53114   0.00000  Uiso   1.00
C1223  C     0.48764   0.83795   0.91989   0.00000  Uiso   1.00
C1224  C     0.40649   0.80085   0.57923   0.00000  Uiso   1.00
C1225  C     0.40568   0.75351   0.57709   0.00000  Uiso   1.00
C1226  C     0.49528   0.73380   0.91064   0.00000  Uiso   1.00
C1227  C     0.46988   0.82920   0.95959   0.00000  Uiso   1.00
C1228  C     0.43063   0.84489   0.98085   0.00000  Uiso   1.00
C1229  C     0.49076   0.80671   0.97913   0.00000  Uiso   1.00
C1230  C     0.47699   0.80855   0.52123   0.00000  Uiso   1.00
C1231  C     0.43400   0.81817   0.54079   0.00000  Uiso   1.00
C1232  C     0.41246   0.83781   0.52045   0.00000  Uiso   1.00
H1233  H     0.38060   0.84684   0.53536   0.00000  Uiso   1.00
H1234  H     0.40667   0.88501   0.90684   0.00000  Uiso   1.00
H1235  H     0.51970   0.83097   0.90371   0.00000  Uiso   1.00
H1236  H     0.59766   0.71454   0.50803   0.00000  Uiso   1.00
H1237  H     0.33886   0.73906   0.50693   0.00000  Uiso   1.00
H1238  H     0.64092   0.73416   0.55738   0.00000  Uiso   1.00
H1239  H     0.65464   0.78507   0.53832   0.00000  Uiso   1.00
H1240  H     0.39650   0.73805   0.55018   0.00000  Uiso   1.00
H1241  H     0.43759   0.74496   0.57653   0.00000  Uiso   1.00
H1242  H     0.38161   0.74169   0.60360   0.00000  Uiso   1.00
H1243  H     0.41571   0.81625   0.60586   0.00000  Uiso   1.00
H1244  H     0.34982   0.86059   0.71527   0.00000  Uiso   1.00
H1245  H     0.37243   0.80699   0.58498   0.00000  Uiso   1.00
H1246  H     0.55957   0.75707   0.90335   0.00000  Uiso   1.00
H1247  H     0.50104   0.72504   0.87824   0.00000  Uiso   1.00
H1248  H     0.46334   0.74578   0.92202   0.00000  Uiso   1.00
H1249  H     0.49490   0.70554   0.92519   0.00000  Uiso   1.00
H1250  H     0.65163   0.80581   0.78491   0.00000  Uiso   1.00
H1251  H     0.54135   0.66949   0.71587   0.00000  Uiso   1.00
H1252  H     0.45779   0.99879   0.78448   0.00000  Uiso   1.00
H1253  H     0.48082   0.83594   0.59683   0.00000  Uiso   1.00
H1254  H     0.58424   0.77042   0.59675   0.00000  Uiso   1.00
H1255  H     0.57450   0.74875   0.96253   0.00000  Uiso   1.00
H1256  H     0.37829   0.87724   0.97765   0.00000  Uiso   1.00
N1257  N     0.60646   0.74491   0.51814   0.00000  Uiso   1.00
N1258  N     0.52922   0.76538   0.91789   0.00000  Uiso   1.00
O1259  O     0.50000   0.83333   0.75000   0.00000  Uiso   1.00
O1260  O     0.49027   0.79060   0.66625   0.00000  Uiso   1.00
O1261  O     0.46020   0.87313   0.83749   0.00000  Uiso   1.00
O1262  O     0.54421   0.84159   0.65877   0.00000  Uiso   1.00
O1263  O     0.50532   0.82802   0.83749   0.00000  Uiso   1.00
O1264  O     0.51182   0.74768   0.77820   0.00000  Uiso   1.00
O1265  O     0.47914   0.92803   0.76767   0.00000  Uiso   1.00
O1266  O     0.40785   0.79917   0.73607   0.00000  Uiso   1.00
O1267  O     0.60119   0.85845   0.71805   0.00000  Uiso   1.00
O1268  O     0.40323   0.85627   0.77820   0.00000  Uiso   1.00
O1269  O     0.58773   0.81944   0.76767   0.00000  Uiso   1.00
O1270  O     0.47133   0.73570   0.73607   0.00000  Uiso   1.00
O1271  O     0.53771   0.92193   0.71805   0.00000  Uiso   1.00
Zn1272 Zn    0.52577   0.80756   0.78277   0.00000  Uiso   1.00
Zn1273 Zn    0.46792   0.79044   0.72257   0.00000  Uiso   1.00
Zn1274 Zn    0.54500   0.86331   0.71188   0.00000  Uiso   1.00
Zn1275 Zn    0.46131   0.87202   0.78277   0.00000  Uiso   1.00
C1276  C     0.71914   0.82638   0.75883   0.00000  Uiso   1.00
C1277  C     0.85712   0.78116   0.95846   0.00000  Uiso   1.00
C1278  C     0.88235   0.76736   0.97907   0.00000  Uiso   1.00
C1279  C     0.94775   0.84019   0.74126   0.00000  Uiso   1.00
C1280  C     0.87558   0.77780   0.51991   0.00000  Uiso   1.00
C1281  C     0.83960   0.79921   0.54127   0.00000  Uiso   1.00
C1282  C     0.90447   0.76760   0.53965   0.00000  Uiso   1.00
C1283  C     0.89725   0.77936   0.58054   0.00000  Uiso   1.00
C1284  C     0.83618   0.81377   0.58119   0.00000  Uiso   1.00
C1285  C     0.99361   0.84289   0.73780   0.00000  Uiso   1.00
C1286  C     0.67382   0.82371   0.76221   0.00000  Uiso   1.00
C1287  C     0.75858   0.87085   0.92145   0.00000  Uiso   1.00
C1288  C     0.84769   0.98883   0.73807   0.00000  Uiso   1.00
C1289  C     0.81849   0.67869   0.76220   0.00000  Uiso   1.00
C1290  C     0.82270   0.72269   0.75891   0.00000  Uiso   1.00
C1291  C     0.84359   0.94434   0.74133   0.00000  Uiso   1.00
C1292  C     0.85444   0.81228   0.64384   0.00000  Uiso   1.00
C1293  C     0.81200   0.85403   0.85643   0.00000  Uiso   1.00
C1294  C     0.79781   0.85618   0.90008   0.00000  Uiso   1.00
C1295  C     0.86347   0.80249   0.60098   0.00000  Uiso   1.00
C1296  C     0.74213   0.86584   0.96172   0.00000  Uiso   1.00
C1297  C     0.97880   0.75125   0.53114   0.00000  Uiso   1.00
C1298  C     0.82097   0.83795   0.91989   0.00000  Uiso   1.00
C1299  C     0.73982   0.80085   0.57923   0.00000  Uiso   1.00
C1300  C     0.73902   0.75351   0.57709   0.00000  Uiso   1.00
C1301  C     0.82861   0.73380   0.91064   0.00000  Uiso   1.00
C1302  C     0.80321   0.82920   0.95959   0.00000  Uiso   1.00
C1303  C     0.76396   0.84489   0.98085   0.00000  Uiso   1.00
C1304  C     0.82409   0.80671   0.97913   0.00000  Uiso   1.00
C1305  C     0.81032   0.80855   0.52123   0.00000  Uiso   1.00
C1306  C     0.76734   0.81817   0.54079   0.00000  Uiso   1.00
C1307  C     0.74579   0.83781   0.52045   0.00000  Uiso   1.00
H1308  H     0.71393   0.84684   0.53536   0.00000  Uiso   1.00
H1309  H     0.74000   0.88501   0.90684   0.00000  Uiso   1.00
H1310  H     0.85304   0.83097   0.90371   0.00000  Uiso   1.00
H1311  H     0.93099   0.71454   0.50803   0.00000  Uiso   1.00
H1312  H     0.67220   0.73906   0.50693   0.00000  Uiso   1.00
H1313  H     0.97425   0.73416   0.55738   0.00000  Uiso   1.00
H1314  H     0.98798   0.78507   0.53832   0.00000  Uiso   1.00
H1315  H     0.72983   0.73805   0.55018   0.00000  Uiso   1.00
H1316  H     0.77092   0.74496   0.57653   0.00000  Uiso   1.00
H1317  H     0.71494   0.74169   0.60360   0.00000  Uiso   1.00
H1318  H     0.74905   0.81625   0.60586   0.00000  Uiso   1.00
H1319  H     0.68315   0.86059   0.71527   0.00000  Uiso   1.00
H1320  H     0.70576   0.80699   0.58498   0.00000  Uiso   1.00
H1321  H     0.89290   0.75707   0.90335   0.00000  Uiso   1.00
H1322  H     0.83438   0.72504   0.87824   0.00000  Uiso   1.00
H1323  H     0.79668   0.74578   0.92202   0.00000  Uiso   1.00
H1324  H     0.82823   0.70554   0.92519   0.00000  Uiso   1.00
H1325  H     0.98496   0.80581   0.78491   0.00000  Uiso   1.00
H1326  H     0.87469   0.66949   0.71587   0.00000  Uiso   1.00
H1327  H     0.79112   0.99879   0.78448   0.00000  Uiso   1.00
H1328  H     0.81415   0.83594   0.59683   0.00000  Uiso   1.00
H1329  H     0.91758   0.77042   0.59675   0.00000  Uiso   1.00
H1330  H     0.90784   0.74875   0.96253   0.00000  Uiso   1.00
H1331  H     0.71162   0.87724   0.97765   0.00000  Uiso   1.00
N1332  N     0.93979   0.74491   0.51814   0.00000  Uiso   1.00
N1333  N     0.86256   0.76538   0.91789   0.00000  Uiso   1.00
O1334  O     0.83333   0.83333   0.75000   0.00000  Uiso   1.00
O1335  O     0.82360   0.79060   0.66625   0.00000  Uiso   1.00
O1336  O     0.79354   0.87313   0.83749   0.00000  Uiso   1.00
O1337  O     0.87755   0.84159   0.65877   0.00000  Uiso   1.00
O1338  O     0.83865   0.82802   0.83749   0.00000  Uiso   1.00
O1339  O     0.84515   0.74768   0.77820   0.00000  Uiso   1.00
O1340  O     0.81247   0.92803   0.76767   0.00000  Uiso   1.00
O1341  O     0.74119   0.79917   0.73607   0.00000  Uiso   1.00
O1342  O     0.93452   0.85845   0.71805   0.00000  Uiso   1.00
O1343  O     0.73656   0.85627   0.77820   0.00000  Uiso   1.00
O1344  O     0.92106   0.81944   0.76767   0.00000  Uiso   1.00
O1345  O     0.80467   0.73570   0.73607   0.00000  Uiso   1.00
O1346  O     0.87104   0.92193   0.71805   0.00000  Uiso   1.00
Zn1347 Zn    0.85910   0.80756   0.78277   0.00000  Uiso   1.00
Zn1348 Zn    0.80125   0.79044   0.72257   0.00000  Uiso   1.00
Zn1349 Zn    0.87833   0.86331   0.71188   0.00000  Uiso   1.00
Zn1350 Zn    0.79465   0.87202   0.78277   0.00000  Uiso   1.00
loop_
_geom_bond_atom_site_label_1
_geom_bond_atom_site_label_2
_geom_bond_distance
_geom_bond_site_symmetry_2
_ccdc_geom_bond_type
C1     C11     1.437   .     S
C1     O68     1.269   .     A
C1     O66     1.269   .     A
C2     C29     1.425   .     A
C2     N58     1.426   .     S
C2     C3      1.396   .     A
C3     H55     1.083   .     S
C3     C680    1.399   .     S
C4     O69     1.273   .     A
C4     C10     1.453   .     S
C4     O67     1.275   .     A
C5     C6      1.421   .     A
C5     C7      1.419   .     A
C5     C678    1.399   1_554 S
C6     C9      1.404   .     A
C6     C30     1.426   .     A
C7     C8      1.405   .     A
C7     N57     1.430   .     S
C8     C20     1.393   .     A
C8     H54     1.082   .     S
C9     C20     1.392   .     A
C9     H53     1.076   .     S
C10    C86     1.333   .     S
C10    H119    1.088   .     S
C11    C160    1.333   1_455 S
C11    H200    1.086   1_455 S
C12    C21     1.395   .     A
C12    C19     1.400   .     A
C12    H34     1.083   .     S
C13    C16     1.452   .     S
C13    C239    1.332   .     S
C13    H276    1.088   .     S
C14    C15     1.436   .     S
C14    C463    1.332   1_545 S
C14    H502    1.086   1_545 S
C15    O64     1.271   .     A
C15    O70     1.271   .     A
C16    O71     1.271   .     A
C16    O65     1.271   .     A
C17    C20     1.458   .     S
C17    O62     1.276   .     A
C17    O60     1.275   .     A
C18    O63     1.284   .     A
C18    C19     1.475   .     S
C18    O61     1.286   .     A
C19    C23     1.401   .     A
C21    C28     1.405   .     A
C21    H56     1.084   .     S
C22    N57     1.448   .     S
C22    H38     1.110   .     S
C22    H39     1.111   .     S
C22    H112    1.110   .     S
C23    C27     1.409   .     A
C23    H35     1.078   .     S
C24    H45     1.112   .     S
C24    C25     1.529   .     S
C24    C31     1.529   .     S
C24    H43     1.102   .     S
C25    H40     1.111   .     S
C25    H41     1.109   .     S
C25    H42     1.111   .     S
C26    H48     1.111   .     S
C26    H49     1.111   .     S
C26    N58     1.447   .     S
C26    H47     1.111   .     S
C27    C29     1.425   .     A
C27    C28     1.414   .     A
C28    C707    1.394   .     S
C29    C705    1.423   .     S
C30    C31     1.433   .     A
C30    C704    1.423   1_554 S
C31    C32     1.403   .     A
C32    H33     1.085   .     S
C32    C703    1.394   1_554 S
H36    N57     1.031   .     S
H37    C172    1.110   1_455 S
H44    C160    1.088   1_455 S
H46    N58     1.032   .     S
H50    C86     1.086   .     S
H51    C463    1.088   1_545 S
H52    C239    1.086   .     S
O59    Zn73    1.936   .     S
O59    Zn72    1.945   .     S
O59    Zn74    1.931   .     S
O59    Zn75    1.936   .     S
O60    Zn73    1.917   .     S
O61    Zn75    1.921   .     S
O62    Zn74    1.919   .     S
O63    Zn72    1.916   .     S
O64    Zn72    1.929   .     S
O65    Zn75    1.930   .     S
O66    Zn73    1.931   .     S
O67    Zn74    1.935   .     S
O68    Zn75    1.931   .     S
O69    Zn72    1.928   .     S
O70    Zn73    1.934   .     S
O71    Zn74    1.932   .     S
C76    C86     1.437   .     S
C76    O143    1.269   .     A
C76    O141    1.269   .     A
C77    C104    1.425   .     A
C77    N133    1.426   .     S
C77    C78     1.396   .     A
C78    H130    1.083   .     S
C78    C755    1.399   .     S
C79    O144    1.273   .     A
C79    C85     1.453   .     S
C79    O142    1.275   .     A
C80    C81     1.421   .     A
C80    C82     1.419   .     A
C80    C753    1.399   1_554 S
C81    C84     1.404   .     A
C81    C105    1.426   .     A
C82    C83     1.405   .     A
C82    N132    1.430   .     S
C83    C95     1.393   .     A
C83    H129    1.082   .     S
C84    C95     1.392   .     A
C84    H128    1.076   .     S
C85    C161    1.333   .     S
C85    H194    1.088   .     S
C87    C96     1.395   .     A
C87    C94     1.400   .     A
C87    H109    1.083   .     S
C88    C91     1.452   .     S
C88    C314    1.332   .     S
C88    H351    1.088   .     S
C89    C90     1.436   .     S
C89    C538    1.332   1_545 S
C89    H577    1.086   1_545 S
C90    O139    1.271   .     A
C90    O145    1.271   .     A
C91    O146    1.271   .     A
C91    O140    1.271   .     A
C92    C95     1.458   .     S
C92    O137    1.276   .     A
C92    O135    1.275   .     A
C93    O138    1.284   .     A
C93    C94     1.475   .     S
C93    O136    1.286   .     A
C94    C98     1.401   .     A
C96    C103    1.405   .     A
C96    H131    1.084   .     S
C97    N132    1.448   .     S
C97    H113    1.110   .     S
C97    H114    1.111   .     S
C97    H187    1.110   .     S
C98    C102    1.409   .     A
C98    H110    1.078   .     S
C99    H120    1.112   .     S
C99    C100    1.529   .     S
C99    C106    1.529   .     S
C99    H118    1.102   .     S
C100   H115    1.111   .     S
C100   H116    1.109   .     S
C100   H117    1.111   .     S
C101   H123    1.111   .     S
C101   H124    1.111   .     S
C101   N133    1.447   .     S
C101   H122    1.111   .     S
C102   C104    1.425   .     A
C102   C103    1.414   .     A
C103   C782    1.394   .     S
C104   C780    1.423   .     S
C105   C106    1.433   .     A
C105   C779    1.423   1_554 S
C106   C107    1.403   .     A
C107   H108    1.085   .     S
C107   C778    1.394   1_554 S
H111   N132    1.031   .     S
H121   N133    1.032   .     S
H125   C161    1.086   .     S
H126   C538    1.088   1_545 S
H127   C314    1.086   .     S
O134   Zn148   1.936   .     S
O134   Zn147   1.945   .     S
O134   Zn149   1.931   .     S
O134   Zn150   1.936   .     S
O135   Zn148   1.917   .     S
O136   Zn150   1.921   .     S
O137   Zn149   1.919   .     S
O138   Zn147   1.916   .     S
O139   Zn147   1.929   .     S
O140   Zn150   1.930   .     S
O141   Zn148   1.931   .     S
O142   Zn149   1.935   .     S
O143   Zn150   1.931   .     S
O144   Zn147   1.928   .     S
O145   Zn148   1.934   .     S
O146   Zn149   1.932   .     S
C151   C161    1.437   .     S
C151   O218    1.269   .     A
C151   O216    1.269   .     A
C152   C179    1.425   .     A
C152   N208    1.426   .     S
C152   C153    1.396   .     A
C153   H205    1.083   .     S
C153   C830    1.399   .     S
C154   O219    1.273   .     A
C154   C160    1.453   .     S
C154   O217    1.275   .     A
C155   C156    1.421   .     A
C155   C157    1.419   .     A
C155   C828    1.399   1_554 S
C156   C159    1.404   .     A
C156   C180    1.426   .     A
C157   C158    1.405   .     A
C157   N207    1.430   .     S
C158   C170    1.393   .     A
C158   H204    1.082   .     S
C159   C170    1.392   .     A
C159   H203    1.076   .     S
C160   C11     1.333   1_655 S
C160   H44     1.088   1_655 S
C162   C171    1.395   .     A
C162   C169    1.400   .     A
C162   H184    1.083   .     S
C163   C166    1.452   .     S
C163   C389    1.332   .     S
C163   H426    1.088   .     S
C164   C165    1.436   .     S
C164   C613    1.332   1_545 S
C164   H652    1.086   1_545 S
C165   O214    1.271   .     A
C165   O220    1.271   .     A
C166   O221    1.271   .     A
C166   O215    1.271   .     A
C167   C170    1.458   .     S
C167   O212    1.276   .     A
C167   O210    1.275   .     A
C168   O213    1.284   .     A
C168   C169    1.475   .     S
C168   O211    1.286   .     A
C169   C173    1.401   .     A
C171   C178    1.405   .     A
C171   H206    1.084   .     S
C172   N207    1.448   .     S
C172   H188    1.110   .     S
C172   H189    1.111   .     S
C172   H37     1.110   1_655 S
C173   C177    1.409   .     A
C173   H185    1.078   .     S
C174   H195    1.112   .     S
C174   C175    1.529   .     S
C174   C181    1.529   .     S
C174   H193    1.102   .     S
C175   H190    1.111   .     S
C175   H191    1.109   .     S
C175   H192    1.111   .     S
C176   H198    1.111   .     S
C176   H199    1.111   .     S
C176   N208    1.447   .     S
C176   H197    1.111   .     S
C177   C179    1.425   .     A
C177   C178    1.414   .     A
C178   C857    1.394   .     S
C179   C855    1.423   .     S
C180   C181    1.433   .     A
C180   C854    1.423   1_554 S
C181   C182    1.403   .     A
C182   H183    1.085   .     S
C182   C853    1.394   1_554 S
H186   N207    1.031   .     S
H196   N208    1.032   .     S
H200   C11     1.086   1_655 S
H201   C613    1.088   1_545 S
H202   C389    1.086   .     S
O209   Zn223   1.936   .     S
O209   Zn222   1.945   .     S
O209   Zn224   1.931   .     S
O209   Zn225   1.936   .     S
O210   Zn223   1.917   .     S
O211   Zn225   1.921   .     S
O212   Zn224   1.919   .     S
O213   Zn222   1.916   .     S
O214   Zn222   1.929   .     S
O215   Zn225   1.930   .     S
O216   Zn223   1.931   .     S
O217   Zn224   1.935   .     S
O218   Zn225   1.931   .     S
O219   Zn222   1.928   .     S
O220   Zn223   1.934   .     S
O221   Zn224   1.932   .     S
C226   C236    1.437   .     S
C226   O293    1.269   .     A
C226   O291    1.269   .     A
C227   C254    1.425   .     A
C227   N283    1.426   .     S
C227   C228    1.396   .     A
C228   H280    1.083   .     S
C228   C905    1.399   .     S
C229   O294    1.273   .     A
C229   C235    1.453   .     S
C229   O292    1.275   .     A
C230   C231    1.421   .     A
C230   C232    1.419   .     A
C230   C903    1.399   1_554 S
C231   C234    1.404   .     A
C231   C255    1.426   .     A
C232   C233    1.405   .     A
C232   N282    1.430   .     S
C233   C245    1.393   .     A
C233   H279    1.082   .     S
C234   C245    1.392   .     A
C234   H278    1.076   .     S
C235   C311    1.333   .     S
C235   H344    1.088   .     S
C236   C385    1.333   1_455 S
C236   H425    1.086   1_455 S
C237   C246    1.395   .     A
C237   C244    1.400   .     A
C237   H259    1.083   .     S
C238   C241    1.452   .     S
C238   C464    1.332   .     S
C238   H501    1.088   .     S
C239   C240    1.436   .     S
C240   O289    1.271   .     A
C240   O295    1.271   .     A
C241   O296    1.271   .     A
C241   O290    1.271   .     A
C242   C245    1.458   .     S
C242   O287    1.276   .     A
C242   O285    1.275   .     A
C243   O288    1.284   .     A
C243   C244    1.475   .     S
C243   O286    1.286   .     A
C244   C248    1.401   .     A
C246   C253    1.405   .     A
C246   H281    1.084   .     S
C247   N282    1.448   .     S
C247   H263    1.110   .     S
C247   H264    1.111   .     S
C247   H337    1.110   .     S
C248   C252    1.409   .     A
C248   H260    1.078   .     S
C249   H270    1.112   .     S
C249   C250    1.529   .     S
C249   C256    1.529   .     S
C249   H268    1.102   .     S
C250   H265    1.111   .     S
C250   H266    1.109   .     S
C250   H267    1.111   .     S
C251   H273    1.111   .     S
C251   H274    1.111   .     S
C251   N283    1.447   .     S
C251   H272    1.111   .     S
C252   C254    1.425   .     A
C252   C253    1.414   .     A
C253   C932    1.394   .     S
C254   C930    1.423   .     S
C255   C256    1.433   .     A
C255   C929    1.423   1_554 S
C256   C257    1.403   .     A
C257   H258    1.085   .     S
C257   C928    1.394   1_554 S
H261   N282    1.031   .     S
H262   C397    1.110   1_455 S
H269   C385    1.088   1_455 S
H271   N283    1.032   .     S
H275   C311    1.086   .     S
H277   C464    1.086   .     S
O284   Zn298   1.936   .     S
O284   Zn297   1.945   .     S
O284   Zn299   1.931   .     S
O284   Zn300   1.936   .     S
O285   Zn298   1.917   .     S
O286   Zn300   1.921   .     S
O287   Zn299   1.919   .     S
O288   Zn297   1.916   .     S
O289   Zn297   1.929   .     S
O290   Zn300   1.930   .     S
O291   Zn298   1.931   .     S
O292   Zn299   1.935   .     S
O293   Zn300   1.931   .     S
O294   Zn297   1.928   .     S
O295   Zn298   1.934   .     S
O296   Zn299   1.932   .     S
C301   C311    1.437   .     S
C301   O368    1.269   .     A
C301   O366    1.269   .     A
C302   C329    1.425   .     A
C302   N358    1.426   .     S
C302   C303    1.396   .     A
C303   H355    1.083   .     S
C303   C980    1.399   .     S
C304   O369    1.273   .     A
C304   C310    1.453   .     S
C304   O367    1.275   .     A
C305   C306    1.421   .     A
C305   C307    1.419   .     A
C305   C978    1.399   1_554 S
C306   C309    1.404   .     A
C306   C330    1.426   .     A
C307   C308    1.405   .     A
C307   N357    1.430   .     S
C308   C320    1.393   .     A
C308   H354    1.082   .     S
C309   C320    1.392   .     A
C309   H353    1.076   .     S
C310   C386    1.333   .     S
C310   H419    1.088   .     S
C312   C321    1.395   .     A
C312   C319    1.400   .     A
C312   H334    1.083   .     S
C313   C316    1.452   .     S
C313   C539    1.332   .     S
C313   H576    1.088   .     S
C314   C315    1.436   .     S
C315   O364    1.271   .     A
C315   O370    1.271   .     A
C316   O371    1.271   .     A
C316   O365    1.271   .     A
C317   C320    1.458   .     S
C317   O362    1.276   .     A
C317   O360    1.275   .     A
C318   O363    1.284   .     A
C318   C319    1.475   .     S
C318   O361    1.286   .     A
C319   C323    1.401   .     A
C321   C328    1.405   .     A
C321   H356    1.084   .     S
C322   N357    1.448   .     S
C322   H338    1.110   .     S
C322   H339    1.111   .     S
C322   H412    1.110   .     S
C323   C327    1.409   .     A
C323   H335    1.078   .     S
C324   H345    1.112   .     S
C324   C325    1.529   .     S
C324   C331    1.529   .     S
C324   H343    1.102   .     S
C325   H340    1.111   .     S
C325   H341    1.109   .     S
C325   H342    1.111   .     S
C326   H348    1.111   .     S
C326   H349    1.111   .     S
C326   N358    1.447   .     S
C326   H347    1.111   .     S
C327   C329    1.425   .     A
C327   C328    1.414   .     A
C328   C1007   1.394   .     S
C329   C1005   1.423   .     S
C330   C331    1.433   .     A
C330   C1004   1.423   1_554 S
C331   C332    1.403   .     A
C332   H333    1.085   .     S
C332   C1003   1.394   1_554 S
H336   N357    1.031   .     S
H346   N358    1.032   .     S
H350   C386    1.086   .     S
H352   C539    1.086   .     S
O359   Zn373   1.936   .     S
O359   Zn372   1.945   .     S
O359   Zn374   1.931   .     S
O359   Zn375   1.936   .     S
O360   Zn373   1.917   .     S
O361   Zn375   1.921   .     S
O362   Zn374   1.919   .     S
O363   Zn372   1.916   .     S
O364   Zn372   1.929   .     S
O365   Zn375   1.930   .     S
O366   Zn373   1.931   .     S
O367   Zn374   1.935   .     S
O368   Zn375   1.931   .     S
O369   Zn372   1.928   .     S
O370   Zn373   1.934   .     S
O371   Zn374   1.932   .     S
C376   C386    1.437   .     S
C376   O443    1.269   .     A
C376   O441    1.269   .     A
C377   C404    1.425   .     A
C377   N433    1.426   .     S
C377   C378    1.396   .     A
C378   H430    1.083   .     S
C378   C1055   1.399   .     S
C379   O444    1.273   .     A
C379   C385    1.453   .     S
C379   O442    1.275   .     A
C380   C381    1.421   .     A
C380   C382    1.419   .     A
C380   C1053   1.399   1_554 S
C381   C384    1.404   .     A
C381   C405    1.426   .     A
C382   C383    1.405   .     A
C382   N432    1.430   .     S
C383   C395    1.393   .     A
C383   H429    1.082   .     S
C384   C395    1.392   .     A
C384   H428    1.076   .     S
C385   C236    1.333   1_655 S
C385   H269    1.088   1_655 S
C387   C396    1.395   .     A
C387   C394    1.400   .     A
C387   H409    1.083   .     S
C388   C391    1.452   .     S
C388   C614    1.332   .     S
C388   H651    1.088   .     S
C389   C390    1.436   .     S
C390   O439    1.271   .     A
C390   O445    1.271   .     A
C391   O446    1.271   .     A
C391   O440    1.271   .     A
C392   C395    1.458   .     S
C392   O437    1.276   .     A
C392   O435    1.275   .     A
C393   O438    1.284   .     A
C393   C394    1.475   .     S
C393   O436    1.286   .     A
C394   C398    1.401   .     A
C396   C403    1.405   .     A
C396   H431    1.084   .     S
C397   N432    1.448   .     S
C397   H413    1.110   .     S
C397   H414    1.111   .     S
C397   H262    1.110   1_655 S
C398   C402    1.409   .     A
C398   H410    1.078   .     S
C399   H420    1.112   .     S
C399   C400    1.529   .     S
C399   C406    1.529   .     S
C399   H418    1.102   .     S
C400   H415    1.111   .     S
C400   H416    1.109   .     S
C400   H417    1.111   .     S
C401   H423    1.111   .     S
C401   H424    1.111   .     S
C401   N433    1.447   .     S
C401   H422    1.111   .     S
C402   C404    1.425   .     A
C402   C403    1.414   .     A
C403   C1082   1.394   .     S
C404   C1080   1.423   .     S
C405   C406    1.433   .     A
C405   C1079   1.423   1_554 S
C406   C407    1.403   .     A
C407   H408    1.085   .     S
C407   C1078   1.394   1_554 S
H411   N432    1.031   .     S
H421   N433    1.032   .     S
H425   C236    1.086   1_655 S
H427   C614    1.086   .     S
O434   Zn448   1.936   .     S
O434   Zn447   1.945   .     S
O434   Zn449   1.931   .     S
O434   Zn450   1.936   .     S
O435   Zn448   1.917   .     S
O436   Zn450   1.921   .     S
O437   Zn449   1.919   .     S
O438   Zn447   1.916   .     S
O439   Zn447   1.929   .     S
O440   Zn450   1.930   .     S
O441   Zn448   1.931   .     S
O442   Zn449   1.935   .     S
O443   Zn450   1.931   .     S
O444   Zn447   1.928   .     S
O445   Zn448   1.934   .     S
O446   Zn449   1.932   .     S
C451   C461    1.437   .     S
C451   O518    1.269   .     A
C451   O516    1.269   .     A
C452   C479    1.425   .     A
C452   N508    1.426   .     S
C452   C453    1.396   .     A
C453   H505    1.083   .     S
C453   C1130   1.399   .     S
C454   O519    1.273   .     A
C454   C460    1.453   .     S
C454   O517    1.275   .     A
C455   C456    1.421   .     A
C455   C457    1.419   .     A
C455   C1128   1.399   1_554 S
C456   C459    1.404   .     A
C456   C480    1.426   .     A
C457   C458    1.405   .     A
C457   N507    1.430   .     S
C458   C470    1.393   .     A
C458   H504    1.082   .     S
C459   C470    1.392   .     A
C459   H503    1.076   .     S
C460   C536    1.333   .     S
C460   H569    1.088   .     S
C461   C610    1.333   1_455 S
C461   H650    1.086   1_455 S
C462   C471    1.395   .     A
C462   C469    1.400   .     A
C462   H484    1.083   .     S
C463   C466    1.452   .     S
C463   C14     1.332   1_565 S
C463   H51     1.088   1_565 S
C464   C465    1.436   .     S
C465   O514    1.271   .     A
C465   O520    1.271   .     A
C466   O521    1.271   .     A
C466   O515    1.271   .     A
C467   C470    1.458   .     S
C467   O512    1.276   .     A
C467   O510    1.275   .     A
C468   O513    1.284   .     A
C468   C469    1.475   .     S
C468   O511    1.286   .     A
C469   C473    1.401   .     A
C471   C478    1.405   .     A
C471   H506    1.084   .     S
C472   N507    1.448   .     S
C472   H488    1.110   .     S
C472   H489    1.111   .     S
C472   H562    1.110   .     S
C473   C477    1.409   .     A
C473   H485    1.078   .     S
C474   H495    1.112   .     S
C474   C475    1.529   .     S
C474   C481    1.529   .     S
C474   H493    1.102   .     S
C475   H490    1.111   .     S
C475   H491    1.109   .     S
C475   H492    1.111   .     S
C476   H498    1.111   .     S
C476   H499    1.111   .     S
C476   N508    1.447   .     S
C476   H497    1.111   .     S
C477   C479    1.425   .     A
C477   C478    1.414   .     A
C478   C1157   1.394   .     S
C479   C1155   1.423   .     S
C480   C481    1.433   .     A
C480   C1154   1.423   1_554 S
C481   C482    1.403   .     A
C482   H483    1.085   .     S
C482   C1153   1.394   1_554 S
H486   N507    1.031   .     S
H487   C622    1.110   1_455 S
H494   C610    1.088   1_455 S
H496   N508    1.032   .     S
H500   C536    1.086   .     S
H502   C14     1.086   1_565 S
O509   Zn523   1.936   .     S
O509   Zn522   1.945   .     S
O509   Zn524   1.931   .     S
O509   Zn525   1.936   .     S
O510   Zn523   1.917   .     S
O511   Zn525   1.921   .     S
O512   Zn524   1.919   .     S
O513   Zn522   1.916   .     S
O514   Zn522   1.929   .     S
O515   Zn525   1.930   .     S
O516   Zn523   1.931   .     S
O517   Zn524   1.935   .     S
O518   Zn525   1.931   .     S
O519   Zn522   1.928   .     S
O520   Zn523   1.934   .     S
O521   Zn524   1.932   .     S
C526   C536    1.437   .     S
C526   O593    1.269   .     A
C526   O591    1.269   .     A
C527   C554    1.425   .     A
C527   N583    1.426   .     S
C527   C528    1.396   .     A
C528   H580    1.083   .     S
C528   C1205   1.399   .     S
C529   O594    1.273   .     A
C529   C535    1.453   .     S
C529   O592    1.275   .     A
C530   C531    1.421   .     A
C530   C532    1.419   .     A
C530   C1203   1.399   1_554 S
C531   C534    1.404   .     A
C531   C555    1.426   .     A
C532   C533    1.405   .     A
C532   N582    1.430   .     S
C533   C545    1.393   .     A
C533   H579    1.082   .     S
C534   C545    1.392   .     A
C534   H578    1.076   .     S
C535   C611    1.333   .     S
C535   H644    1.088   .     S
C537   C546    1.395   .     A
C537   C544    1.400   .     A
C537   H559    1.083   .     S
C538   C541    1.452   .     S
C538   C89     1.332   1_565 S
C538   H126    1.088   1_565 S
C539   C540    1.436   .     S
C540   O589    1.271   .     A
C540   O595    1.271   .     A
C541   O596    1.271   .     A
C541   O590    1.271   .     A
C542   C545    1.458   .     S
C542   O587    1.276   .     A
C542   O585    1.275   .     A
C543   O588    1.284   .     A
C543   C544    1.475   .     S
C543   O586    1.286   .     A
C544   C548    1.401   .     A
C546   C553    1.405   .     A
C546   H581    1.084   .     S
C547   N582    1.448   .     S
C547   H563    1.110   .     S
C547   H564    1.111   .     S
C547   H637    1.110   .     S
C548   C552    1.409   .     A
C548   H560    1.078   .     S
C549   H570    1.112   .     S
C549   C550    1.529   .     S
C549   C556    1.529   .     S
C549   H568    1.102   .     S
C550   H565    1.111   .     S
C550   H566    1.109   .     S
C550   H567    1.111   .     S
C551   H573    1.111   .     S
C551   H574    1.111   .     S
C551   N583    1.447   .     S
C551   H572    1.111   .     S
C552   C554    1.425   .     A
C552   C553    1.414   .     A
C553   C1232   1.394   .     S
C554   C1230   1.423   .     S
C555   C556    1.433   .     A
C555   C1229   1.423   1_554 S
C556   C557    1.403   .     A
C557   H558    1.085   .     S
C557   C1228   1.394   1_554 S
H561   N582    1.031   .     S
H571   N583    1.032   .     S
H575   C611    1.086   .     S
H577   C89     1.086   1_565 S
O584   Zn598   1.936   .     S
O584   Zn597   1.945   .     S
O584   Zn599   1.931   .     S
O584   Zn600   1.936   .     S
O585   Zn598   1.917   .     S
O586   Zn600   1.921   .     S
O587   Zn599   1.919   .     S
O588   Zn597   1.916   .     S
O589   Zn597   1.929   .     S
O590   Zn600   1.930   .     S
O591   Zn598   1.931   .     S
O592   Zn599   1.935   .     S
O593   Zn600   1.931   .     S
O594   Zn597   1.928   .     S
O595   Zn598   1.934   .     S
O596   Zn599   1.932   .     S
C601   C611    1.437   .     S
C601   O668    1.269   .     A
C601   O666    1.269   .     A
C602   C629    1.425   .     A
C602   N658    1.426   .     S
C602   C603    1.396   .     A
C603   H655    1.083   .     S
C603   C1280   1.399   .     S
C604   O669    1.273   .     A
C604   C610    1.453   .     S
C604   O667    1.275   .     A
C605   C606    1.421   .     A
C605   C607    1.419   .     A
C605   C1278   1.399   1_554 S
C606   C609    1.404   .     A
C606   C630    1.426   .     A
C607   C608    1.405   .     A
C607   N657    1.430   .     S
C608   C620    1.393   .     A
C608   H654    1.082   .     S
C609   C620    1.392   .     A
C609   H653    1.076   .     S
C610   C461    1.333   1_655 S
C610   H494    1.088   1_655 S
C612   C621    1.395   .     A
C612   C619    1.400   .     A
C612   H634    1.083   .     S
C613   C616    1.452   .     S
C613   C164    1.332   1_565 S
C613   H201    1.088   1_565 S
C614   C615    1.436   .     S
C615   O664    1.271   .     A
C615   O670    1.271   .     A
C616   O671    1.271   .     A
C616   O665    1.271   .     A
C617   C620    1.458   .     S
C617   O662    1.276   .     A
C617   O660    1.275   .     A
C618   O663    1.284   .     A
C618   C619    1.475   .     S
C618   O661    1.286   .     A
C619   C623    1.401   .     A
C621   C628    1.405   .     A
C621   H656    1.084   .     S
C622   N657    1.448   .     S
C622   H638    1.110   .     S
C622   H639    1.111   .     S
C622   H487    1.110   1_655 S
C623   C627    1.409   .     A
C623   H635    1.078   .     S
C624   H645    1.112   .     S
C624   C625    1.529   .     S
C624   C631    1.529   .     S
C624   H643    1.102   .     S
C625   H640    1.111   .     S
C625   H641    1.109   .     S
C625   H642    1.111   .     S
C626   H648    1.111   .     S
C626   H649    1.111   .     S
C626   N658    1.447   .     S
C626   H647    1.111   .     S
C627   C629    1.425   .     A
C627   C628    1.414   .     A
C628   C1307   1.394   .     S
C629   C1305   1.423   .     S
C630   C631    1.433   .     A
C630   C1304   1.423   1_554 S
C631   C632    1.403   .     A
C632   H633    1.085   .     S
C632   C1303   1.394   1_554 S
H636   N657    1.031   .     S
H646   N658    1.032   .     S
H650   C461    1.086   1_655 S
H652   C164    1.086   1_565 S
O659   Zn673   1.936   .     S
O659   Zn672   1.945   .     S
O659   Zn674   1.931   .     S
O659   Zn675   1.936   .     S
O660   Zn673   1.917   .     S
O661   Zn675   1.921   .     S
O662   Zn674   1.919   .     S
O663   Zn672   1.916   .     S
O664   Zn672   1.929   .     S
O665   Zn675   1.930   .     S
O666   Zn673   1.931   .     S
O667   Zn674   1.935   .     S
O668   Zn675   1.931   .     S
O669   Zn672   1.928   .     S
O670   Zn673   1.934   .     S
O671   Zn674   1.932   .     S
C676   C686    1.437   .     S
C676   O743    1.269   .     A
C676   O741    1.269   .     A
C677   C704    1.425   .     A
C677   N733    1.426   .     S
C677   C678    1.396   .     A
C678   H730    1.083   .     S
C678   C5      1.399   1_556 S
C679   O744    1.273   .     A
C679   C685    1.453   .     S
C679   O742    1.275   .     A
C680   C681    1.421   .     A
C680   C682    1.419   .     A
C681   C684    1.404   .     A
C681   C705    1.426   .     A
C682   C683    1.405   .     A
C682   N732    1.430   .     S
C683   C695    1.393   .     A
C683   H729    1.082   .     S
C684   C695    1.392   .     A
C684   H728    1.076   .     S
C685   C761    1.333   .     S
C685   H794    1.088   .     S
C686   C835    1.333   1_455 S
C686   H875    1.086   1_455 S
C687   C696    1.395   .     A
C687   C694    1.400   .     A
C687   H709    1.083   .     S
C688   C691    1.452   .     S
C688   C914    1.332   .     S
C688   H951    1.088   .     S
C689   C690    1.436   .     S
C689   C1138   1.332   1_545 S
C689   H1177   1.086   1_545 S
C690   O739    1.271   .     A
C690   O745    1.271   .     A
C691   O746    1.271   .     A
C691   O740    1.271   .     A
C692   C695    1.458   .     S
C692   O737    1.276   .     A
C692   O735    1.275   .     A
C693   O738    1.284   .     A
C693   C694    1.475   .     S
C693   O736    1.286   .     A
C694   C698    1.401   .     A
C696   C703    1.405   .     A
C696   H731    1.084   .     S
C697   N732    1.448   .     S
C697   H713    1.110   .     S
C697   H714    1.111   .     S
C697   H787    1.110   .     S
C698   C702    1.409   .     A
C698   H710    1.078   .     S
C699   H720    1.112   .     S
C699   C700    1.529   .     S
C699   C706    1.529   .     S
C699   H718    1.102   .     S
C700   H715    1.111   .     S
C700   H716    1.109   .     S
C700   H717    1.111   .     S
C701   H723    1.111   .     S
C701   H724    1.111   .     S
C701   N733    1.447   .     S
C701   H722    1.111   .     S
C702   C704    1.425   .     A
C702   C703    1.414   .     A
C703   C32     1.394   1_556 S
C704   C30     1.423   1_556 S
C705   C706    1.433   .     A
C706   C707    1.403   .     A
C707   H708    1.085   .     S
H711   N732    1.031   .     S
H712   C847    1.110   1_455 S
H719   C835    1.088   1_455 S
H721   N733    1.032   .     S
H725   C761    1.086   .     S
H726   C1138   1.088   1_545 S
H727   C914    1.086   .     S
O734   Zn748   1.936   .     S
O734   Zn747   1.945   .     S
O734   Zn749   1.931   .     S
O734   Zn750   1.936   .     S
O735   Zn748   1.917   .     S
O736   Zn750   1.921   .     S
O737   Zn749   1.919   .     S
O738   Zn747   1.916   .     S
O739   Zn747   1.929   .     S
O740   Zn750   1.930   .     S
O741   Zn748   1.931   .     S
O742   Zn749   1.935   .     S
O743   Zn750   1.931   .     S
O744   Zn747   1.928   .     S
O745   Zn748   1.934   .     S
O746   Zn749   1.932   .     S
C751   C761    1.437   .     S
C751   O818    1.269   .     A
C751   O816    1.269   .     A
C752   C779    1.425   .     A
C752   N808    1.426   .     S
C752   C753    1.396   .     A
C753   H805    1.083   .     S
C753   C80     1.399   1_556 S
C754   O819    1.273   .     A
C754   C760    1.453   .     S
C754   O817    1.275   .     A
C755   C756    1.421   .     A
C755   C757    1.419   .     A
C756   C759    1.404   .     A
C756   C780    1.426   .     A
C757   C758    1.405   .     A
C757   N807    1.430   .     S
C758   C770    1.393   .     A
C758   H804    1.082   .     S
C759   C770    1.392   .     A
C759   H803    1.076   .     S
C760   C836    1.333   .     S
C760   H869    1.088   .     S
C762   C771    1.395   .     A
C762   C769    1.400   .     A
C762   H784    1.083   .     S
C763   C766    1.452   .     S
C763   C989    1.332   .     S
C763   H1026   1.088   .     S
C764   C765    1.436   .     S
C764   C1213   1.332   1_545 S
C764   H1252   1.086   1_545 S
C765   O814    1.271   .     A
C765   O820    1.271   .     A
C766   O821    1.271   .     A
C766   O815    1.271   .     A
C767   C770    1.458   .     S
C767   O812    1.276   .     A
C767   O810    1.275   .     A
C768   O813    1.284   .     A
C768   C769    1.475   .     S
C768   O811    1.286   .     A
C769   C773    1.401   .     A
C771   C778    1.405   .     A
C771   H806    1.084   .     S
C772   N807    1.448   .     S
C772   H788    1.110   .     S
C772   H789    1.111   .     S
C772   H862    1.110   .     S
C773   C777    1.409   .     A
C773   H785    1.078   .     S
C774   H795    1.112   .     S
C774   C775    1.529   .     S
C774   C781    1.529   .     S
C774   H793    1.102   .     S
C775   H790    1.111   .     S
C775   H791    1.109   .     S
C775   H792    1.111   .     S
C776   H798    1.111   .     S
C776   H799    1.111   .     S
C776   N808    1.447   .     S
C776   H797    1.111   .     S
C777   C779    1.425   .     A
C777   C778    1.414   .     A
C778   C107    1.394   1_556 S
C779   C105    1.423   1_556 S
C780   C781    1.433   .     A
C781   C782    1.403   .     A
C782   H783    1.085   .     S
H786   N807    1.031   .     S
H796   N808    1.032   .     S
H800   C836    1.086   .     S
H801   C1213   1.088   1_545 S
H802   C989    1.086   .     S
O809   Zn823   1.936   .     S
O809   Zn822   1.945   .     S
O809   Zn824   1.931   .     S
O809   Zn825   1.936   .     S
O810   Zn823   1.917   .     S
O811   Zn825   1.921   .     S
O812   Zn824   1.919   .     S
O813   Zn822   1.916   .     S
O814   Zn822   1.929   .     S
O815   Zn825   1.930   .     S
O816   Zn823   1.931   .     S
O817   Zn824   1.935   .     S
O818   Zn825   1.931   .     S
O819   Zn822   1.928   .     S
O820   Zn823   1.934   .     S
O821   Zn824   1.932   .     S
C826   C836    1.437   .     S
C826   O893    1.269   .     A
C826   O891    1.269   .     A
C827   C854    1.425   .     A
C827   N883    1.426   .     S
C827   C828    1.396   .     A
C828   H880    1.083   .     S
C828   C155    1.399   1_556 S
C829   O894    1.273   .     A
C829   C835    1.453   .     S
C829   O892    1.275   .     A
C830   C831    1.421   .     A
C830   C832    1.419   .     A
C831   C834    1.404   .     A
C831   C855    1.426   .     A
C832   C833    1.405   .     A
C832   N882    1.430   .     S
C833   C845    1.393   .     A
C833   H879    1.082   .     S
C834   C845    1.392   .     A
C834   H878    1.076   .     S
C835   C686    1.333   1_655 S
C835   H719    1.088   1_655 S
C837   C846    1.395   .     A
C837   C844    1.400   .     A
C837   H859    1.083   .     S
C838   C841    1.452   .     S
C838   C1064   1.332   .     S
C838   H1101   1.088   .     S
C839   C840    1.436   .     S
C839   C1288   1.332   1_545 S
C839   H1327   1.086   1_545 S
C840   O889    1.271   .     A
C840   O895    1.271   .     A
C841   O896    1.271   .     A
C841   O890    1.271   .     A
C842   C845    1.458   .     S
C842   O887    1.276   .     A
C842   O885    1.275   .     A
C843   O888    1.284   .     A
C843   C844    1.475   .     S
C843   O886    1.286   .     A
C844   C848    1.401   .     A
C846   C853    1.405   .     A
C846   H881    1.084   .     S
C847   N882    1.448   .     S
C847   H863    1.110   .     S
C847   H864    1.111   .     S
C847   H712    1.110   1_655 S
C848   C852    1.409   .     A
C848   H860    1.078   .     S
C849   H870    1.112   .     S
C849   C850    1.529   .     S
C849   C856    1.529   .     S
C849   H868    1.102   .     S
C850   H865    1.111   .     S
C850   H866    1.109   .     S
C850   H867    1.111   .     S
C851   H873    1.111   .     S
C851   H874    1.111   .     S
C851   N883    1.447   .     S
C851   H872    1.111   .     S
C852   C854    1.425   .     A
C852   C853    1.414   .     A
C853   C182    1.394   1_556 S
C854   C180    1.423   1_556 S
C855   C856    1.433   .     A
C856   C857    1.403   .     A
C857   H858    1.085   .     S
H861   N882    1.031   .     S
H871   N883    1.032   .     S
H875   C686    1.086   1_655 S
H876   C1288   1.088   1_545 S
H877   C1064   1.086   .     S
O884   Zn898   1.936   .     S
O884   Zn897   1.945   .     S
O884   Zn899   1.931   .     S
O884   Zn900   1.936   .     S
O885   Zn898   1.917   .     S
O886   Zn900   1.921   .     S
O887   Zn899   1.919   .     S
O888   Zn897   1.916   .     S
O889   Zn897   1.929   .     S
O890   Zn900   1.930   .     S
O891   Zn898   1.931   .     S
O892   Zn899   1.935   .     S
O893   Zn900   1.931   .     S
O894   Zn897   1.928   .     S
O895   Zn898   1.934   .     S
O896   Zn899   1.932   .     S
C901   C911    1.437   .     S
C901   O968    1.269   .     A
C901   O966    1.269   .     A
C902   C929    1.425   .     A
C902   N958    1.426   .     S
C902   C903    1.396   .     A
C903   H955    1.083   .     S
C903   C230    1.399   1_556 S
C904   O969    1.273   .     A
C904   C910    1.453   .     S
C904   O967    1.275   .     A
C905   C906    1.421   .     A
C905   C907    1.419   .     A
C906   C909    1.404   .     A
C906   C930    1.426   .     A
C907   C908    1.405   .     A
C907   N957    1.430   .     S
C908   C920    1.393   .     A
C908   H954    1.082   .     S
C909   C920    1.392   .     A
C909   H953    1.076   .     S
C910   C986    1.333   .     S
C910   H1019   1.088   .     S
C911   C1060   1.333   1_455 S
C911   H1100   1.086   1_455 S
C912   C921    1.395   .     A
C912   C919    1.400   .     A
C912   H934    1.083   .     S
C913   C916    1.452   .     S
C913   C1139   1.332   .     S
C913   H1176   1.088   .     S
C914   C915    1.436   .     S
C915   O964    1.271   .     A
C915   O970    1.271   .     A
C916   O971    1.271   .     A
C916   O965    1.271   .     A
C917   C920    1.458   .     S
C917   O962    1.276   .     A
C917   O960    1.275   .     A
C918   O963    1.284   .     A
C918   C919    1.475   .     S
C918   O961    1.286   .     A
C919   C923    1.401   .     A
C921   C928    1.405   .     A
C921   H956    1.084   .     S
C922   N957    1.448   .     S
C922   H938    1.110   .     S
C922   H939    1.111   .     S
C922   H1012   1.110   .     S
C923   C927    1.409   .     A
C923   H935    1.078   .     S
C924   H945    1.112   .     S
C924   C925    1.529   .     S
C924   C931    1.529   .     S
C924   H943    1.102   .     S
C925   H940    1.111   .     S
C925   H941    1.109   .     S
C925   H942    1.111   .     S
C926   H948    1.111   .     S
C926   H949    1.111   .     S
C926   N958    1.447   .     S
C926   H947    1.111   .     S
C927   C929    1.425   .     A
C927   C928    1.414   .     A
C928   C257    1.394   1_556 S
C929   C255    1.423   1_556 S
C930   C931    1.433   .     A
C931   C932    1.403   .     A
C932   H933    1.085   .     S
H936   N957    1.031   .     S
H937   C1072   1.110   1_455 S
H944   C1060   1.088   1_455 S
H946   N958    1.032   .     S
H950   C986    1.086   .     S
H952   C1139   1.086   .     S
O959   Zn973   1.936   .     S
O959   Zn972   1.945   .     S
O959   Zn974   1.931   .     S
O959   Zn975   1.936   .     S
O960   Zn973   1.917   .     S
O961   Zn975   1.921   .     S
O962   Zn974   1.919   .     S
O963   Zn972   1.916   .     S
O964   Zn972   1.929   .     S
O965   Zn975   1.930   .     S
O966   Zn973   1.931   .     S
O967   Zn974   1.935   .     S
O968   Zn975   1.931   .     S
O969   Zn972   1.928   .     S
O970   Zn973   1.934   .     S
O971   Zn974   1.932   .     S
C976   C986    1.437   .     S
C976   O1043   1.269   .     A
C976   O1041   1.269   .     A
C977   C1004   1.425   .     A
C977   N1033   1.426   .     S
C977   C978    1.396   .     A
C978   H1030   1.083   .     S
C978   C305    1.399   1_556 S
C979   O1044   1.273   .     A
C979   C985    1.453   .     S
C979   O1042   1.275   .     A
C980   C981    1.421   .     A
C980   C982    1.419   .     A
C981   C984    1.404   .     A
C981   C1005   1.426   .     A
C982   C983    1.405   .     A
C982   N1032   1.430   .     S
C983   C995    1.393   .     A
C983   H1029   1.082   .     S
C984   C995    1.392   .     A
C984   H1028   1.076   .     S
C985   C1061   1.333   .     S
C985   H1094   1.088   .     S
C987   C996    1.395   .     A
C987   C994    1.400   .     A
C987   H1009   1.083   .     S
C988   C991    1.452   .     S
C988   C1214   1.332   .     S
C988   H1251   1.088   .     S
C989   C990    1.436   .     S
C990   O1039   1.271   .     A
C990   O1045   1.271   .     A
C991   O1046   1.271   .     A
C991   O1040   1.271   .     A
C992   C995    1.458   .     S
C992   O1037   1.276   .     A
C992   O1035   1.275   .     A
C993   O1038   1.284   .     A
C993   C994    1.475   .     S
C993   O1036   1.286   .     A
C994   C998    1.401   .     A
C996   C1003   1.405   .     A
C996   H1031   1.084   .     S
C997   N1032   1.448   .     S
C997   H1013   1.110   .     S
C997   H1014   1.111   .     S
C997   H1087   1.110   .     S
C998   C1002   1.409   .     A
C998   H1010   1.078   .     S
C999   H1020   1.112   .     S
C999   C1000   1.529   .     S
C999   C1006   1.529   .     S
C999   H1018   1.102   .     S
C1000  H1015   1.111   .     S
C1000  H1016   1.109   .     S
C1000  H1017   1.111   .     S
C1001  H1023   1.111   .     S
C1001  H1024   1.111   .     S
C1001  N1033   1.447   .     S
C1001  H1022   1.111   .     S
C1002  C1004   1.425   .     A
C1002  C1003   1.414   .     A
C1003  C332    1.394   1_556 S
C1004  C330    1.423   1_556 S
C1005  C1006   1.433   .     A
C1006  C1007   1.403   .     A
C1007  H1008   1.085   .     S
H1011  N1032   1.031   .     S
H1021  N1033   1.032   .     S
H1025  C1061   1.086   .     S
H1027  C1214   1.086   .     S
O1034  Zn1048  1.936   .     S
O1034  Zn1047  1.945   .     S
O1034  Zn1049  1.931   .     S
O1034  Zn1050  1.936   .     S
O1035  Zn1048  1.917   .     S
O1036  Zn1050  1.921   .     S
O1037  Zn1049  1.919   .     S
O1038  Zn1047  1.916   .     S
O1039  Zn1047  1.929   .     S
O1040  Zn1050  1.930   .     S
O1041  Zn1048  1.931   .     S
O1042  Zn1049  1.935   .     S
O1043  Zn1050  1.931   .     S
O1044  Zn1047  1.928   .     S
O1045  Zn1048  1.934   .     S
O1046  Zn1049  1.932   .     S
C1051  C1061   1.437   .     S
C1051  O1118   1.269   .     A
C1051  O1116   1.269   .     A
C1052  C1079   1.425   .     A
C1052  N1108   1.426   .     S
C1052  C1053   1.396   .     A
C1053  H1105   1.083   .     S
C1053  C380    1.399   1_556 S
C1054  O1119   1.273   .     A
C1054  C1060   1.453   .     S
C1054  O1117   1.275   .     A
C1055  C1056   1.421   .     A
C1055  C1057   1.419   .     A
C1056  C1059   1.404   .     A
C1056  C1080   1.426   .     A
C1057  C1058   1.405   .     A
C1057  N1107   1.430   .     S
C1058  C1070   1.393   .     A
C1058  H1104   1.082   .     S
C1059  C1070   1.392   .     A
C1059  H1103   1.076   .     S
C1060  C911    1.333   1_655 S
C1060  H944    1.088   1_655 S
C1062  C1071   1.395   .     A
C1062  C1069   1.400   .     A
C1062  H1084   1.083   .     S
C1063  C1066   1.452   .     S
C1063  C1289   1.332   .     S
C1063  H1326   1.088   .     S
C1064  C1065   1.436   .     S
C1065  O1114   1.271   .     A
C1065  O1120   1.271   .     A
C1066  O1121   1.271   .     A
C1066  O1115   1.271   .     A
C1067  C1070   1.458   .     S
C1067  O1112   1.276   .     A
C1067  O1110   1.275   .     A
C1068  O1113   1.284   .     A
C1068  C1069   1.475   .     S
C1068  O1111   1.286   .     A
C1069  C1073   1.401   .     A
C1071  C1078   1.405   .     A
C1071  H1106   1.084   .     S
C1072  N1107   1.448   .     S
C1072  H1088   1.110   .     S
C1072  H1089   1.111   .     S
C1072  H937    1.110   1_655 S
C1073  C1077   1.409   .     A
C1073  H1085   1.078   .     S
C1074  H1095   1.112   .     S
C1074  C1075   1.529   .     S
C1074  C1081   1.529   .     S
C1074  H1093   1.102   .     S
C1075  H1090   1.111   .     S
C1075  H1091   1.109   .     S
C1075  H1092   1.111   .     S
C1076  H1098   1.111   .     S
C1076  H1099   1.111   .     S
C1076  N1108   1.447   .     S
C1076  H1097   1.111   .     S
C1077  C1079   1.425   .     A
C1077  C1078   1.414   .     A
C1078  C407    1.394   1_556 S
C1079  C405    1.423   1_556 S
C1080  C1081   1.433   .     A
C1081  C1082   1.403   .     A
C1082  H1083   1.085   .     S
H1086  N1107   1.031   .     S
H1096  N1108   1.032   .     S
H1100  C911    1.086   1_655 S
H1102  C1289   1.086   .     S
O1109  Zn1123  1.936   .     S
O1109  Zn1122  1.945   .     S
O1109  Zn1124  1.931   .     S
O1109  Zn1125  1.936   .     S
O1110  Zn1123  1.917   .     S
O1111  Zn1125  1.921   .     S
O1112  Zn1124  1.919   .     S
O1113  Zn1122  1.916   .     S
O1114  Zn1122  1.929   .     S
O1115  Zn1125  1.930   .     S
O1116  Zn1123  1.931   .     S
O1117  Zn1124  1.935   .     S
O1118  Zn1125  1.931   .     S
O1119  Zn1122  1.928   .     S
O1120  Zn1123  1.934   .     S
O1121  Zn1124  1.932   .     S
C1126  C1136   1.437   .     S
C1126  O1193   1.269   .     A
C1126  O1191   1.269   .     A
C1127  C1154   1.425   .     A
C1127  N1183   1.426   .     S
C1127  C1128   1.396   .     A
C1128  H1180   1.083   .     S
C1128  C455    1.399   1_556 S
C1129  O1194   1.273   .     A
C1129  C1135   1.453   .     S
C1129  O1192   1.275   .     A
C1130  C1131   1.421   .     A
C1130  C1132   1.419   .     A
C1131  C1134   1.404   .     A
C1131  C1155   1.426   .     A
C1132  C1133   1.405   .     A
C1132  N1182   1.430   .     S
C1133  C1145   1.393   .     A
C1133  H1179   1.082   .     S
C1134  C1145   1.392   .     A
C1134  H1178   1.076   .     S
C1135  C1211   1.333   .     S
C1135  H1244   1.088   .     S
C1136  C1285   1.333   1_455 S
C1136  H1325   1.086   1_455 S
C1137  C1146   1.395   .     A
C1137  C1144   1.400   .     A
C1137  H1159   1.083   .     S
C1138  C1141   1.452   .     S
C1138  C689    1.332   1_565 S
C1138  H726    1.088   1_565 S
C1139  C1140   1.436   .     S
C1140  O1189   1.271   .     A
C1140  O1195   1.271   .     A
C1141  O1196   1.271   .     A
C1141  O1190   1.271   .     A
C1142  C1145   1.458   .     S
C1142  O1187   1.276   .     A
C1142  O1185   1.275   .     A
C1143  O1188   1.284   .     A
C1143  C1144   1.475   .     S
C1143  O1186   1.286   .     A
C1144  C1148   1.401   .     A
C1146  C1153   1.405   .     A
C1146  H1181   1.084   .     S
C1147  N1182   1.448   .     S
C1147  H1163   1.110   .     S
C1147  H1164   1.111   .     S
C1147  H1237   1.110   .     S
C1148  C1152   1.409   .     A
C1148  H1160   1.078   .     S
C1149  H1170   1.112   .     S
C1149  C1150   1.529   .     S
C1149  C1156   1.529   .     S
C1149  H1168   1.102   .     S
C1150  H1165   1.111   .     S
C1150  H1166   1.109   .     S
C1150  H1167   1.111   .     S
C1151  H1173   1.111   .     S
C1151  H1174   1.111   .     S
C1151  N1183   1.447   .     S
C1151  H1172   1.111   .     S
C1152  C1154   1.425   .     A
C1152  C1153   1.414   .     A
C1153  C482    1.394   1_556 S
C1154  C480    1.423   1_556 S
C1155  C1156   1.433   .     A
C1156  C1157   1.403   .     A
C1157  H1158   1.085   .     S
H1161  N1182   1.031   .     S
H1162  C1297   1.110   1_455 S
H1169  C1285   1.088   1_455 S
H1171  N1183   1.032   .     S
H1175  C1211   1.086   .     S
H1177  C689    1.086   1_565 S
O1184  Zn1198  1.936   .     S
O1184  Zn1197  1.945   .     S
O1184  Zn1199  1.931   .     S
O1184  Zn1200  1.936   .     S
O1185  Zn1198  1.917   .     S
O1186  Zn1200  1.921   .     S
O1187  Zn1199  1.919   .     S
O1188  Zn1197  1.916   .     S
O1189  Zn1197  1.929   .     S
O1190  Zn1200  1.930   .     S
O1191  Zn1198  1.931   .     S
O1192  Zn1199  1.935   .     S
O1193  Zn1200  1.931   .     S
O1194  Zn1197  1.928   .     S
O1195  Zn1198  1.934   .     S
O1196  Zn1199  1.932   .     S
C1201  C1211   1.437   .     S
C1201  O1268   1.269   .     A
C1201  O1266   1.269   .     A
C1202  C1229   1.425   .     A
C1202  N1258   1.426   .     S
C1202  C1203   1.396   .     A
C1203  H1255   1.083   .     S
C1203  C530    1.399   1_556 S
C1204  O1269   1.273   .     A
C1204  C1210   1.453   .     S
C1204  O1267   1.275   .     A
C1205  C1206   1.421   .     A
C1205  C1207   1.419   .     A
C1206  C1209   1.404   .     A
C1206  C1230   1.426   .     A
C1207  C1208   1.405   .     A
C1207  N1257   1.430   .     S
C1208  C1220   1.393   .     A
C1208  H1254   1.082   .     S
C1209  C1220   1.392   .     A
C1209  H1253   1.076   .     S
C1210  C1286   1.333   .     S
C1210  H1319   1.088   .     S
C1212  C1221   1.395   .     A
C1212  C1219   1.400   .     A
C1212  H1234   1.083   .     S
C1213  C1216   1.452   .     S
C1213  C764    1.332   1_565 S
C1213  H801    1.088   1_565 S
C1214  C1215   1.436   .     S
C1215  O1264   1.271   .     A
C1215  O1270   1.271   .     A
C1216  O1271   1.271   .     A
C1216  O1265   1.271   .     A
C1217  C1220   1.458   .     S
C1217  O1262   1.276   .     A
C1217  O1260   1.275   .     A
C1218  O1263   1.284   .     A
C1218  C1219   1.475   .     S
C1218  O1261   1.286   .     A
C1219  C1223   1.401   .     A
C1221  C1228   1.405   .     A
C1221  H1256   1.084   .     S
C1222  N1257   1.448   .     S
C1222  H1238   1.110   .     S
C1222  H1239   1.111   .     S
C1222  H1312   1.110   .     S
C1223  C1227   1.409   .     A
C1223  H1235   1.078   .     S
C1224  H1245   1.112   .     S
C1224  C1225   1.529   .     S
C1224  C1231   1.529   .     S
C1224  H1243   1.102   .     S
C1225  H1240   1.111   .     S
C1225  H1241   1.109   .     S
C1225  H1242   1.111   .     S
C1226  H1248   1.111   .     S
C1226  H1249   1.111   .     S
C1226  N1258   1.447   .     S
C1226  H1247   1.111   .     S
C1227  C1229   1.425   .     A
C1227  C1228   1.414   .     A
C1228  C557    1.394   1_556 S
C1229  C555    1.423   1_556 S
C1230  C1231   1.433   .     A
C1231  C1232   1.403   .     A
C1232  H1233   1.085   .     S
H1236  N1257   1.031   .     S
H1246  N1258   1.032   .     S
H1250  C1286   1.086   .     S
H1252  C764    1.086   1_565 S
O1259  Zn1273  1.936   .     S
O1259  Zn1272  1.945   .     S
O1259  Zn1274  1.931   .     S
O1259  Zn1275  1.936   .     S
O1260  Zn1273  1.917   .     S
O1261  Zn1275  1.921   .     S
O1262  Zn1274  1.919   .     S
O1263  Zn1272  1.916   .     S
O1264  Zn1272  1.929   .     S
O1265  Zn1275  1.930   .     S
O1266  Zn1273  1.931   .     S
O1267  Zn1274  1.935   .     S
O1268  Zn1275  1.931   .     S
O1269  Zn1272  1.928   .     S
O1270  Zn1273  1.934   .     S
O1271  Zn1274  1.932   .     S
C1276  C1286   1.437   .     S
C1276  O1343   1.269   .     A
C1276  O1341   1.269   .     A
C1277  C1304   1.425   .     A
C1277  N1333   1.426   .     S
C1277  C1278   1.396   .     A
C1278  H1330   1.083   .     S
C1278  C605    1.399   1_556 S
C1279  O1344   1.273   .     A
C1279  C1285   1.453   .     S
C1279  O1342   1.275   .     A
C1280  C1281   1.421   .     A
C1280  C1282   1.419   .     A
C1281  C1284   1.404   .     A
C1281  C1305   1.426   .     A
C1282  C1283   1.405   .     A
C1282  N1332   1.430   .     S
C1283  C1295   1.393   .     A
C1283  H1329   1.082   .     S
C1284  C1295   1.392   .     A
C1284  H1328   1.076   .     S
C1285  C1136   1.333   1_655 S
C1285  H1169   1.088   1_655 S
C1287  C1296   1.395   .     A
C1287  C1294   1.400   .     A
C1287  H1309   1.083   .     S
C1288  C1291   1.452   .     S
C1288  C839    1.332   1_565 S
C1288  H876    1.088   1_565 S
C1289  C1290   1.436   .     S
C1290  O1339   1.271   .     A
C1290  O1345   1.271   .     A
C1291  O1346   1.271   .     A
C1291  O1340   1.271   .     A
C1292  C1295   1.458   .     S
C1292  O1337   1.276   .     A
C1292  O1335   1.275   .     A
C1293  O1338   1.284   .     A
C1293  C1294   1.475   .     S
C1293  O1336   1.286   .     A
C1294  C1298   1.401   .     A
C1296  C1303   1.405   .     A
C1296  H1331   1.084   .     S
C1297  N1332   1.448   .     S
C1297  H1313   1.110   .     S
C1297  H1314   1.111   .     S
C1297  H1162   1.110   1_655 S
C1298  C1302   1.409   .     A
C1298  H1310   1.078   .     S
C1299  H1320   1.112   .     S
C1299  C1300   1.529   .     S
C1299  C1306   1.529   .     S
C1299  H1318   1.102   .     S
C1300  H1315   1.111   .     S
C1300  H1316   1.109   .     S
C1300  H1317   1.111   .     S
C1301  H1323   1.111   .     S
C1301  H1324   1.111   .     S
C1301  N1333   1.447   .     S
C1301  H1322   1.111   .     S
C1302  C1304   1.425   .     A
C1302  C1303   1.414   .     A
C1303  C632    1.394   1_556 S
C1304  C630    1.423   1_556 S
C1305  C1306   1.433   .     A
C1306  C1307   1.403   .     A
C1307  H1308   1.085   .     S
H1311  N1332   1.031   .     S
H1321  N1333   1.032   .     S
H1325  C1136   1.086   1_655 S
H1327  C839    1.086   1_565 S
O1334  Zn1348  1.936   .     S
O1334  Zn1347  1.945   .     S
O1334  Zn1349  1.931   .     S
O1334  Zn1350  1.936   .     S
O1335  Zn1348  1.917   .     S
O1336  Zn1350  1.921   .     S
O1337  Zn1349  1.919   .     S
O1338  Zn1347  1.916   .     S
O1339  Zn1347  1.929   .     S
O1340  Zn1350  1.930   .     S
O1341  Zn1348  1.931   .     S
O1342  Zn1349  1.935   .     S
O1343  Zn1350  1.931   .     S
O1344  Zn1347  1.928   .     S
O1345  Zn1348  1.934   .     S
O1346  Zn1349  1.932   .     S
