data_str_m3_o10_o17_pcu_sym.82
_audit_creation_date              2020-01-03
_audit_creation_method            'Materials Studio'
_symmetry_space_group_name_H-M    'P1'
_symmetry_Int_Tables_number       1
_symmetry_cell_setting            triclinic
loop_
_symmetry_equiv_pos_as_xyz
  x,y,z
_cell_length_a                    23.3301
_cell_length_b                    25.6733
_cell_length_c                    29.7383
_cell_angle_alpha                 91.0774
_cell_angle_beta                  85.7501
_cell_angle_gamma                 93.6240
loop_
_atom_site_label
_atom_site_type_symbol
_atom_site_fract_x
_atom_site_fract_y
_atom_site_fract_z
_atom_site_U_iso_or_equiv
_atom_site_adp_type
_atom_site_occupancy
O1     O     0.12975   0.24619   0.25299   0.00000  Uiso   1.00
O2     O     0.20358   0.08714   0.24701   0.00000  Uiso   1.00
O3     O     0.22613   0.23721   0.24519   0.00000  Uiso   1.00
O4     O     0.10720   0.09613   0.25481   0.00000  Uiso   1.00
C5     C     0.18191   0.26489   0.24883   0.00000  Uiso   1.00
C6     C     0.15142   0.06844   0.25117   0.00000  Uiso   1.00
O7     O     0.11847   0.17117   0.31997   0.00000  Uiso   1.00
O8     O     0.21486   0.16216   0.18002   0.00000  Uiso   1.00
O9     O     0.21485   0.16219   0.31217   0.00000  Uiso   1.00
O10    O     0.11848   0.17115   0.18783   0.00000  Uiso   1.00
C11    C     0.16730   0.16655   0.33638   0.00000  Uiso   1.00
C12    C     0.16603   0.16679   0.16362   0.00000  Uiso   1.00
Zn13   Zn    0.10231   0.17266   0.25521   0.00000  Uiso   1.00
Zn14   Zn    0.23102   0.16067   0.24479   0.00000  Uiso   1.00
C15    C     0.13813   0.12488   0.09445   0.00000  Uiso   1.00
C16    C     0.19521   0.20845   0.40555   0.00000  Uiso   1.00
C17    C     0.16489   0.16715   0.11608   0.00000  Uiso   1.00
C18    C     0.16845   0.16618   0.38392   0.00000  Uiso   1.00
C19    C     0.19262   0.20885   0.09264   0.00000  Uiso   1.00
C20    C     0.14072   0.12448   0.40736   0.00000  Uiso   1.00
C21    C     0.19277   0.20929   0.04617   0.00000  Uiso   1.00
C22    C     0.14057   0.12404   0.45383   0.00000  Uiso   1.00
C23    C     0.16655   0.16636   0.02340   0.00000  Uiso   1.00
C24    C     0.16679   0.16697   0.47660   0.00000  Uiso   1.00
C25    C     0.14020   0.12289   0.04758   0.00000  Uiso   1.00
C26    C     0.19314   0.21044   0.45242   0.00000  Uiso   1.00
C27    C     0.21811   0.25231   0.02247   0.00000  Uiso   1.00
C28    C     0.11523   0.08101   0.47753   0.00000  Uiso   1.00
C29    C     0.21759   0.25393   0.47568   0.00000  Uiso   1.00
C30    C     0.11577   0.07939   0.02432   0.00000  Uiso   1.00
H31    H     0.21309   0.24116   0.11080   0.00000  Uiso   1.00
H32    H     0.12025   0.09217   0.38920   0.00000  Uiso   1.00
H33    H     0.23692   0.28547   0.04054   0.00000  Uiso   1.00
H34    H     0.09643   0.04786   0.45946   0.00000  Uiso   1.00
C35    C     0.18995   0.31940   0.24816   0.00000  Uiso   1.00
C36    C     0.14339   0.01394   0.25184   0.00000  Uiso   1.00
N37    N     0.31678   0.15265   0.23783   0.00000  Uiso   1.00
N38    N     0.01656   0.18068   0.26217   0.00000  Uiso   1.00
H39    H     0.11638   0.09390   0.11464   0.00000  Uiso   1.00
H40    H     0.21696   0.23943   0.38536   0.00000  Uiso   1.00
N41    N     0.24017   0.30048   0.45279   0.00000  Uiso   1.00
O42    O     0.28639   0.32559   0.46582   0.00000  Uiso   1.00
O43    O     0.20904   0.32311   0.42528   0.00000  Uiso   1.00
N44    N     0.09319   0.03284   0.04721   0.00000  Uiso   1.00
O45    O     0.04700   0.00769   0.03416   0.00000  Uiso   1.00
O46    O     0.12433   0.01023   0.07473   0.00000  Uiso   1.00
H47    H     0.23393   0.00306   0.24463   0.00000  Uiso   1.00
H48    H     0.09940   0.33027   0.25537   0.00000  Uiso   1.00
H49    H     0.00458   0.12748   0.21599   0.00000  Uiso   1.00
H50    H     0.32876   0.20586   0.28401   0.00000  Uiso   1.00
O51    O     0.46308   0.24619   0.25299   0.00000  Uiso   1.00
O52    O     0.53692   0.08714   0.24701   0.00000  Uiso   1.00
O53    O     0.55946   0.23721   0.24519   0.00000  Uiso   1.00
O54    O     0.44054   0.09613   0.25481   0.00000  Uiso   1.00
C55    C     0.51524   0.26489   0.24883   0.00000  Uiso   1.00
C56    C     0.48476   0.06844   0.25117   0.00000  Uiso   1.00
O57    O     0.45181   0.17117   0.31997   0.00000  Uiso   1.00
O58    O     0.54819   0.16216   0.18002   0.00000  Uiso   1.00
O59    O     0.54819   0.16219   0.31217   0.00000  Uiso   1.00
O60    O     0.45181   0.17115   0.18783   0.00000  Uiso   1.00
C61    C     0.50063   0.16655   0.33638   0.00000  Uiso   1.00
C62    C     0.49937   0.16679   0.16362   0.00000  Uiso   1.00
Zn63   Zn    0.43565   0.17266   0.25521   0.00000  Uiso   1.00
Zn64   Zn    0.56435   0.16067   0.24479   0.00000  Uiso   1.00
C65    C     0.47146   0.12488   0.09445   0.00000  Uiso   1.00
C66    C     0.52854   0.20845   0.40555   0.00000  Uiso   1.00
C67    C     0.49822   0.16715   0.11608   0.00000  Uiso   1.00
C68    C     0.50178   0.16618   0.38392   0.00000  Uiso   1.00
C69    C     0.52595   0.20885   0.09264   0.00000  Uiso   1.00
C70    C     0.47405   0.12448   0.40736   0.00000  Uiso   1.00
C71    C     0.52611   0.20929   0.04617   0.00000  Uiso   1.00
C72    C     0.47390   0.12404   0.45383   0.00000  Uiso   1.00
C73    C     0.49989   0.16636   0.02340   0.00000  Uiso   1.00
C74    C     0.50012   0.16697   0.47660   0.00000  Uiso   1.00
C75    C     0.47353   0.12289   0.04758   0.00000  Uiso   1.00
C76    C     0.52648   0.21044   0.45242   0.00000  Uiso   1.00
C77    C     0.55145   0.25231   0.02247   0.00000  Uiso   1.00
C78    C     0.44857   0.08101   0.47753   0.00000  Uiso   1.00
C79    C     0.55092   0.25393   0.47568   0.00000  Uiso   1.00
C80    C     0.44910   0.07939   0.02432   0.00000  Uiso   1.00
H81    H     0.54642   0.24116   0.11080   0.00000  Uiso   1.00
H82    H     0.45359   0.09217   0.38920   0.00000  Uiso   1.00
H83    H     0.57026   0.28547   0.04054   0.00000  Uiso   1.00
H84    H     0.42976   0.04786   0.45946   0.00000  Uiso   1.00
C85    C     0.52328   0.31940   0.24816   0.00000  Uiso   1.00
C86    C     0.47672   0.01394   0.25184   0.00000  Uiso   1.00
N87    N     0.65011   0.15265   0.23783   0.00000  Uiso   1.00
N88    N     0.34989   0.18068   0.26217   0.00000  Uiso   1.00
H89    H     0.44971   0.09390   0.11464   0.00000  Uiso   1.00
H90    H     0.55029   0.23943   0.38536   0.00000  Uiso   1.00
N91    N     0.57351   0.30048   0.45279   0.00000  Uiso   1.00
O92    O     0.61973   0.32559   0.46582   0.00000  Uiso   1.00
O93    O     0.54237   0.32311   0.42528   0.00000  Uiso   1.00
N94    N     0.42653   0.03284   0.04721   0.00000  Uiso   1.00
O95    O     0.38034   0.00769   0.03416   0.00000  Uiso   1.00
O96    O     0.45766   0.01023   0.07473   0.00000  Uiso   1.00
H97    H     0.56726   0.00306   0.24463   0.00000  Uiso   1.00
H98    H     0.43274   0.33027   0.25537   0.00000  Uiso   1.00
H99    H     0.33791   0.12748   0.21599   0.00000  Uiso   1.00
H100   H     0.66209   0.20586   0.28401   0.00000  Uiso   1.00
O101   O     0.79642   0.24619   0.25299   0.00000  Uiso   1.00
O102   O     0.87025   0.08714   0.24701   0.00000  Uiso   1.00
O103   O     0.89280   0.23721   0.24519   0.00000  Uiso   1.00
O104   O     0.77387   0.09613   0.25481   0.00000  Uiso   1.00
C105   C     0.84858   0.26489   0.24883   0.00000  Uiso   1.00
C106   C     0.81809   0.06844   0.25117   0.00000  Uiso   1.00
O107   O     0.78514   0.17117   0.31997   0.00000  Uiso   1.00
O108   O     0.88153   0.16216   0.18002   0.00000  Uiso   1.00
O109   O     0.88152   0.16219   0.31217   0.00000  Uiso   1.00
O110   O     0.78515   0.17115   0.18783   0.00000  Uiso   1.00
C111   C     0.83397   0.16655   0.33638   0.00000  Uiso   1.00
C112   C     0.83270   0.16679   0.16362   0.00000  Uiso   1.00
Zn113  Zn    0.76898   0.17266   0.25521   0.00000  Uiso   1.00
Zn114  Zn    0.89769   0.16067   0.24479   0.00000  Uiso   1.00
C115   C     0.80479   0.12488   0.09445   0.00000  Uiso   1.00
C116   C     0.86188   0.20845   0.40555   0.00000  Uiso   1.00
C117   C     0.83155   0.16715   0.11608   0.00000  Uiso   1.00
C118   C     0.83511   0.16618   0.38392   0.00000  Uiso   1.00
C119   C     0.85928   0.20885   0.09264   0.00000  Uiso   1.00
C120   C     0.80739   0.12448   0.40736   0.00000  Uiso   1.00
C121   C     0.85944   0.20929   0.04617   0.00000  Uiso   1.00
C122   C     0.80723   0.12404   0.45383   0.00000  Uiso   1.00
C123   C     0.83322   0.16636   0.02340   0.00000  Uiso   1.00
C124   C     0.83346   0.16697   0.47660   0.00000  Uiso   1.00
C125   C     0.80687   0.12289   0.04758   0.00000  Uiso   1.00
C126   C     0.85981   0.21044   0.45242   0.00000  Uiso   1.00
C127   C     0.88478   0.25231   0.02247   0.00000  Uiso   1.00
C128   C     0.78190   0.08101   0.47753   0.00000  Uiso   1.00
C129   C     0.88425   0.25393   0.47568   0.00000  Uiso   1.00
C130   C     0.78243   0.07939   0.02432   0.00000  Uiso   1.00
H131   H     0.87975   0.24116   0.11080   0.00000  Uiso   1.00
H132   H     0.78692   0.09217   0.38920   0.00000  Uiso   1.00
H133   H     0.90359   0.28547   0.04054   0.00000  Uiso   1.00
H134   H     0.76310   0.04786   0.45946   0.00000  Uiso   1.00
C135   C     0.85661   0.31940   0.24816   0.00000  Uiso   1.00
C136   C     0.81005   0.01394   0.25184   0.00000  Uiso   1.00
N137   N     0.98344   0.15265   0.23783   0.00000  Uiso   1.00
N138   N     0.68322   0.18068   0.26217   0.00000  Uiso   1.00
H139   H     0.78305   0.09390   0.11464   0.00000  Uiso   1.00
H140   H     0.88362   0.23943   0.38536   0.00000  Uiso   1.00
N141   N     0.90684   0.30048   0.45279   0.00000  Uiso   1.00
O142   O     0.95306   0.32559   0.46582   0.00000  Uiso   1.00
O143   O     0.87570   0.32311   0.42528   0.00000  Uiso   1.00
N144   N     0.75986   0.03284   0.04721   0.00000  Uiso   1.00
O145   O     0.71367   0.00769   0.03416   0.00000  Uiso   1.00
O146   O     0.79100   0.01023   0.07473   0.00000  Uiso   1.00
H147   H     0.90060   0.00306   0.24463   0.00000  Uiso   1.00
H148   H     0.76607   0.33027   0.25537   0.00000  Uiso   1.00
H149   H     0.67124   0.12748   0.21599   0.00000  Uiso   1.00
H150   H     0.99542   0.20586   0.28401   0.00000  Uiso   1.00
O151   O     0.12975   0.57952   0.25299   0.00000  Uiso   1.00
O152   O     0.20358   0.42048   0.24701   0.00000  Uiso   1.00
O153   O     0.22613   0.57054   0.24519   0.00000  Uiso   1.00
O154   O     0.10720   0.42946   0.25481   0.00000  Uiso   1.00
C155   C     0.18191   0.59823   0.24883   0.00000  Uiso   1.00
C156   C     0.15142   0.40177   0.25117   0.00000  Uiso   1.00
O157   O     0.11847   0.50450   0.31997   0.00000  Uiso   1.00
O158   O     0.21486   0.49550   0.18002   0.00000  Uiso   1.00
O159   O     0.21485   0.49552   0.31217   0.00000  Uiso   1.00
O160   O     0.11848   0.50448   0.18783   0.00000  Uiso   1.00
C161   C     0.16730   0.49988   0.33638   0.00000  Uiso   1.00
C162   C     0.16603   0.50012   0.16362   0.00000  Uiso   1.00
Zn163  Zn    0.10231   0.50600   0.25521   0.00000  Uiso   1.00
Zn164  Zn    0.23102   0.49400   0.24479   0.00000  Uiso   1.00
C165   C     0.13813   0.45821   0.09445   0.00000  Uiso   1.00
C166   C     0.19521   0.54178   0.40555   0.00000  Uiso   1.00
C167   C     0.16489   0.50048   0.11608   0.00000  Uiso   1.00
C168   C     0.16845   0.49952   0.38392   0.00000  Uiso   1.00
C169   C     0.19262   0.54218   0.09264   0.00000  Uiso   1.00
C170   C     0.14072   0.45782   0.40736   0.00000  Uiso   1.00
C171   C     0.19277   0.54262   0.04617   0.00000  Uiso   1.00
C172   C     0.14057   0.45737   0.45383   0.00000  Uiso   1.00
C173   C     0.16655   0.49969   0.02340   0.00000  Uiso   1.00
C174   C     0.16679   0.50031   0.47660   0.00000  Uiso   1.00
C175   C     0.14020   0.45622   0.04758   0.00000  Uiso   1.00
C176   C     0.19314   0.54378   0.45242   0.00000  Uiso   1.00
C177   C     0.21811   0.58565   0.02247   0.00000  Uiso   1.00
C178   C     0.11523   0.41435   0.47753   0.00000  Uiso   1.00
C179   C     0.21759   0.58727   0.47568   0.00000  Uiso   1.00
C180   C     0.11577   0.41272   0.02432   0.00000  Uiso   1.00
H181   H     0.21309   0.57449   0.11080   0.00000  Uiso   1.00
H182   H     0.12025   0.42550   0.38920   0.00000  Uiso   1.00
H183   H     0.23692   0.61880   0.04054   0.00000  Uiso   1.00
H184   H     0.09643   0.38119   0.45946   0.00000  Uiso   1.00
C185   C     0.18995   0.65273   0.24816   0.00000  Uiso   1.00
C186   C     0.14339   0.34727   0.25184   0.00000  Uiso   1.00
N187   N     0.31678   0.48598   0.23783   0.00000  Uiso   1.00
N188   N     0.01656   0.51402   0.26217   0.00000  Uiso   1.00
H189   H     0.11638   0.42723   0.11464   0.00000  Uiso   1.00
H190   H     0.21696   0.57277   0.38536   0.00000  Uiso   1.00
N191   N     0.24017   0.63381   0.45279   0.00000  Uiso   1.00
O192   O     0.28639   0.65893   0.46582   0.00000  Uiso   1.00
O193   O     0.20904   0.65645   0.42528   0.00000  Uiso   1.00
N194   N     0.09319   0.36617   0.04721   0.00000  Uiso   1.00
O195   O     0.04700   0.34103   0.03416   0.00000  Uiso   1.00
O196   O     0.12433   0.34356   0.07473   0.00000  Uiso   1.00
H197   H     0.23393   0.33640   0.24463   0.00000  Uiso   1.00
H198   H     0.09940   0.66360   0.25537   0.00000  Uiso   1.00
H199   H     0.00458   0.46081   0.21599   0.00000  Uiso   1.00
H200   H     0.32876   0.53919   0.28401   0.00000  Uiso   1.00
O201   O     0.46308   0.57952   0.25299   0.00000  Uiso   1.00
O202   O     0.53692   0.42048   0.24701   0.00000  Uiso   1.00
O203   O     0.55946   0.57054   0.24519   0.00000  Uiso   1.00
O204   O     0.44054   0.42946   0.25481   0.00000  Uiso   1.00
C205   C     0.51524   0.59823   0.24883   0.00000  Uiso   1.00
C206   C     0.48476   0.40177   0.25117   0.00000  Uiso   1.00
O207   O     0.45181   0.50450   0.31997   0.00000  Uiso   1.00
O208   O     0.54819   0.49550   0.18002   0.00000  Uiso   1.00
O209   O     0.54819   0.49552   0.31217   0.00000  Uiso   1.00
O210   O     0.45181   0.50448   0.18783   0.00000  Uiso   1.00
C211   C     0.50063   0.49988   0.33638   0.00000  Uiso   1.00
C212   C     0.49937   0.50012   0.16362   0.00000  Uiso   1.00
Zn213  Zn    0.43565   0.50600   0.25521   0.00000  Uiso   1.00
Zn214  Zn    0.56435   0.49400   0.24479   0.00000  Uiso   1.00
C215   C     0.47146   0.45821   0.09445   0.00000  Uiso   1.00
C216   C     0.52854   0.54178   0.40555   0.00000  Uiso   1.00
C217   C     0.49822   0.50048   0.11608   0.00000  Uiso   1.00
C218   C     0.50178   0.49952   0.38392   0.00000  Uiso   1.00
C219   C     0.52595   0.54218   0.09264   0.00000  Uiso   1.00
C220   C     0.47405   0.45782   0.40736   0.00000  Uiso   1.00
C221   C     0.52611   0.54262   0.04617   0.00000  Uiso   1.00
C222   C     0.47390   0.45737   0.45383   0.00000  Uiso   1.00
C223   C     0.49989   0.49969   0.02340   0.00000  Uiso   1.00
C224   C     0.50012   0.50031   0.47660   0.00000  Uiso   1.00
C225   C     0.47353   0.45622   0.04758   0.00000  Uiso   1.00
C226   C     0.52648   0.54378   0.45242   0.00000  Uiso   1.00
C227   C     0.55145   0.58565   0.02247   0.00000  Uiso   1.00
C228   C     0.44857   0.41435   0.47753   0.00000  Uiso   1.00
C229   C     0.55092   0.58727   0.47568   0.00000  Uiso   1.00
C230   C     0.44910   0.41272   0.02432   0.00000  Uiso   1.00
H231   H     0.54642   0.57449   0.11080   0.00000  Uiso   1.00
H232   H     0.45359   0.42550   0.38920   0.00000  Uiso   1.00
H233   H     0.57026   0.61880   0.04054   0.00000  Uiso   1.00
H234   H     0.42976   0.38119   0.45946   0.00000  Uiso   1.00
C235   C     0.52328   0.65273   0.24816   0.00000  Uiso   1.00
C236   C     0.47672   0.34727   0.25184   0.00000  Uiso   1.00
N237   N     0.65011   0.48598   0.23783   0.00000  Uiso   1.00
N238   N     0.34989   0.51402   0.26217   0.00000  Uiso   1.00
H239   H     0.44971   0.42723   0.11464   0.00000  Uiso   1.00
H240   H     0.55029   0.57277   0.38536   0.00000  Uiso   1.00
N241   N     0.57351   0.63381   0.45279   0.00000  Uiso   1.00
O242   O     0.61973   0.65893   0.46582   0.00000  Uiso   1.00
O243   O     0.54237   0.65645   0.42528   0.00000  Uiso   1.00
N244   N     0.42653   0.36617   0.04721   0.00000  Uiso   1.00
O245   O     0.38034   0.34103   0.03416   0.00000  Uiso   1.00
O246   O     0.45766   0.34356   0.07473   0.00000  Uiso   1.00
H247   H     0.56726   0.33640   0.24463   0.00000  Uiso   1.00
H248   H     0.43274   0.66360   0.25537   0.00000  Uiso   1.00
H249   H     0.33791   0.46081   0.21599   0.00000  Uiso   1.00
H250   H     0.66209   0.53919   0.28401   0.00000  Uiso   1.00
O251   O     0.79642   0.57952   0.25299   0.00000  Uiso   1.00
O252   O     0.87025   0.42048   0.24701   0.00000  Uiso   1.00
O253   O     0.89280   0.57054   0.24519   0.00000  Uiso   1.00
O254   O     0.77387   0.42946   0.25481   0.00000  Uiso   1.00
C255   C     0.84858   0.59823   0.24883   0.00000  Uiso   1.00
C256   C     0.81809   0.40177   0.25117   0.00000  Uiso   1.00
O257   O     0.78514   0.50450   0.31997   0.00000  Uiso   1.00
O258   O     0.88153   0.49550   0.18002   0.00000  Uiso   1.00
O259   O     0.88152   0.49552   0.31217   0.00000  Uiso   1.00
O260   O     0.78515   0.50448   0.18783   0.00000  Uiso   1.00
C261   C     0.83397   0.49988   0.33638   0.00000  Uiso   1.00
C262   C     0.83270   0.50012   0.16362   0.00000  Uiso   1.00
Zn263  Zn    0.76898   0.50600   0.25521   0.00000  Uiso   1.00
Zn264  Zn    0.89769   0.49400   0.24479   0.00000  Uiso   1.00
C265   C     0.80479   0.45821   0.09445   0.00000  Uiso   1.00
C266   C     0.86188   0.54178   0.40555   0.00000  Uiso   1.00
C267   C     0.83155   0.50048   0.11608   0.00000  Uiso   1.00
C268   C     0.83511   0.49952   0.38392   0.00000  Uiso   1.00
C269   C     0.85928   0.54218   0.09264   0.00000  Uiso   1.00
C270   C     0.80739   0.45782   0.40736   0.00000  Uiso   1.00
C271   C     0.85944   0.54262   0.04617   0.00000  Uiso   1.00
C272   C     0.80723   0.45737   0.45383   0.00000  Uiso   1.00
C273   C     0.83322   0.49969   0.02340   0.00000  Uiso   1.00
C274   C     0.83346   0.50031   0.47660   0.00000  Uiso   1.00
C275   C     0.80687   0.45622   0.04758   0.00000  Uiso   1.00
C276   C     0.85981   0.54378   0.45242   0.00000  Uiso   1.00
C277   C     0.88478   0.58565   0.02247   0.00000  Uiso   1.00
C278   C     0.78190   0.41435   0.47753   0.00000  Uiso   1.00
C279   C     0.88425   0.58727   0.47568   0.00000  Uiso   1.00
C280   C     0.78243   0.41272   0.02432   0.00000  Uiso   1.00
H281   H     0.87975   0.57449   0.11080   0.00000  Uiso   1.00
H282   H     0.78692   0.42550   0.38920   0.00000  Uiso   1.00
H283   H     0.90359   0.61880   0.04054   0.00000  Uiso   1.00
H284   H     0.76310   0.38119   0.45946   0.00000  Uiso   1.00
C285   C     0.85661   0.65273   0.24816   0.00000  Uiso   1.00
C286   C     0.81005   0.34727   0.25184   0.00000  Uiso   1.00
N287   N     0.98344   0.48598   0.23783   0.00000  Uiso   1.00
N288   N     0.68322   0.51402   0.26217   0.00000  Uiso   1.00
H289   H     0.78305   0.42723   0.11464   0.00000  Uiso   1.00
H290   H     0.88362   0.57277   0.38536   0.00000  Uiso   1.00
N291   N     0.90684   0.63381   0.45279   0.00000  Uiso   1.00
O292   O     0.95306   0.65893   0.46582   0.00000  Uiso   1.00
O293   O     0.87570   0.65645   0.42528   0.00000  Uiso   1.00
N294   N     0.75986   0.36617   0.04721   0.00000  Uiso   1.00
O295   O     0.71367   0.34103   0.03416   0.00000  Uiso   1.00
O296   O     0.79100   0.34356   0.07473   0.00000  Uiso   1.00
H297   H     0.90060   0.33640   0.24463   0.00000  Uiso   1.00
H298   H     0.76607   0.66360   0.25537   0.00000  Uiso   1.00
H299   H     0.67124   0.46081   0.21599   0.00000  Uiso   1.00
H300   H     0.99542   0.53919   0.28401   0.00000  Uiso   1.00
O301   O     0.12975   0.91286   0.25299   0.00000  Uiso   1.00
O302   O     0.20358   0.75381   0.24701   0.00000  Uiso   1.00
O303   O     0.22613   0.90387   0.24519   0.00000  Uiso   1.00
O304   O     0.10720   0.76279   0.25481   0.00000  Uiso   1.00
C305   C     0.18191   0.93156   0.24883   0.00000  Uiso   1.00
C306   C     0.15142   0.73511   0.25117   0.00000  Uiso   1.00
O307   O     0.11847   0.83784   0.31997   0.00000  Uiso   1.00
O308   O     0.21486   0.82883   0.18002   0.00000  Uiso   1.00
O309   O     0.21485   0.82885   0.31217   0.00000  Uiso   1.00
O310   O     0.11848   0.83781   0.18783   0.00000  Uiso   1.00
C311   C     0.16730   0.83322   0.33638   0.00000  Uiso   1.00
C312   C     0.16603   0.83345   0.16362   0.00000  Uiso   1.00
Zn313  Zn    0.10231   0.83933   0.25521   0.00000  Uiso   1.00
Zn314  Zn    0.23102   0.82734   0.24479   0.00000  Uiso   1.00
C315   C     0.13813   0.79155   0.09445   0.00000  Uiso   1.00
C316   C     0.19521   0.87512   0.40555   0.00000  Uiso   1.00
C317   C     0.16489   0.83382   0.11608   0.00000  Uiso   1.00
C318   C     0.16845   0.83285   0.38392   0.00000  Uiso   1.00
C319   C     0.19262   0.87552   0.09264   0.00000  Uiso   1.00
C320   C     0.14072   0.79115   0.40736   0.00000  Uiso   1.00
C321   C     0.19277   0.87596   0.04617   0.00000  Uiso   1.00
C322   C     0.14057   0.79071   0.45383   0.00000  Uiso   1.00
C323   C     0.16655   0.83302   0.02340   0.00000  Uiso   1.00
C324   C     0.16679   0.83364   0.47660   0.00000  Uiso   1.00
C325   C     0.14020   0.78955   0.04758   0.00000  Uiso   1.00
C326   C     0.19314   0.87711   0.45242   0.00000  Uiso   1.00
C327   C     0.21811   0.91898   0.02247   0.00000  Uiso   1.00
C328   C     0.11523   0.74768   0.47753   0.00000  Uiso   1.00
C329   C     0.21759   0.92060   0.47568   0.00000  Uiso   1.00
C330   C     0.11577   0.74606   0.02432   0.00000  Uiso   1.00
H331   H     0.21309   0.90783   0.11080   0.00000  Uiso   1.00
H332   H     0.12025   0.75884   0.38920   0.00000  Uiso   1.00
H333   H     0.23692   0.95213   0.04054   0.00000  Uiso   1.00
H334   H     0.09643   0.71453   0.45946   0.00000  Uiso   1.00
C335   C     0.18995   0.98606   0.24816   0.00000  Uiso   1.00
C336   C     0.14339   0.68060   0.25184   0.00000  Uiso   1.00
N337   N     0.31678   0.81932   0.23783   0.00000  Uiso   1.00
N338   N     0.01656   0.84735   0.26217   0.00000  Uiso   1.00
H339   H     0.11638   0.76057   0.11464   0.00000  Uiso   1.00
H340   H     0.21696   0.90610   0.38536   0.00000  Uiso   1.00
N341   N     0.24017   0.96714   0.45279   0.00000  Uiso   1.00
O342   O     0.28639   0.99226   0.46582   0.00000  Uiso   1.00
O343   O     0.20904   0.98978   0.42528   0.00000  Uiso   1.00
N344   N     0.09319   0.69951   0.04721   0.00000  Uiso   1.00
O345   O     0.04700   0.67436   0.03416   0.00000  Uiso   1.00
O346   O     0.12433   0.67690   0.07473   0.00000  Uiso   1.00
H347   H     0.23393   0.66973   0.24463   0.00000  Uiso   1.00
H348   H     0.09940   0.99694   0.25537   0.00000  Uiso   1.00
H349   H     0.00458   0.79414   0.21599   0.00000  Uiso   1.00
H350   H     0.32876   0.87252   0.28401   0.00000  Uiso   1.00
O351   O     0.46308   0.91286   0.25299   0.00000  Uiso   1.00
O352   O     0.53692   0.75381   0.24701   0.00000  Uiso   1.00
O353   O     0.55946   0.90387   0.24519   0.00000  Uiso   1.00
O354   O     0.44054   0.76279   0.25481   0.00000  Uiso   1.00
C355   C     0.51524   0.93156   0.24883   0.00000  Uiso   1.00
C356   C     0.48476   0.73511   0.25117   0.00000  Uiso   1.00
O357   O     0.45181   0.83784   0.31997   0.00000  Uiso   1.00
O358   O     0.54819   0.82883   0.18002   0.00000  Uiso   1.00
O359   O     0.54819   0.82885   0.31217   0.00000  Uiso   1.00
O360   O     0.45181   0.83781   0.18783   0.00000  Uiso   1.00
C361   C     0.50063   0.83322   0.33638   0.00000  Uiso   1.00
C362   C     0.49937   0.83345   0.16362   0.00000  Uiso   1.00
Zn363  Zn    0.43565   0.83933   0.25521   0.00000  Uiso   1.00
Zn364  Zn    0.56435   0.82734   0.24479   0.00000  Uiso   1.00
C365   C     0.47146   0.79155   0.09445   0.00000  Uiso   1.00
C366   C     0.52854   0.87512   0.40555   0.00000  Uiso   1.00
C367   C     0.49822   0.83382   0.11608   0.00000  Uiso   1.00
C368   C     0.50178   0.83285   0.38392   0.00000  Uiso   1.00
C369   C     0.52595   0.87552   0.09264   0.00000  Uiso   1.00
C370   C     0.47405   0.79115   0.40736   0.00000  Uiso   1.00
C371   C     0.52611   0.87596   0.04617   0.00000  Uiso   1.00
C372   C     0.47390   0.79071   0.45383   0.00000  Uiso   1.00
C373   C     0.49989   0.83302   0.02340   0.00000  Uiso   1.00
C374   C     0.50012   0.83364   0.47660   0.00000  Uiso   1.00
C375   C     0.47353   0.78955   0.04758   0.00000  Uiso   1.00
C376   C     0.52648   0.87711   0.45242   0.00000  Uiso   1.00
C377   C     0.55145   0.91898   0.02247   0.00000  Uiso   1.00
C378   C     0.44857   0.74768   0.47753   0.00000  Uiso   1.00
C379   C     0.55092   0.92060   0.47568   0.00000  Uiso   1.00
C380   C     0.44910   0.74606   0.02432   0.00000  Uiso   1.00
H381   H     0.54642   0.90783   0.11080   0.00000  Uiso   1.00
H382   H     0.45359   0.75884   0.38920   0.00000  Uiso   1.00
H383   H     0.57026   0.95213   0.04054   0.00000  Uiso   1.00
H384   H     0.42976   0.71453   0.45946   0.00000  Uiso   1.00
C385   C     0.52328   0.98606   0.24816   0.00000  Uiso   1.00
C386   C     0.47672   0.68060   0.25184   0.00000  Uiso   1.00
N387   N     0.65011   0.81932   0.23783   0.00000  Uiso   1.00
N388   N     0.34989   0.84735   0.26217   0.00000  Uiso   1.00
H389   H     0.44971   0.76057   0.11464   0.00000  Uiso   1.00
H390   H     0.55029   0.90610   0.38536   0.00000  Uiso   1.00
N391   N     0.57351   0.96714   0.45279   0.00000  Uiso   1.00
O392   O     0.61973   0.99226   0.46582   0.00000  Uiso   1.00
O393   O     0.54237   0.98978   0.42528   0.00000  Uiso   1.00
N394   N     0.42653   0.69951   0.04721   0.00000  Uiso   1.00
O395   O     0.38034   0.67436   0.03416   0.00000  Uiso   1.00
O396   O     0.45766   0.67690   0.07473   0.00000  Uiso   1.00
H397   H     0.56726   0.66973   0.24463   0.00000  Uiso   1.00
H398   H     0.43274   0.99694   0.25537   0.00000  Uiso   1.00
H399   H     0.33791   0.79414   0.21599   0.00000  Uiso   1.00
H400   H     0.66209   0.87252   0.28401   0.00000  Uiso   1.00
O401   O     0.79642   0.91286   0.25299   0.00000  Uiso   1.00
O402   O     0.87025   0.75381   0.24701   0.00000  Uiso   1.00
O403   O     0.89280   0.90387   0.24519   0.00000  Uiso   1.00
O404   O     0.77387   0.76279   0.25481   0.00000  Uiso   1.00
C405   C     0.84858   0.93156   0.24883   0.00000  Uiso   1.00
C406   C     0.81809   0.73511   0.25117   0.00000  Uiso   1.00
O407   O     0.78514   0.83784   0.31997   0.00000  Uiso   1.00
O408   O     0.88153   0.82883   0.18002   0.00000  Uiso   1.00
O409   O     0.88152   0.82885   0.31217   0.00000  Uiso   1.00
O410   O     0.78515   0.83781   0.18783   0.00000  Uiso   1.00
C411   C     0.83397   0.83322   0.33638   0.00000  Uiso   1.00
C412   C     0.83270   0.83345   0.16362   0.00000  Uiso   1.00
Zn413  Zn    0.76898   0.83933   0.25521   0.00000  Uiso   1.00
Zn414  Zn    0.89769   0.82734   0.24479   0.00000  Uiso   1.00
C415   C     0.80479   0.79155   0.09445   0.00000  Uiso   1.00
C416   C     0.86188   0.87512   0.40555   0.00000  Uiso   1.00
C417   C     0.83155   0.83382   0.11608   0.00000  Uiso   1.00
C418   C     0.83511   0.83285   0.38392   0.00000  Uiso   1.00
C419   C     0.85928   0.87552   0.09264   0.00000  Uiso   1.00
C420   C     0.80739   0.79115   0.40736   0.00000  Uiso   1.00
C421   C     0.85944   0.87596   0.04617   0.00000  Uiso   1.00
C422   C     0.80723   0.79071   0.45383   0.00000  Uiso   1.00
C423   C     0.83322   0.83302   0.02340   0.00000  Uiso   1.00
C424   C     0.83346   0.83364   0.47660   0.00000  Uiso   1.00
C425   C     0.80687   0.78955   0.04758   0.00000  Uiso   1.00
C426   C     0.85981   0.87711   0.45242   0.00000  Uiso   1.00
C427   C     0.88478   0.91898   0.02247   0.00000  Uiso   1.00
C428   C     0.78190   0.74768   0.47753   0.00000  Uiso   1.00
C429   C     0.88425   0.92060   0.47568   0.00000  Uiso   1.00
C430   C     0.78243   0.74606   0.02432   0.00000  Uiso   1.00
H431   H     0.87975   0.90783   0.11080   0.00000  Uiso   1.00
H432   H     0.78692   0.75884   0.38920   0.00000  Uiso   1.00
H433   H     0.90359   0.95213   0.04054   0.00000  Uiso   1.00
H434   H     0.76310   0.71453   0.45946   0.00000  Uiso   1.00
C435   C     0.85661   0.98606   0.24816   0.00000  Uiso   1.00
C436   C     0.81005   0.68060   0.25184   0.00000  Uiso   1.00
N437   N     0.98344   0.81932   0.23783   0.00000  Uiso   1.00
N438   N     0.68322   0.84735   0.26217   0.00000  Uiso   1.00
H439   H     0.78305   0.76057   0.11464   0.00000  Uiso   1.00
H440   H     0.88362   0.90610   0.38536   0.00000  Uiso   1.00
N441   N     0.90684   0.96714   0.45279   0.00000  Uiso   1.00
O442   O     0.95306   0.99226   0.46582   0.00000  Uiso   1.00
O443   O     0.87570   0.98978   0.42528   0.00000  Uiso   1.00
N444   N     0.75986   0.69951   0.04721   0.00000  Uiso   1.00
O445   O     0.71367   0.67436   0.03416   0.00000  Uiso   1.00
O446   O     0.79100   0.67690   0.07473   0.00000  Uiso   1.00
H447   H     0.90060   0.66973   0.24463   0.00000  Uiso   1.00
H448   H     0.76607   0.99694   0.25537   0.00000  Uiso   1.00
H449   H     0.67124   0.79414   0.21599   0.00000  Uiso   1.00
H450   H     0.99542   0.87252   0.28401   0.00000  Uiso   1.00
O451   O     0.12975   0.24619   0.75299   0.00000  Uiso   1.00
O452   O     0.20358   0.08714   0.74701   0.00000  Uiso   1.00
O453   O     0.22613   0.23721   0.74519   0.00000  Uiso   1.00
O454   O     0.10720   0.09613   0.75481   0.00000  Uiso   1.00
C455   C     0.18191   0.26489   0.74883   0.00000  Uiso   1.00
C456   C     0.15142   0.06844   0.75117   0.00000  Uiso   1.00
O457   O     0.11847   0.17117   0.81997   0.00000  Uiso   1.00
O458   O     0.21486   0.16216   0.68002   0.00000  Uiso   1.00
O459   O     0.21485   0.16219   0.81217   0.00000  Uiso   1.00
O460   O     0.11848   0.17115   0.68783   0.00000  Uiso   1.00
C461   C     0.16730   0.16655   0.83638   0.00000  Uiso   1.00
C462   C     0.16603   0.16679   0.66362   0.00000  Uiso   1.00
Zn463  Zn    0.10231   0.17266   0.75521   0.00000  Uiso   1.00
Zn464  Zn    0.23102   0.16067   0.74479   0.00000  Uiso   1.00
C465   C     0.13813   0.12488   0.59445   0.00000  Uiso   1.00
C466   C     0.19521   0.20845   0.90555   0.00000  Uiso   1.00
C467   C     0.16489   0.16715   0.61608   0.00000  Uiso   1.00
C468   C     0.16845   0.16618   0.88392   0.00000  Uiso   1.00
C469   C     0.19262   0.20885   0.59264   0.00000  Uiso   1.00
C470   C     0.14072   0.12448   0.90736   0.00000  Uiso   1.00
C471   C     0.19277   0.20929   0.54617   0.00000  Uiso   1.00
C472   C     0.14057   0.12404   0.95383   0.00000  Uiso   1.00
C473   C     0.16655   0.16636   0.52340   0.00000  Uiso   1.00
C474   C     0.16679   0.16697   0.97660   0.00000  Uiso   1.00
C475   C     0.14020   0.12289   0.54758   0.00000  Uiso   1.00
C476   C     0.19314   0.21044   0.95242   0.00000  Uiso   1.00
C477   C     0.21811   0.25231   0.52247   0.00000  Uiso   1.00
C478   C     0.11523   0.08101   0.97753   0.00000  Uiso   1.00
C479   C     0.21759   0.25393   0.97568   0.00000  Uiso   1.00
C480   C     0.11577   0.07939   0.52432   0.00000  Uiso   1.00
H481   H     0.21309   0.24116   0.61080   0.00000  Uiso   1.00
H482   H     0.12025   0.09217   0.88920   0.00000  Uiso   1.00
H483   H     0.23692   0.28547   0.54054   0.00000  Uiso   1.00
H484   H     0.09643   0.04786   0.95946   0.00000  Uiso   1.00
C485   C     0.18995   0.31940   0.74816   0.00000  Uiso   1.00
C486   C     0.14339   0.01394   0.75184   0.00000  Uiso   1.00
N487   N     0.31678   0.15265   0.73783   0.00000  Uiso   1.00
N488   N     0.01656   0.18068   0.76217   0.00000  Uiso   1.00
H489   H     0.11638   0.09390   0.61464   0.00000  Uiso   1.00
H490   H     0.21696   0.23943   0.88536   0.00000  Uiso   1.00
N491   N     0.24017   0.30048   0.95279   0.00000  Uiso   1.00
O492   O     0.28639   0.32559   0.96582   0.00000  Uiso   1.00
O493   O     0.20904   0.32311   0.92528   0.00000  Uiso   1.00
N494   N     0.09319   0.03284   0.54721   0.00000  Uiso   1.00
O495   O     0.04700   0.00769   0.53416   0.00000  Uiso   1.00
O496   O     0.12433   0.01023   0.57473   0.00000  Uiso   1.00
H497   H     0.23393   0.00306   0.74463   0.00000  Uiso   1.00
H498   H     0.09940   0.33027   0.75537   0.00000  Uiso   1.00
H499   H     0.00458   0.12748   0.71599   0.00000  Uiso   1.00
H500   H     0.32876   0.20586   0.78401   0.00000  Uiso   1.00
O501   O     0.46308   0.24619   0.75299   0.00000  Uiso   1.00
O502   O     0.53692   0.08714   0.74701   0.00000  Uiso   1.00
O503   O     0.55946   0.23721   0.74519   0.00000  Uiso   1.00
O504   O     0.44054   0.09613   0.75481   0.00000  Uiso   1.00
C505   C     0.51524   0.26489   0.74883   0.00000  Uiso   1.00
C506   C     0.48476   0.06844   0.75117   0.00000  Uiso   1.00
O507   O     0.45181   0.17117   0.81997   0.00000  Uiso   1.00
O508   O     0.54819   0.16216   0.68002   0.00000  Uiso   1.00
O509   O     0.54819   0.16219   0.81217   0.00000  Uiso   1.00
O510   O     0.45181   0.17115   0.68783   0.00000  Uiso   1.00
C511   C     0.50063   0.16655   0.83638   0.00000  Uiso   1.00
C512   C     0.49937   0.16679   0.66362   0.00000  Uiso   1.00
Zn513  Zn    0.43565   0.17266   0.75521   0.00000  Uiso   1.00
Zn514  Zn    0.56435   0.16067   0.74479   0.00000  Uiso   1.00
C515   C     0.47146   0.12488   0.59445   0.00000  Uiso   1.00
C516   C     0.52854   0.20845   0.90555   0.00000  Uiso   1.00
C517   C     0.49822   0.16715   0.61608   0.00000  Uiso   1.00
C518   C     0.50178   0.16618   0.88392   0.00000  Uiso   1.00
C519   C     0.52595   0.20885   0.59264   0.00000  Uiso   1.00
C520   C     0.47405   0.12448   0.90736   0.00000  Uiso   1.00
C521   C     0.52611   0.20929   0.54617   0.00000  Uiso   1.00
C522   C     0.47390   0.12404   0.95383   0.00000  Uiso   1.00
C523   C     0.49989   0.16636   0.52340   0.00000  Uiso   1.00
C524   C     0.50012   0.16697   0.97660   0.00000  Uiso   1.00
C525   C     0.47353   0.12289   0.54758   0.00000  Uiso   1.00
C526   C     0.52648   0.21044   0.95242   0.00000  Uiso   1.00
C527   C     0.55145   0.25231   0.52247   0.00000  Uiso   1.00
C528   C     0.44857   0.08101   0.97753   0.00000  Uiso   1.00
C529   C     0.55092   0.25393   0.97568   0.00000  Uiso   1.00
C530   C     0.44910   0.07939   0.52432   0.00000  Uiso   1.00
H531   H     0.54642   0.24116   0.61080   0.00000  Uiso   1.00
H532   H     0.45359   0.09217   0.88920   0.00000  Uiso   1.00
H533   H     0.57026   0.28547   0.54054   0.00000  Uiso   1.00
H534   H     0.42976   0.04786   0.95946   0.00000  Uiso   1.00
C535   C     0.52328   0.31940   0.74816   0.00000  Uiso   1.00
C536   C     0.47672   0.01394   0.75184   0.00000  Uiso   1.00
N537   N     0.65011   0.15265   0.73783   0.00000  Uiso   1.00
N538   N     0.34989   0.18068   0.76217   0.00000  Uiso   1.00
H539   H     0.44971   0.09390   0.61464   0.00000  Uiso   1.00
H540   H     0.55029   0.23943   0.88536   0.00000  Uiso   1.00
N541   N     0.57351   0.30048   0.95279   0.00000  Uiso   1.00
O542   O     0.61973   0.32559   0.96582   0.00000  Uiso   1.00
O543   O     0.54237   0.32311   0.92528   0.00000  Uiso   1.00
N544   N     0.42653   0.03284   0.54721   0.00000  Uiso   1.00
O545   O     0.38034   0.00769   0.53416   0.00000  Uiso   1.00
O546   O     0.45766   0.01023   0.57473   0.00000  Uiso   1.00
H547   H     0.56726   0.00306   0.74463   0.00000  Uiso   1.00
H548   H     0.43274   0.33027   0.75537   0.00000  Uiso   1.00
H549   H     0.33791   0.12748   0.71599   0.00000  Uiso   1.00
H550   H     0.66209   0.20586   0.78401   0.00000  Uiso   1.00
O551   O     0.79642   0.24619   0.75299   0.00000  Uiso   1.00
O552   O     0.87025   0.08714   0.74701   0.00000  Uiso   1.00
O553   O     0.89280   0.23721   0.74519   0.00000  Uiso   1.00
O554   O     0.77387   0.09613   0.75481   0.00000  Uiso   1.00
C555   C     0.84858   0.26489   0.74883   0.00000  Uiso   1.00
C556   C     0.81809   0.06844   0.75117   0.00000  Uiso   1.00
O557   O     0.78514   0.17117   0.81997   0.00000  Uiso   1.00
O558   O     0.88153   0.16216   0.68002   0.00000  Uiso   1.00
O559   O     0.88152   0.16219   0.81217   0.00000  Uiso   1.00
O560   O     0.78515   0.17115   0.68783   0.00000  Uiso   1.00
C561   C     0.83397   0.16655   0.83638   0.00000  Uiso   1.00
C562   C     0.83270   0.16679   0.66362   0.00000  Uiso   1.00
Zn563  Zn    0.76898   0.17266   0.75521   0.00000  Uiso   1.00
Zn564  Zn    0.89769   0.16067   0.74479   0.00000  Uiso   1.00
C565   C     0.80479   0.12488   0.59445   0.00000  Uiso   1.00
C566   C     0.86188   0.20845   0.90555   0.00000  Uiso   1.00
C567   C     0.83155   0.16715   0.61608   0.00000  Uiso   1.00
C568   C     0.83511   0.16618   0.88392   0.00000  Uiso   1.00
C569   C     0.85928   0.20885   0.59264   0.00000  Uiso   1.00
C570   C     0.80739   0.12448   0.90736   0.00000  Uiso   1.00
C571   C     0.85944   0.20929   0.54617   0.00000  Uiso   1.00
C572   C     0.80723   0.12404   0.95383   0.00000  Uiso   1.00
C573   C     0.83322   0.16636   0.52340   0.00000  Uiso   1.00
C574   C     0.83346   0.16697   0.97660   0.00000  Uiso   1.00
C575   C     0.80687   0.12289   0.54758   0.00000  Uiso   1.00
C576   C     0.85981   0.21044   0.95242   0.00000  Uiso   1.00
C577   C     0.88478   0.25231   0.52247   0.00000  Uiso   1.00
C578   C     0.78190   0.08101   0.97753   0.00000  Uiso   1.00
C579   C     0.88425   0.25393   0.97568   0.00000  Uiso   1.00
C580   C     0.78243   0.07939   0.52432   0.00000  Uiso   1.00
H581   H     0.87975   0.24116   0.61080   0.00000  Uiso   1.00
H582   H     0.78692   0.09217   0.88920   0.00000  Uiso   1.00
H583   H     0.90359   0.28547   0.54054   0.00000  Uiso   1.00
H584   H     0.76310   0.04786   0.95946   0.00000  Uiso   1.00
C585   C     0.85661   0.31940   0.74816   0.00000  Uiso   1.00
C586   C     0.81005   0.01394   0.75184   0.00000  Uiso   1.00
N587   N     0.98344   0.15265   0.73783   0.00000  Uiso   1.00
N588   N     0.68322   0.18068   0.76217   0.00000  Uiso   1.00
H589   H     0.78305   0.09390   0.61464   0.00000  Uiso   1.00
H590   H     0.88362   0.23943   0.88536   0.00000  Uiso   1.00
N591   N     0.90684   0.30048   0.95279   0.00000  Uiso   1.00
O592   O     0.95306   0.32559   0.96582   0.00000  Uiso   1.00
O593   O     0.87570   0.32311   0.92528   0.00000  Uiso   1.00
N594   N     0.75986   0.03284   0.54721   0.00000  Uiso   1.00
O595   O     0.71367   0.00769   0.53416   0.00000  Uiso   1.00
O596   O     0.79100   0.01023   0.57473   0.00000  Uiso   1.00
H597   H     0.90060   0.00306   0.74463   0.00000  Uiso   1.00
H598   H     0.76607   0.33027   0.75537   0.00000  Uiso   1.00
H599   H     0.67124   0.12748   0.71599   0.00000  Uiso   1.00
H600   H     0.99542   0.20586   0.78401   0.00000  Uiso   1.00
O601   O     0.12975   0.57952   0.75299   0.00000  Uiso   1.00
O602   O     0.20358   0.42048   0.74701   0.00000  Uiso   1.00
O603   O     0.22613   0.57054   0.74519   0.00000  Uiso   1.00
O604   O     0.10720   0.42946   0.75481   0.00000  Uiso   1.00
C605   C     0.18191   0.59823   0.74883   0.00000  Uiso   1.00
C606   C     0.15142   0.40177   0.75117   0.00000  Uiso   1.00
O607   O     0.11847   0.50450   0.81997   0.00000  Uiso   1.00
O608   O     0.21486   0.49550   0.68002   0.00000  Uiso   1.00
O609   O     0.21485   0.49552   0.81217   0.00000  Uiso   1.00
O610   O     0.11848   0.50448   0.68783   0.00000  Uiso   1.00
C611   C     0.16730   0.49988   0.83638   0.00000  Uiso   1.00
C612   C     0.16603   0.50012   0.66362   0.00000  Uiso   1.00
Zn613  Zn    0.10231   0.50600   0.75521   0.00000  Uiso   1.00
Zn614  Zn    0.23102   0.49400   0.74479   0.00000  Uiso   1.00
C615   C     0.13813   0.45821   0.59445   0.00000  Uiso   1.00
C616   C     0.19521   0.54178   0.90555   0.00000  Uiso   1.00
C617   C     0.16489   0.50048   0.61608   0.00000  Uiso   1.00
C618   C     0.16845   0.49952   0.88392   0.00000  Uiso   1.00
C619   C     0.19262   0.54218   0.59264   0.00000  Uiso   1.00
C620   C     0.14072   0.45782   0.90736   0.00000  Uiso   1.00
C621   C     0.19277   0.54262   0.54617   0.00000  Uiso   1.00
C622   C     0.14057   0.45737   0.95383   0.00000  Uiso   1.00
C623   C     0.16655   0.49969   0.52340   0.00000  Uiso   1.00
C624   C     0.16679   0.50031   0.97660   0.00000  Uiso   1.00
C625   C     0.14020   0.45622   0.54758   0.00000  Uiso   1.00
C626   C     0.19314   0.54378   0.95242   0.00000  Uiso   1.00
C627   C     0.21811   0.58565   0.52247   0.00000  Uiso   1.00
C628   C     0.11523   0.41435   0.97753   0.00000  Uiso   1.00
C629   C     0.21759   0.58727   0.97568   0.00000  Uiso   1.00
C630   C     0.11577   0.41272   0.52432   0.00000  Uiso   1.00
H631   H     0.21309   0.57449   0.61080   0.00000  Uiso   1.00
H632   H     0.12025   0.42550   0.88920   0.00000  Uiso   1.00
H633   H     0.23692   0.61880   0.54054   0.00000  Uiso   1.00
H634   H     0.09643   0.38119   0.95946   0.00000  Uiso   1.00
C635   C     0.18995   0.65273   0.74816   0.00000  Uiso   1.00
C636   C     0.14339   0.34727   0.75184   0.00000  Uiso   1.00
N637   N     0.31678   0.48598   0.73783   0.00000  Uiso   1.00
N638   N     0.01656   0.51402   0.76217   0.00000  Uiso   1.00
H639   H     0.11638   0.42723   0.61464   0.00000  Uiso   1.00
H640   H     0.21696   0.57277   0.88536   0.00000  Uiso   1.00
N641   N     0.24017   0.63381   0.95279   0.00000  Uiso   1.00
O642   O     0.28639   0.65893   0.96582   0.00000  Uiso   1.00
O643   O     0.20904   0.65645   0.92528   0.00000  Uiso   1.00
N644   N     0.09319   0.36617   0.54721   0.00000  Uiso   1.00
O645   O     0.04700   0.34103   0.53416   0.00000  Uiso   1.00
O646   O     0.12433   0.34356   0.57473   0.00000  Uiso   1.00
H647   H     0.23393   0.33640   0.74463   0.00000  Uiso   1.00
H648   H     0.09940   0.66360   0.75537   0.00000  Uiso   1.00
H649   H     0.00458   0.46081   0.71599   0.00000  Uiso   1.00
H650   H     0.32876   0.53919   0.78401   0.00000  Uiso   1.00
O651   O     0.46308   0.57952   0.75299   0.00000  Uiso   1.00
O652   O     0.53692   0.42048   0.74701   0.00000  Uiso   1.00
O653   O     0.55946   0.57054   0.74519   0.00000  Uiso   1.00
O654   O     0.44054   0.42946   0.75481   0.00000  Uiso   1.00
C655   C     0.51524   0.59823   0.74883   0.00000  Uiso   1.00
C656   C     0.48476   0.40177   0.75117   0.00000  Uiso   1.00
O657   O     0.45181   0.50450   0.81997   0.00000  Uiso   1.00
O658   O     0.54819   0.49550   0.68002   0.00000  Uiso   1.00
O659   O     0.54819   0.49552   0.81217   0.00000  Uiso   1.00
O660   O     0.45181   0.50448   0.68783   0.00000  Uiso   1.00
C661   C     0.50063   0.49988   0.83638   0.00000  Uiso   1.00
C662   C     0.49937   0.50012   0.66362   0.00000  Uiso   1.00
Zn663  Zn    0.43565   0.50600   0.75521   0.00000  Uiso   1.00
Zn664  Zn    0.56435   0.49400   0.74479   0.00000  Uiso   1.00
C665   C     0.47146   0.45821   0.59445   0.00000  Uiso   1.00
C666   C     0.52854   0.54178   0.90555   0.00000  Uiso   1.00
C667   C     0.49822   0.50048   0.61608   0.00000  Uiso   1.00
C668   C     0.50178   0.49952   0.88392   0.00000  Uiso   1.00
C669   C     0.52595   0.54218   0.59264   0.00000  Uiso   1.00
C670   C     0.47405   0.45782   0.90736   0.00000  Uiso   1.00
C671   C     0.52611   0.54262   0.54617   0.00000  Uiso   1.00
C672   C     0.47390   0.45737   0.95383   0.00000  Uiso   1.00
C673   C     0.49989   0.49969   0.52340   0.00000  Uiso   1.00
C674   C     0.50012   0.50031   0.97660   0.00000  Uiso   1.00
C675   C     0.47353   0.45622   0.54758   0.00000  Uiso   1.00
C676   C     0.52648   0.54378   0.95242   0.00000  Uiso   1.00
C677   C     0.55145   0.58565   0.52247   0.00000  Uiso   1.00
C678   C     0.44857   0.41435   0.97753   0.00000  Uiso   1.00
C679   C     0.55092   0.58727   0.97568   0.00000  Uiso   1.00
C680   C     0.44910   0.41272   0.52432   0.00000  Uiso   1.00
H681   H     0.54642   0.57449   0.61080   0.00000  Uiso   1.00
H682   H     0.45359   0.42550   0.88920   0.00000  Uiso   1.00
H683   H     0.57026   0.61880   0.54054   0.00000  Uiso   1.00
H684   H     0.42976   0.38119   0.95946   0.00000  Uiso   1.00
C685   C     0.52328   0.65273   0.74816   0.00000  Uiso   1.00
C686   C     0.47672   0.34727   0.75184   0.00000  Uiso   1.00
N687   N     0.65011   0.48598   0.73783   0.00000  Uiso   1.00
N688   N     0.34989   0.51402   0.76217   0.00000  Uiso   1.00
H689   H     0.44971   0.42723   0.61464   0.00000  Uiso   1.00
H690   H     0.55029   0.57277   0.88536   0.00000  Uiso   1.00
N691   N     0.57351   0.63381   0.95279   0.00000  Uiso   1.00
O692   O     0.61973   0.65893   0.96582   0.00000  Uiso   1.00
O693   O     0.54237   0.65645   0.92528   0.00000  Uiso   1.00
N694   N     0.42653   0.36617   0.54721   0.00000  Uiso   1.00
O695   O     0.38034   0.34103   0.53416   0.00000  Uiso   1.00
O696   O     0.45766   0.34356   0.57473   0.00000  Uiso   1.00
H697   H     0.56726   0.33640   0.74463   0.00000  Uiso   1.00
H698   H     0.43274   0.66360   0.75537   0.00000  Uiso   1.00
H699   H     0.33791   0.46081   0.71599   0.00000  Uiso   1.00
H700   H     0.66209   0.53919   0.78401   0.00000  Uiso   1.00
O701   O     0.79642   0.57952   0.75299   0.00000  Uiso   1.00
O702   O     0.87025   0.42048   0.74701   0.00000  Uiso   1.00
O703   O     0.89280   0.57054   0.74519   0.00000  Uiso   1.00
O704   O     0.77387   0.42946   0.75481   0.00000  Uiso   1.00
C705   C     0.84858   0.59823   0.74883   0.00000  Uiso   1.00
C706   C     0.81809   0.40177   0.75117   0.00000  Uiso   1.00
O707   O     0.78514   0.50450   0.81997   0.00000  Uiso   1.00
O708   O     0.88153   0.49550   0.68002   0.00000  Uiso   1.00
O709   O     0.88152   0.49552   0.81217   0.00000  Uiso   1.00
O710   O     0.78515   0.50448   0.68783   0.00000  Uiso   1.00
C711   C     0.83397   0.49988   0.83638   0.00000  Uiso   1.00
C712   C     0.83270   0.50012   0.66362   0.00000  Uiso   1.00
Zn713  Zn    0.76898   0.50600   0.75521   0.00000  Uiso   1.00
Zn714  Zn    0.89769   0.49400   0.74479   0.00000  Uiso   1.00
C715   C     0.80479   0.45821   0.59445   0.00000  Uiso   1.00
C716   C     0.86188   0.54178   0.90555   0.00000  Uiso   1.00
C717   C     0.83155   0.50048   0.61608   0.00000  Uiso   1.00
C718   C     0.83511   0.49952   0.88392   0.00000  Uiso   1.00
C719   C     0.85928   0.54218   0.59264   0.00000  Uiso   1.00
C720   C     0.80739   0.45782   0.90736   0.00000  Uiso   1.00
C721   C     0.85944   0.54262   0.54617   0.00000  Uiso   1.00
C722   C     0.80723   0.45737   0.95383   0.00000  Uiso   1.00
C723   C     0.83322   0.49969   0.52340   0.00000  Uiso   1.00
C724   C     0.83346   0.50031   0.97660   0.00000  Uiso   1.00
C725   C     0.80687   0.45622   0.54758   0.00000  Uiso   1.00
C726   C     0.85981   0.54378   0.95242   0.00000  Uiso   1.00
C727   C     0.88478   0.58565   0.52247   0.00000  Uiso   1.00
C728   C     0.78190   0.41435   0.97753   0.00000  Uiso   1.00
C729   C     0.88425   0.58727   0.97568   0.00000  Uiso   1.00
C730   C     0.78243   0.41272   0.52432   0.00000  Uiso   1.00
H731   H     0.87975   0.57449   0.61080   0.00000  Uiso   1.00
H732   H     0.78692   0.42550   0.88920   0.00000  Uiso   1.00
H733   H     0.90359   0.61880   0.54054   0.00000  Uiso   1.00
H734   H     0.76310   0.38119   0.95946   0.00000  Uiso   1.00
C735   C     0.85661   0.65273   0.74816   0.00000  Uiso   1.00
C736   C     0.81005   0.34727   0.75184   0.00000  Uiso   1.00
N737   N     0.98344   0.48598   0.73783   0.00000  Uiso   1.00
N738   N     0.68322   0.51402   0.76217   0.00000  Uiso   1.00
H739   H     0.78305   0.42723   0.61464   0.00000  Uiso   1.00
H740   H     0.88362   0.57277   0.88536   0.00000  Uiso   1.00
N741   N     0.90684   0.63381   0.95279   0.00000  Uiso   1.00
O742   O     0.95306   0.65893   0.96582   0.00000  Uiso   1.00
O743   O     0.87570   0.65645   0.92528   0.00000  Uiso   1.00
N744   N     0.75986   0.36617   0.54721   0.00000  Uiso   1.00
O745   O     0.71367   0.34103   0.53416   0.00000  Uiso   1.00
O746   O     0.79100   0.34356   0.57473   0.00000  Uiso   1.00
H747   H     0.90060   0.33640   0.74463   0.00000  Uiso   1.00
H748   H     0.76607   0.66360   0.75537   0.00000  Uiso   1.00
H749   H     0.67124   0.46081   0.71599   0.00000  Uiso   1.00
H750   H     0.99542   0.53919   0.78401   0.00000  Uiso   1.00
O751   O     0.12975   0.91286   0.75299   0.00000  Uiso   1.00
O752   O     0.20358   0.75381   0.74701   0.00000  Uiso   1.00
O753   O     0.22613   0.90387   0.74519   0.00000  Uiso   1.00
O754   O     0.10720   0.76279   0.75481   0.00000  Uiso   1.00
C755   C     0.18191   0.93156   0.74883   0.00000  Uiso   1.00
C756   C     0.15142   0.73511   0.75117   0.00000  Uiso   1.00
O757   O     0.11847   0.83784   0.81997   0.00000  Uiso   1.00
O758   O     0.21486   0.82883   0.68002   0.00000  Uiso   1.00
O759   O     0.21485   0.82885   0.81217   0.00000  Uiso   1.00
O760   O     0.11848   0.83781   0.68783   0.00000  Uiso   1.00
C761   C     0.16730   0.83322   0.83638   0.00000  Uiso   1.00
C762   C     0.16603   0.83345   0.66362   0.00000  Uiso   1.00
Zn763  Zn    0.10231   0.83933   0.75521   0.00000  Uiso   1.00
Zn764  Zn    0.23102   0.82734   0.74479   0.00000  Uiso   1.00
C765   C     0.13813   0.79155   0.59445   0.00000  Uiso   1.00
C766   C     0.19521   0.87512   0.90555   0.00000  Uiso   1.00
C767   C     0.16489   0.83382   0.61608   0.00000  Uiso   1.00
C768   C     0.16845   0.83285   0.88392   0.00000  Uiso   1.00
C769   C     0.19262   0.87552   0.59264   0.00000  Uiso   1.00
C770   C     0.14072   0.79115   0.90736   0.00000  Uiso   1.00
C771   C     0.19277   0.87596   0.54617   0.00000  Uiso   1.00
C772   C     0.14057   0.79071   0.95383   0.00000  Uiso   1.00
C773   C     0.16655   0.83302   0.52340   0.00000  Uiso   1.00
C774   C     0.16679   0.83364   0.97660   0.00000  Uiso   1.00
C775   C     0.14020   0.78955   0.54758   0.00000  Uiso   1.00
C776   C     0.19314   0.87711   0.95242   0.00000  Uiso   1.00
C777   C     0.21811   0.91898   0.52247   0.00000  Uiso   1.00
C778   C     0.11523   0.74768   0.97753   0.00000  Uiso   1.00
C779   C     0.21759   0.92060   0.97568   0.00000  Uiso   1.00
C780   C     0.11577   0.74606   0.52432   0.00000  Uiso   1.00
H781   H     0.21309   0.90783   0.61080   0.00000  Uiso   1.00
H782   H     0.12025   0.75884   0.88920   0.00000  Uiso   1.00
H783   H     0.23692   0.95213   0.54054   0.00000  Uiso   1.00
H784   H     0.09643   0.71453   0.95946   0.00000  Uiso   1.00
C785   C     0.18995   0.98606   0.74816   0.00000  Uiso   1.00
C786   C     0.14339   0.68060   0.75184   0.00000  Uiso   1.00
N787   N     0.31678   0.81932   0.73783   0.00000  Uiso   1.00
N788   N     0.01656   0.84735   0.76217   0.00000  Uiso   1.00
H789   H     0.11638   0.76057   0.61464   0.00000  Uiso   1.00
H790   H     0.21696   0.90610   0.88536   0.00000  Uiso   1.00
N791   N     0.24017   0.96714   0.95279   0.00000  Uiso   1.00
O792   O     0.28639   0.99226   0.96582   0.00000  Uiso   1.00
O793   O     0.20904   0.98978   0.92528   0.00000  Uiso   1.00
N794   N     0.09319   0.69951   0.54721   0.00000  Uiso   1.00
O795   O     0.04700   0.67436   0.53416   0.00000  Uiso   1.00
O796   O     0.12433   0.67690   0.57473   0.00000  Uiso   1.00
H797   H     0.23393   0.66973   0.74463   0.00000  Uiso   1.00
H798   H     0.09940   0.99694   0.75537   0.00000  Uiso   1.00
H799   H     0.00458   0.79414   0.71599   0.00000  Uiso   1.00
H800   H     0.32876   0.87252   0.78401   0.00000  Uiso   1.00
O801   O     0.46308   0.91286   0.75299   0.00000  Uiso   1.00
O802   O     0.53692   0.75381   0.74701   0.00000  Uiso   1.00
O803   O     0.55946   0.90387   0.74519   0.00000  Uiso   1.00
O804   O     0.44054   0.76279   0.75481   0.00000  Uiso   1.00
C805   C     0.51524   0.93156   0.74883   0.00000  Uiso   1.00
C806   C     0.48476   0.73511   0.75117   0.00000  Uiso   1.00
O807   O     0.45181   0.83784   0.81997   0.00000  Uiso   1.00
O808   O     0.54819   0.82883   0.68002   0.00000  Uiso   1.00
O809   O     0.54819   0.82885   0.81217   0.00000  Uiso   1.00
O810   O     0.45181   0.83781   0.68783   0.00000  Uiso   1.00
C811   C     0.50063   0.83322   0.83638   0.00000  Uiso   1.00
C812   C     0.49937   0.83345   0.66362   0.00000  Uiso   1.00
Zn813  Zn    0.43565   0.83933   0.75521   0.00000  Uiso   1.00
Zn814  Zn    0.56435   0.82734   0.74479   0.00000  Uiso   1.00
C815   C     0.47146   0.79155   0.59445   0.00000  Uiso   1.00
C816   C     0.52854   0.87512   0.90555   0.00000  Uiso   1.00
C817   C     0.49822   0.83382   0.61608   0.00000  Uiso   1.00
C818   C     0.50178   0.83285   0.88392   0.00000  Uiso   1.00
C819   C     0.52595   0.87552   0.59264   0.00000  Uiso   1.00
C820   C     0.47405   0.79115   0.90736   0.00000  Uiso   1.00
C821   C     0.52611   0.87596   0.54617   0.00000  Uiso   1.00
C822   C     0.47390   0.79071   0.95383   0.00000  Uiso   1.00
C823   C     0.49989   0.83302   0.52340   0.00000  Uiso   1.00
C824   C     0.50012   0.83364   0.97660   0.00000  Uiso   1.00
C825   C     0.47353   0.78955   0.54758   0.00000  Uiso   1.00
C826   C     0.52648   0.87711   0.95242   0.00000  Uiso   1.00
C827   C     0.55145   0.91898   0.52247   0.00000  Uiso   1.00
C828   C     0.44857   0.74768   0.97753   0.00000  Uiso   1.00
C829   C     0.55092   0.92060   0.97568   0.00000  Uiso   1.00
C830   C     0.44910   0.74606   0.52432   0.00000  Uiso   1.00
H831   H     0.54642   0.90783   0.61080   0.00000  Uiso   1.00
H832   H     0.45359   0.75884   0.88920   0.00000  Uiso   1.00
H833   H     0.57026   0.95213   0.54054   0.00000  Uiso   1.00
H834   H     0.42976   0.71453   0.95946   0.00000  Uiso   1.00
C835   C     0.52328   0.98606   0.74816   0.00000  Uiso   1.00
C836   C     0.47672   0.68060   0.75184   0.00000  Uiso   1.00
N837   N     0.65011   0.81932   0.73783   0.00000  Uiso   1.00
N838   N     0.34989   0.84735   0.76217   0.00000  Uiso   1.00
H839   H     0.44971   0.76057   0.61464   0.00000  Uiso   1.00
H840   H     0.55029   0.90610   0.88536   0.00000  Uiso   1.00
N841   N     0.57351   0.96714   0.95279   0.00000  Uiso   1.00
O842   O     0.61973   0.99226   0.96582   0.00000  Uiso   1.00
O843   O     0.54237   0.98978   0.92528   0.00000  Uiso   1.00
N844   N     0.42653   0.69951   0.54721   0.00000  Uiso   1.00
O845   O     0.38034   0.67436   0.53416   0.00000  Uiso   1.00
O846   O     0.45766   0.67690   0.57473   0.00000  Uiso   1.00
H847   H     0.56726   0.66973   0.74463   0.00000  Uiso   1.00
H848   H     0.43274   0.99694   0.75537   0.00000  Uiso   1.00
H849   H     0.33791   0.79414   0.71599   0.00000  Uiso   1.00
H850   H     0.66209   0.87252   0.78401   0.00000  Uiso   1.00
O851   O     0.79642   0.91286   0.75299   0.00000  Uiso   1.00
O852   O     0.87025   0.75381   0.74701   0.00000  Uiso   1.00
O853   O     0.89280   0.90387   0.74519   0.00000  Uiso   1.00
O854   O     0.77387   0.76279   0.75481   0.00000  Uiso   1.00
C855   C     0.84858   0.93156   0.74883   0.00000  Uiso   1.00
C856   C     0.81809   0.73511   0.75117   0.00000  Uiso   1.00
O857   O     0.78514   0.83784   0.81997   0.00000  Uiso   1.00
O858   O     0.88153   0.82883   0.68002   0.00000  Uiso   1.00
O859   O     0.88152   0.82885   0.81217   0.00000  Uiso   1.00
O860   O     0.78515   0.83781   0.68783   0.00000  Uiso   1.00
C861   C     0.83397   0.83322   0.83638   0.00000  Uiso   1.00
C862   C     0.83270   0.83345   0.66362   0.00000  Uiso   1.00
Zn863  Zn    0.76898   0.83933   0.75521   0.00000  Uiso   1.00
Zn864  Zn    0.89769   0.82734   0.74479   0.00000  Uiso   1.00
C865   C     0.80479   0.79155   0.59445   0.00000  Uiso   1.00
C866   C     0.86188   0.87512   0.90555   0.00000  Uiso   1.00
C867   C     0.83155   0.83382   0.61608   0.00000  Uiso   1.00
C868   C     0.83511   0.83285   0.88392   0.00000  Uiso   1.00
C869   C     0.85928   0.87552   0.59264   0.00000  Uiso   1.00
C870   C     0.80739   0.79115   0.90736   0.00000  Uiso   1.00
C871   C     0.85944   0.87596   0.54617   0.00000  Uiso   1.00
C872   C     0.80723   0.79071   0.95383   0.00000  Uiso   1.00
C873   C     0.83322   0.83302   0.52340   0.00000  Uiso   1.00
C874   C     0.83346   0.83364   0.97660   0.00000  Uiso   1.00
C875   C     0.80687   0.78955   0.54758   0.00000  Uiso   1.00
C876   C     0.85981   0.87711   0.95242   0.00000  Uiso   1.00
C877   C     0.88478   0.91898   0.52247   0.00000  Uiso   1.00
C878   C     0.78190   0.74768   0.97753   0.00000  Uiso   1.00
C879   C     0.88425   0.92060   0.97568   0.00000  Uiso   1.00
C880   C     0.78243   0.74606   0.52432   0.00000  Uiso   1.00
H881   H     0.87975   0.90783   0.61080   0.00000  Uiso   1.00
H882   H     0.78692   0.75884   0.88920   0.00000  Uiso   1.00
H883   H     0.90359   0.95213   0.54054   0.00000  Uiso   1.00
H884   H     0.76310   0.71453   0.95946   0.00000  Uiso   1.00
C885   C     0.85661   0.98606   0.74816   0.00000  Uiso   1.00
C886   C     0.81005   0.68060   0.75184   0.00000  Uiso   1.00
N887   N     0.98344   0.81932   0.73783   0.00000  Uiso   1.00
N888   N     0.68322   0.84735   0.76217   0.00000  Uiso   1.00
H889   H     0.78305   0.76057   0.61464   0.00000  Uiso   1.00
H890   H     0.88362   0.90610   0.88536   0.00000  Uiso   1.00
N891   N     0.90684   0.96714   0.95279   0.00000  Uiso   1.00
O892   O     0.95306   0.99226   0.96582   0.00000  Uiso   1.00
O893   O     0.87570   0.98978   0.92528   0.00000  Uiso   1.00
N894   N     0.75986   0.69951   0.54721   0.00000  Uiso   1.00
O895   O     0.71367   0.67436   0.53416   0.00000  Uiso   1.00
O896   O     0.79100   0.67690   0.57473   0.00000  Uiso   1.00
H897   H     0.90060   0.66973   0.74463   0.00000  Uiso   1.00
H898   H     0.76607   0.99694   0.75537   0.00000  Uiso   1.00
H899   H     0.67124   0.79414   0.71599   0.00000  Uiso   1.00
H900   H     0.99542   0.87252   0.78401   0.00000  Uiso   1.00
loop_
_geom_bond_atom_site_label_1
_geom_bond_atom_site_label_2
_geom_bond_distance
_geom_bond_site_symmetry_2
_ccdc_geom_bond_type
O1     C5      1.278   .     A
O1     Zn13    1.955   .     S
O2     C6      1.278   .     A
O2     Zn14    1.955   .     S
O3     Zn14    1.975   .     S
O3     C5      1.286   .     A
O4     C6      1.286   .     A
O4     Zn13    1.975   .     S
C5     C35     1.400   .     S
C6     C36     1.400   .     S
O7     C11     1.285   .     A
O7     Zn13    1.991   .     S
O8     C12     1.285   .     A
O8     Zn14    1.991   .     S
O9     Zn14    2.012   .     S
O9     C11     1.287   .     A
O10    C12     1.287   .     A
O10    Zn13    2.012   .     S
C11    C18     1.416   .     S
C12    C17     1.416   .     S
Zn13   N38     2.019   .     S
Zn14   N37     2.019   .     S
C15    H39     1.083   .     S
C15    C25     1.391   .     A
C15    C17     1.389   .     A
C16    H40     1.083   .     S
C16    C26     1.391   .     A
C16    C18     1.389   .     A
C17    C19     1.387   .     A
C18    C20     1.387   .     A
C19    H31     1.086   .     S
C19    C21     1.382   .     A
C20    C22     1.382   .     A
C20    H32     1.086   .     S
C21    C27     1.397   .     A
C21    C23     1.413   .     A
C22    C28     1.397   .     A
C22    C24     1.413   .     A
C23    C25     1.421   .     A
C23    C474    1.392   1_554 S
C24    C26     1.421   .     A
C24    C473    1.392   .     S
C25    C30     1.414   .     A
C26    C29     1.414   .     A
C27    H33     1.085   .     S
C27    C479    1.394   1_554 S
C28    H34     1.085   .     S
C28    C480    1.394   .     S
C29    N41     1.438   .     S
C29    C477    1.394   .     S
C30    N44     1.438   .     S
C30    C478    1.394   1_554 S
C35    C186    1.335   .     S
C35    H197    1.088   .     S
C36    C335    1.335   1_545 S
C36    H348    1.088   1_545 S
N37    N88     1.277   .     S
N37    H99     1.029   .     S
N38    N137    1.277   1_455 S
N38    H150    1.029   1_455 S
N41    O42     1.301   .     A
N41    O43     1.301   .     A
N44    O45     1.301   .     A
N44    O46     1.301   .     A
H47    C335    1.088   1_545 S
H48    C186    1.088   .     S
H49    N137    1.029   1_455 S
H50    N88     1.029   .     S
O51    C55     1.278   .     A
O51    Zn63    1.955   .     S
O52    C56     1.278   .     A
O52    Zn64    1.955   .     S
O53    Zn64    1.975   .     S
O53    C55     1.286   .     A
O54    C56     1.286   .     A
O54    Zn63    1.975   .     S
C55    C85     1.400   .     S
C56    C86     1.400   .     S
O57    C61     1.285   .     A
O57    Zn63    1.991   .     S
O58    C62     1.285   .     A
O58    Zn64    1.991   .     S
O59    Zn64    2.012   .     S
O59    C61     1.287   .     A
O60    C62     1.287   .     A
O60    Zn63    2.012   .     S
C61    C68     1.416   .     S
C62    C67     1.416   .     S
Zn63   N88     2.019   .     S
Zn64   N87     2.019   .     S
C65    H89     1.083   .     S
C65    C75     1.391   .     A
C65    C67     1.389   .     A
C66    H90     1.083   .     S
C66    C76     1.391   .     A
C66    C68     1.389   .     A
C67    C69     1.387   .     A
C68    C70     1.387   .     A
C69    H81     1.086   .     S
C69    C71     1.382   .     A
C70    C72     1.382   .     A
C70    H82     1.086   .     S
C71    C77     1.397   .     A
C71    C73     1.413   .     A
C72    C78     1.397   .     A
C72    C74     1.413   .     A
C73    C75     1.421   .     A
C73    C524    1.392   1_554 S
C74    C76     1.421   .     A
C74    C523    1.392   .     S
C75    C80     1.414   .     A
C76    C79     1.414   .     A
C77    H83     1.085   .     S
C77    C529    1.394   1_554 S
C78    H84     1.085   .     S
C78    C530    1.394   .     S
C79    N91     1.438   .     S
C79    C527    1.394   .     S
C80    N94     1.438   .     S
C80    C528    1.394   1_554 S
C85    C236    1.335   .     S
C85    H247    1.088   .     S
C86    C385    1.335   1_545 S
C86    H398    1.088   1_545 S
N87    N138    1.277   .     S
N87    H149    1.029   .     S
N91    O92     1.301   .     A
N91    O93     1.301   .     A
N94    O95     1.301   .     A
N94    O96     1.301   .     A
H97    C385    1.088   1_545 S
H98    C236    1.088   .     S
H100   N138    1.029   .     S
O101   C105    1.278   .     A
O101   Zn113   1.955   .     S
O102   C106    1.278   .     A
O102   Zn114   1.955   .     S
O103   Zn114   1.975   .     S
O103   C105    1.286   .     A
O104   C106    1.286   .     A
O104   Zn113   1.975   .     S
C105   C135    1.400   .     S
C106   C136    1.400   .     S
O107   C111    1.285   .     A
O107   Zn113   1.991   .     S
O108   C112    1.285   .     A
O108   Zn114   1.991   .     S
O109   Zn114   2.012   .     S
O109   C111    1.287   .     A
O110   C112    1.287   .     A
O110   Zn113   2.012   .     S
C111   C118    1.416   .     S
C112   C117    1.416   .     S
Zn113  N138    2.019   .     S
Zn114  N137    2.019   .     S
C115   H139    1.083   .     S
C115   C125    1.391   .     A
C115   C117    1.389   .     A
C116   H140    1.083   .     S
C116   C126    1.391   .     A
C116   C118    1.389   .     A
C117   C119    1.387   .     A
C118   C120    1.387   .     A
C119   H131    1.086   .     S
C119   C121    1.382   .     A
C120   C122    1.382   .     A
C120   H132    1.086   .     S
C121   C127    1.397   .     A
C121   C123    1.413   .     A
C122   C128    1.397   .     A
C122   C124    1.413   .     A
C123   C125    1.421   .     A
C123   C574    1.392   1_554 S
C124   C126    1.421   .     A
C124   C573    1.392   .     S
C125   C130    1.414   .     A
C126   C129    1.414   .     A
C127   H133    1.085   .     S
C127   C579    1.394   1_554 S
C128   H134    1.085   .     S
C128   C580    1.394   .     S
C129   N141    1.438   .     S
C129   C577    1.394   .     S
C130   N144    1.438   .     S
C130   C578    1.394   1_554 S
C135   C286    1.335   .     S
C135   H297    1.088   .     S
C136   C435    1.335   1_545 S
C136   H448    1.088   1_545 S
N137   N38     1.277   1_655 S
N137   H49     1.029   1_655 S
N141   O142    1.301   .     A
N141   O143    1.301   .     A
N144   O145    1.301   .     A
N144   O146    1.301   .     A
H147   C435    1.088   1_545 S
H148   C286    1.088   .     S
H150   N38     1.029   1_655 S
O151   C155    1.278   .     A
O151   Zn163   1.955   .     S
O152   C156    1.278   .     A
O152   Zn164   1.955   .     S
O153   Zn164   1.975   .     S
O153   C155    1.286   .     A
O154   C156    1.286   .     A
O154   Zn163   1.975   .     S
C155   C185    1.400   .     S
C156   C186    1.400   .     S
O157   C161    1.285   .     A
O157   Zn163   1.991   .     S
O158   C162    1.285   .     A
O158   Zn164   1.991   .     S
O159   Zn164   2.012   .     S
O159   C161    1.287   .     A
O160   C162    1.287   .     A
O160   Zn163   2.012   .     S
C161   C168    1.416   .     S
C162   C167    1.416   .     S
Zn163  N188    2.019   .     S
Zn164  N187    2.019   .     S
C165   H189    1.083   .     S
C165   C175    1.391   .     A
C165   C167    1.389   .     A
C166   H190    1.083   .     S
C166   C176    1.391   .     A
C166   C168    1.389   .     A
C167   C169    1.387   .     A
C168   C170    1.387   .     A
C169   H181    1.086   .     S
C169   C171    1.382   .     A
C170   C172    1.382   .     A
C170   H182    1.086   .     S
C171   C177    1.397   .     A
C171   C173    1.413   .     A
C172   C178    1.397   .     A
C172   C174    1.413   .     A
C173   C175    1.421   .     A
C173   C624    1.392   1_554 S
C174   C176    1.421   .     A
C174   C623    1.392   .     S
C175   C180    1.414   .     A
C176   C179    1.414   .     A
C177   H183    1.085   .     S
C177   C629    1.394   1_554 S
C178   H184    1.085   .     S
C178   C630    1.394   .     S
C179   N191    1.438   .     S
C179   C627    1.394   .     S
C180   N194    1.438   .     S
C180   C628    1.394   1_554 S
C185   C336    1.335   .     S
C185   H347    1.088   .     S
N187   N238    1.277   .     S
N187   H249    1.029   .     S
N188   N287    1.277   1_455 S
N188   H300    1.029   1_455 S
N191   O192    1.301   .     A
N191   O193    1.301   .     A
N194   O195    1.301   .     A
N194   O196    1.301   .     A
H198   C336    1.088   .     S
H199   N287    1.029   1_455 S
H200   N238    1.029   .     S
O201   C205    1.278   .     A
O201   Zn213   1.955   .     S
O202   C206    1.278   .     A
O202   Zn214   1.955   .     S
O203   Zn214   1.975   .     S
O203   C205    1.286   .     A
O204   C206    1.286   .     A
O204   Zn213   1.975   .     S
C205   C235    1.400   .     S
C206   C236    1.400   .     S
O207   C211    1.285   .     A
O207   Zn213   1.991   .     S
O208   C212    1.285   .     A
O208   Zn214   1.991   .     S
O209   Zn214   2.012   .     S
O209   C211    1.287   .     A
O210   C212    1.287   .     A
O210   Zn213   2.012   .     S
C211   C218    1.416   .     S
C212   C217    1.416   .     S
Zn213  N238    2.019   .     S
Zn214  N237    2.019   .     S
C215   H239    1.083   .     S
C215   C225    1.391   .     A
C215   C217    1.389   .     A
C216   H240    1.083   .     S
C216   C226    1.391   .     A
C216   C218    1.389   .     A
C217   C219    1.387   .     A
C218   C220    1.387   .     A
C219   H231    1.086   .     S
C219   C221    1.382   .     A
C220   C222    1.382   .     A
C220   H232    1.086   .     S
C221   C227    1.397   .     A
C221   C223    1.413   .     A
C222   C228    1.397   .     A
C222   C224    1.413   .     A
C223   C225    1.421   .     A
C223   C674    1.392   1_554 S
C224   C226    1.421   .     A
C224   C673    1.392   .     S
C225   C230    1.414   .     A
C226   C229    1.414   .     A
C227   H233    1.085   .     S
C227   C679    1.394   1_554 S
C228   H234    1.085   .     S
C228   C680    1.394   .     S
C229   N241    1.438   .     S
C229   C677    1.394   .     S
C230   N244    1.438   .     S
C230   C678    1.394   1_554 S
C235   C386    1.335   .     S
C235   H397    1.088   .     S
N237   N288    1.277   .     S
N237   H299    1.029   .     S
N241   O242    1.301   .     A
N241   O243    1.301   .     A
N244   O245    1.301   .     A
N244   O246    1.301   .     A
H248   C386    1.088   .     S
H250   N288    1.029   .     S
O251   C255    1.278   .     A
O251   Zn263   1.955   .     S
O252   C256    1.278   .     A
O252   Zn264   1.955   .     S
O253   Zn264   1.975   .     S
O253   C255    1.286   .     A
O254   C256    1.286   .     A
O254   Zn263   1.975   .     S
C255   C285    1.400   .     S
C256   C286    1.400   .     S
O257   C261    1.285   .     A
O257   Zn263   1.991   .     S
O258   C262    1.285   .     A
O258   Zn264   1.991   .     S
O259   Zn264   2.012   .     S
O259   C261    1.287   .     A
O260   C262    1.287   .     A
O260   Zn263   2.012   .     S
C261   C268    1.416   .     S
C262   C267    1.416   .     S
Zn263  N288    2.019   .     S
Zn264  N287    2.019   .     S
C265   H289    1.083   .     S
C265   C275    1.391   .     A
C265   C267    1.389   .     A
C266   H290    1.083   .     S
C266   C276    1.391   .     A
C266   C268    1.389   .     A
C267   C269    1.387   .     A
C268   C270    1.387   .     A
C269   H281    1.086   .     S
C269   C271    1.382   .     A
C270   C272    1.382   .     A
C270   H282    1.086   .     S
C271   C277    1.397   .     A
C271   C273    1.413   .     A
C272   C278    1.397   .     A
C272   C274    1.413   .     A
C273   C275    1.421   .     A
C273   C724    1.392   1_554 S
C274   C276    1.421   .     A
C274   C723    1.392   .     S
C275   C280    1.414   .     A
C276   C279    1.414   .     A
C277   H283    1.085   .     S
C277   C729    1.394   1_554 S
C278   H284    1.085   .     S
C278   C730    1.394   .     S
C279   N291    1.438   .     S
C279   C727    1.394   .     S
C280   N294    1.438   .     S
C280   C728    1.394   1_554 S
C285   C436    1.335   .     S
C285   H447    1.088   .     S
N287   N188    1.277   1_655 S
N287   H199    1.029   1_655 S
N291   O292    1.301   .     A
N291   O293    1.301   .     A
N294   O295    1.301   .     A
N294   O296    1.301   .     A
H298   C436    1.088   .     S
H300   N188    1.029   1_655 S
O301   C305    1.278   .     A
O301   Zn313   1.955   .     S
O302   C306    1.278   .     A
O302   Zn314   1.955   .     S
O303   Zn314   1.975   .     S
O303   C305    1.286   .     A
O304   C306    1.286   .     A
O304   Zn313   1.975   .     S
C305   C335    1.400   .     S
C306   C336    1.400   .     S
O307   C311    1.285   .     A
O307   Zn313   1.991   .     S
O308   C312    1.285   .     A
O308   Zn314   1.991   .     S
O309   Zn314   2.012   .     S
O309   C311    1.287   .     A
O310   C312    1.287   .     A
O310   Zn313   2.012   .     S
C311   C318    1.416   .     S
C312   C317    1.416   .     S
Zn313  N338    2.019   .     S
Zn314  N337    2.019   .     S
C315   H339    1.083   .     S
C315   C325    1.391   .     A
C315   C317    1.389   .     A
C316   H340    1.083   .     S
C316   C326    1.391   .     A
C316   C318    1.389   .     A
C317   C319    1.387   .     A
C318   C320    1.387   .     A
C319   H331    1.086   .     S
C319   C321    1.382   .     A
C320   C322    1.382   .     A
C320   H332    1.086   .     S
C321   C327    1.397   .     A
C321   C323    1.413   .     A
C322   C328    1.397   .     A
C322   C324    1.413   .     A
C323   C325    1.421   .     A
C323   C774    1.392   1_554 S
C324   C326    1.421   .     A
C324   C773    1.392   .     S
C325   C330    1.414   .     A
C326   C329    1.414   .     A
C327   H333    1.085   .     S
C327   C779    1.394   1_554 S
C328   H334    1.085   .     S
C328   C780    1.394   .     S
C329   N341    1.438   .     S
C329   C777    1.394   .     S
C330   N344    1.438   .     S
C330   C778    1.394   1_554 S
C335   C36     1.335   1_565 S
C335   H47     1.088   1_565 S
N337   N388    1.277   .     S
N337   H399    1.029   .     S
N338   N437    1.277   1_455 S
N338   H450    1.029   1_455 S
N341   O342    1.301   .     A
N341   O343    1.301   .     A
N344   O345    1.301   .     A
N344   O346    1.301   .     A
H348   C36     1.088   1_565 S
H349   N437    1.029   1_455 S
H350   N388    1.029   .     S
O351   C355    1.278   .     A
O351   Zn363   1.955   .     S
O352   C356    1.278   .     A
O352   Zn364   1.955   .     S
O353   Zn364   1.975   .     S
O353   C355    1.286   .     A
O354   C356    1.286   .     A
O354   Zn363   1.975   .     S
C355   C385    1.400   .     S
C356   C386    1.400   .     S
O357   C361    1.285   .     A
O357   Zn363   1.991   .     S
O358   C362    1.285   .     A
O358   Zn364   1.991   .     S
O359   Zn364   2.012   .     S
O359   C361    1.287   .     A
O360   C362    1.287   .     A
O360   Zn363   2.012   .     S
C361   C368    1.416   .     S
C362   C367    1.416   .     S
Zn363  N388    2.019   .     S
Zn364  N387    2.019   .     S
C365   H389    1.083   .     S
C365   C375    1.391   .     A
C365   C367    1.389   .     A
C366   H390    1.083   .     S
C366   C376    1.391   .     A
C366   C368    1.389   .     A
C367   C369    1.387   .     A
C368   C370    1.387   .     A
C369   H381    1.086   .     S
C369   C371    1.382   .     A
C370   C372    1.382   .     A
C370   H382    1.086   .     S
C371   C377    1.397   .     A
C371   C373    1.413   .     A
C372   C378    1.397   .     A
C372   C374    1.413   .     A
C373   C375    1.421   .     A
C373   C824    1.392   1_554 S
C374   C376    1.421   .     A
C374   C823    1.392   .     S
C375   C380    1.414   .     A
C376   C379    1.414   .     A
C377   H383    1.085   .     S
C377   C829    1.394   1_554 S
C378   H384    1.085   .     S
C378   C830    1.394   .     S
C379   N391    1.438   .     S
C379   C827    1.394   .     S
C380   N394    1.438   .     S
C380   C828    1.394   1_554 S
C385   C86     1.335   1_565 S
C385   H97     1.088   1_565 S
N387   N438    1.277   .     S
N387   H449    1.029   .     S
N391   O392    1.301   .     A
N391   O393    1.301   .     A
N394   O395    1.301   .     A
N394   O396    1.301   .     A
H398   C86     1.088   1_565 S
H400   N438    1.029   .     S
O401   C405    1.278   .     A
O401   Zn413   1.955   .     S
O402   C406    1.278   .     A
O402   Zn414   1.955   .     S
O403   Zn414   1.975   .     S
O403   C405    1.286   .     A
O404   C406    1.286   .     A
O404   Zn413   1.975   .     S
C405   C435    1.400   .     S
C406   C436    1.400   .     S
O407   C411    1.285   .     A
O407   Zn413   1.991   .     S
O408   C412    1.285   .     A
O408   Zn414   1.991   .     S
O409   Zn414   2.012   .     S
O409   C411    1.287   .     A
O410   C412    1.287   .     A
O410   Zn413   2.012   .     S
C411   C418    1.416   .     S
C412   C417    1.416   .     S
Zn413  N438    2.019   .     S
Zn414  N437    2.019   .     S
C415   H439    1.083   .     S
C415   C425    1.391   .     A
C415   C417    1.389   .     A
C416   H440    1.083   .     S
C416   C426    1.391   .     A
C416   C418    1.389   .     A
C417   C419    1.387   .     A
C418   C420    1.387   .     A
C419   H431    1.086   .     S
C419   C421    1.382   .     A
C420   C422    1.382   .     A
C420   H432    1.086   .     S
C421   C427    1.397   .     A
C421   C423    1.413   .     A
C422   C428    1.397   .     A
C422   C424    1.413   .     A
C423   C425    1.421   .     A
C423   C874    1.392   1_554 S
C424   C426    1.421   .     A
C424   C873    1.392   .     S
C425   C430    1.414   .     A
C426   C429    1.414   .     A
C427   H433    1.085   .     S
C427   C879    1.394   1_554 S
C428   H434    1.085   .     S
C428   C880    1.394   .     S
C429   N441    1.438   .     S
C429   C877    1.394   .     S
C430   N444    1.438   .     S
C430   C878    1.394   1_554 S
C435   C136    1.335   1_565 S
C435   H147    1.088   1_565 S
N437   N338    1.277   1_655 S
N437   H349    1.029   1_655 S
N441   O442    1.301   .     A
N441   O443    1.301   .     A
N444   O445    1.301   .     A
N444   O446    1.301   .     A
H448   C136    1.088   1_565 S
H450   N338    1.029   1_655 S
O451   C455    1.278   .     A
O451   Zn463   1.955   .     S
O452   C456    1.278   .     A
O452   Zn464   1.955   .     S
O453   Zn464   1.975   .     S
O453   C455    1.286   .     A
O454   C456    1.286   .     A
O454   Zn463   1.975   .     S
C455   C485    1.400   .     S
C456   C486    1.400   .     S
O457   C461    1.285   .     A
O457   Zn463   1.991   .     S
O458   C462    1.285   .     A
O458   Zn464   1.991   .     S
O459   Zn464   2.012   .     S
O459   C461    1.287   .     A
O460   C462    1.287   .     A
O460   Zn463   2.012   .     S
C461   C468    1.416   .     S
C462   C467    1.416   .     S
Zn463  N488    2.019   .     S
Zn464  N487    2.019   .     S
C465   H489    1.083   .     S
C465   C475    1.391   .     A
C465   C467    1.389   .     A
C466   H490    1.083   .     S
C466   C476    1.391   .     A
C466   C468    1.389   .     A
C467   C469    1.387   .     A
C468   C470    1.387   .     A
C469   H481    1.086   .     S
C469   C471    1.382   .     A
C470   C472    1.382   .     A
C470   H482    1.086   .     S
C471   C477    1.397   .     A
C471   C473    1.413   .     A
C472   C478    1.397   .     A
C472   C474    1.413   .     A
C473   C475    1.421   .     A
C474   C476    1.421   .     A
C474   C23     1.392   1_556 S
C475   C480    1.414   .     A
C476   C479    1.414   .     A
C477   H483    1.085   .     S
C478   H484    1.085   .     S
C478   C30     1.394   1_556 S
C479   N491    1.438   .     S
C479   C27     1.394   1_556 S
C480   N494    1.438   .     S
C485   C636    1.335   .     S
C485   H647    1.088   .     S
C486   C785    1.335   1_545 S
C486   H798    1.088   1_545 S
N487   N538    1.277   .     S
N487   H549    1.029   .     S
N488   N587    1.277   1_455 S
N488   H600    1.029   1_455 S
N491   O492    1.301   .     A
N491   O493    1.301   .     A
N494   O495    1.301   .     A
N494   O496    1.301   .     A
H497   C785    1.088   1_545 S
H498   C636    1.088   .     S
H499   N587    1.029   1_455 S
H500   N538    1.029   .     S
O501   C505    1.278   .     A
O501   Zn513   1.955   .     S
O502   C506    1.278   .     A
O502   Zn514   1.955   .     S
O503   Zn514   1.975   .     S
O503   C505    1.286   .     A
O504   C506    1.286   .     A
O504   Zn513   1.975   .     S
C505   C535    1.400   .     S
C506   C536    1.400   .     S
O507   C511    1.285   .     A
O507   Zn513   1.991   .     S
O508   C512    1.285   .     A
O508   Zn514   1.991   .     S
O509   Zn514   2.012   .     S
O509   C511    1.287   .     A
O510   C512    1.287   .     A
O510   Zn513   2.012   .     S
C511   C518    1.416   .     S
C512   C517    1.416   .     S
Zn513  N538    2.019   .     S
Zn514  N537    2.019   .     S
C515   H539    1.083   .     S
C515   C525    1.391   .     A
C515   C517    1.389   .     A
C516   H540    1.083   .     S
C516   C526    1.391   .     A
C516   C518    1.389   .     A
C517   C519    1.387   .     A
C518   C520    1.387   .     A
C519   H531    1.086   .     S
C519   C521    1.382   .     A
C520   C522    1.382   .     A
C520   H532    1.086   .     S
C521   C527    1.397   .     A
C521   C523    1.413   .     A
C522   C528    1.397   .     A
C522   C524    1.413   .     A
C523   C525    1.421   .     A
C524   C526    1.421   .     A
C524   C73     1.392   1_556 S
C525   C530    1.414   .     A
C526   C529    1.414   .     A
C527   H533    1.085   .     S
C528   H534    1.085   .     S
C528   C80     1.394   1_556 S
C529   N541    1.438   .     S
C529   C77     1.394   1_556 S
C530   N544    1.438   .     S
C535   C686    1.335   .     S
C535   H697    1.088   .     S
C536   C835    1.335   1_545 S
C536   H848    1.088   1_545 S
N537   N588    1.277   .     S
N537   H599    1.029   .     S
N541   O542    1.301   .     A
N541   O543    1.301   .     A
N544   O545    1.301   .     A
N544   O546    1.301   .     A
H547   C835    1.088   1_545 S
H548   C686    1.088   .     S
H550   N588    1.029   .     S
O551   C555    1.278   .     A
O551   Zn563   1.955   .     S
O552   C556    1.278   .     A
O552   Zn564   1.955   .     S
O553   Zn564   1.975   .     S
O553   C555    1.286   .     A
O554   C556    1.286   .     A
O554   Zn563   1.975   .     S
C555   C585    1.400   .     S
C556   C586    1.400   .     S
O557   C561    1.285   .     A
O557   Zn563   1.991   .     S
O558   C562    1.285   .     A
O558   Zn564   1.991   .     S
O559   Zn564   2.012   .     S
O559   C561    1.287   .     A
O560   C562    1.287   .     A
O560   Zn563   2.012   .     S
C561   C568    1.416   .     S
C562   C567    1.416   .     S
Zn563  N588    2.019   .     S
Zn564  N587    2.019   .     S
C565   H589    1.083   .     S
C565   C575    1.391   .     A
C565   C567    1.389   .     A
C566   H590    1.083   .     S
C566   C576    1.391   .     A
C566   C568    1.389   .     A
C567   C569    1.387   .     A
C568   C570    1.387   .     A
C569   H581    1.086   .     S
C569   C571    1.382   .     A
C570   C572    1.382   .     A
C570   H582    1.086   .     S
C571   C577    1.397   .     A
C571   C573    1.413   .     A
C572   C578    1.397   .     A
C572   C574    1.413   .     A
C573   C575    1.421   .     A
C574   C576    1.421   .     A
C574   C123    1.392   1_556 S
C575   C580    1.414   .     A
C576   C579    1.414   .     A
C577   H583    1.085   .     S
C578   H584    1.085   .     S
C578   C130    1.394   1_556 S
C579   N591    1.438   .     S
C579   C127    1.394   1_556 S
C580   N594    1.438   .     S
C585   C736    1.335   .     S
C585   H747    1.088   .     S
C586   C885    1.335   1_545 S
C586   H898    1.088   1_545 S
N587   N488    1.277   1_655 S
N587   H499    1.029   1_655 S
N591   O592    1.301   .     A
N591   O593    1.301   .     A
N594   O595    1.301   .     A
N594   O596    1.301   .     A
H597   C885    1.088   1_545 S
H598   C736    1.088   .     S
H600   N488    1.029   1_655 S
O601   C605    1.278   .     A
O601   Zn613   1.955   .     S
O602   C606    1.278   .     A
O602   Zn614   1.955   .     S
O603   Zn614   1.975   .     S
O603   C605    1.286   .     A
O604   C606    1.286   .     A
O604   Zn613   1.975   .     S
C605   C635    1.400   .     S
C606   C636    1.400   .     S
O607   C611    1.285   .     A
O607   Zn613   1.991   .     S
O608   C612    1.285   .     A
O608   Zn614   1.991   .     S
O609   Zn614   2.012   .     S
O609   C611    1.287   .     A
O610   C612    1.287   .     A
O610   Zn613   2.012   .     S
C611   C618    1.416   .     S
C612   C617    1.416   .     S
Zn613  N638    2.019   .     S
Zn614  N637    2.019   .     S
C615   H639    1.083   .     S
C615   C625    1.391   .     A
C615   C617    1.389   .     A
C616   H640    1.083   .     S
C616   C626    1.391   .     A
C616   C618    1.389   .     A
C617   C619    1.387   .     A
C618   C620    1.387   .     A
C619   H631    1.086   .     S
C619   C621    1.382   .     A
C620   C622    1.382   .     A
C620   H632    1.086   .     S
C621   C627    1.397   .     A
C621   C623    1.413   .     A
C622   C628    1.397   .     A
C622   C624    1.413   .     A
C623   C625    1.421   .     A
C624   C626    1.421   .     A
C624   C173    1.392   1_556 S
C625   C630    1.414   .     A
C626   C629    1.414   .     A
C627   H633    1.085   .     S
C628   H634    1.085   .     S
C628   C180    1.394   1_556 S
C629   N641    1.438   .     S
C629   C177    1.394   1_556 S
C630   N644    1.438   .     S
C635   C786    1.335   .     S
C635   H797    1.088   .     S
N637   N688    1.277   .     S
N637   H699    1.029   .     S
N638   N737    1.277   1_455 S
N638   H750    1.029   1_455 S
N641   O642    1.301   .     A
N641   O643    1.301   .     A
N644   O645    1.301   .     A
N644   O646    1.301   .     A
H648   C786    1.088   .     S
H649   N737    1.029   1_455 S
H650   N688    1.029   .     S
O651   C655    1.278   .     A
O651   Zn663   1.955   .     S
O652   C656    1.278   .     A
O652   Zn664   1.955   .     S
O653   Zn664   1.975   .     S
O653   C655    1.286   .     A
O654   C656    1.286   .     A
O654   Zn663   1.975   .     S
C655   C685    1.400   .     S
C656   C686    1.400   .     S
O657   C661    1.285   .     A
O657   Zn663   1.991   .     S
O658   C662    1.285   .     A
O658   Zn664   1.991   .     S
O659   Zn664   2.012   .     S
O659   C661    1.287   .     A
O660   C662    1.287   .     A
O660   Zn663   2.012   .     S
C661   C668    1.416   .     S
C662   C667    1.416   .     S
Zn663  N688    2.019   .     S
Zn664  N687    2.019   .     S
C665   H689    1.083   .     S
C665   C675    1.391   .     A
C665   C667    1.389   .     A
C666   H690    1.083   .     S
C666   C676    1.391   .     A
C666   C668    1.389   .     A
C667   C669    1.387   .     A
C668   C670    1.387   .     A
C669   H681    1.086   .     S
C669   C671    1.382   .     A
C670   C672    1.382   .     A
C670   H682    1.086   .     S
C671   C677    1.397   .     A
C671   C673    1.413   .     A
C672   C678    1.397   .     A
C672   C674    1.413   .     A
C673   C675    1.421   .     A
C674   C676    1.421   .     A
C674   C223    1.392   1_556 S
C675   C680    1.414   .     A
C676   C679    1.414   .     A
C677   H683    1.085   .     S
C678   H684    1.085   .     S
C678   C230    1.394   1_556 S
C679   N691    1.438   .     S
C679   C227    1.394   1_556 S
C680   N694    1.438   .     S
C685   C836    1.335   .     S
C685   H847    1.088   .     S
N687   N738    1.277   .     S
N687   H749    1.029   .     S
N691   O692    1.301   .     A
N691   O693    1.301   .     A
N694   O695    1.301   .     A
N694   O696    1.301   .     A
H698   C836    1.088   .     S
H700   N738    1.029   .     S
O701   C705    1.278   .     A
O701   Zn713   1.955   .     S
O702   C706    1.278   .     A
O702   Zn714   1.955   .     S
O703   Zn714   1.975   .     S
O703   C705    1.286   .     A
O704   C706    1.286   .     A
O704   Zn713   1.975   .     S
C705   C735    1.400   .     S
C706   C736    1.400   .     S
O707   C711    1.285   .     A
O707   Zn713   1.991   .     S
O708   C712    1.285   .     A
O708   Zn714   1.991   .     S
O709   Zn714   2.012   .     S
O709   C711    1.287   .     A
O710   C712    1.287   .     A
O710   Zn713   2.012   .     S
C711   C718    1.416   .     S
C712   C717    1.416   .     S
Zn713  N738    2.019   .     S
Zn714  N737    2.019   .     S
C715   H739    1.083   .     S
C715   C725    1.391   .     A
C715   C717    1.389   .     A
C716   H740    1.083   .     S
C716   C726    1.391   .     A
C716   C718    1.389   .     A
C717   C719    1.387   .     A
C718   C720    1.387   .     A
C719   H731    1.086   .     S
C719   C721    1.382   .     A
C720   C722    1.382   .     A
C720   H732    1.086   .     S
C721   C727    1.397   .     A
C721   C723    1.413   .     A
C722   C728    1.397   .     A
C722   C724    1.413   .     A
C723   C725    1.421   .     A
C724   C726    1.421   .     A
C724   C273    1.392   1_556 S
C725   C730    1.414   .     A
C726   C729    1.414   .     A
C727   H733    1.085   .     S
C728   H734    1.085   .     S
C728   C280    1.394   1_556 S
C729   N741    1.438   .     S
C729   C277    1.394   1_556 S
C730   N744    1.438   .     S
C735   C886    1.335   .     S
C735   H897    1.088   .     S
N737   N638    1.277   1_655 S
N737   H649    1.029   1_655 S
N741   O742    1.301   .     A
N741   O743    1.301   .     A
N744   O745    1.301   .     A
N744   O746    1.301   .     A
H748   C886    1.088   .     S
H750   N638    1.029   1_655 S
O751   C755    1.278   .     A
O751   Zn763   1.955   .     S
O752   C756    1.278   .     A
O752   Zn764   1.955   .     S
O753   Zn764   1.975   .     S
O753   C755    1.286   .     A
O754   C756    1.286   .     A
O754   Zn763   1.975   .     S
C755   C785    1.400   .     S
C756   C786    1.400   .     S
O757   C761    1.285   .     A
O757   Zn763   1.991   .     S
O758   C762    1.285   .     A
O758   Zn764   1.991   .     S
O759   Zn764   2.012   .     S
O759   C761    1.287   .     A
O760   C762    1.287   .     A
O760   Zn763   2.012   .     S
C761   C768    1.416   .     S
C762   C767    1.416   .     S
Zn763  N788    2.019   .     S
Zn764  N787    2.019   .     S
C765   H789    1.083   .     S
C765   C775    1.391   .     A
C765   C767    1.389   .     A
C766   H790    1.083   .     S
C766   C776    1.391   .     A
C766   C768    1.389   .     A
C767   C769    1.387   .     A
C768   C770    1.387   .     A
C769   H781    1.086   .     S
C769   C771    1.382   .     A
C770   C772    1.382   .     A
C770   H782    1.086   .     S
C771   C777    1.397   .     A
C771   C773    1.413   .     A
C772   C778    1.397   .     A
C772   C774    1.413   .     A
C773   C775    1.421   .     A
C774   C776    1.421   .     A
C774   C323    1.392   1_556 S
C775   C780    1.414   .     A
C776   C779    1.414   .     A
C777   H783    1.085   .     S
C778   H784    1.085   .     S
C778   C330    1.394   1_556 S
C779   N791    1.438   .     S
C779   C327    1.394   1_556 S
C780   N794    1.438   .     S
C785   C486    1.335   1_565 S
C785   H497    1.088   1_565 S
N787   N838    1.277   .     S
N787   H849    1.029   .     S
N788   N887    1.277   1_455 S
N788   H900    1.029   1_455 S
N791   O792    1.301   .     A
N791   O793    1.301   .     A
N794   O795    1.301   .     A
N794   O796    1.301   .     A
H798   C486    1.088   1_565 S
H799   N887    1.029   1_455 S
H800   N838    1.029   .     S
O801   C805    1.278   .     A
O801   Zn813   1.955   .     S
O802   C806    1.278   .     A
O802   Zn814   1.955   .     S
O803   Zn814   1.975   .     S
O803   C805    1.286   .     A
O804   C806    1.286   .     A
O804   Zn813   1.975   .     S
C805   C835    1.400   .     S
C806   C836    1.400   .     S
O807   C811    1.285   .     A
O807   Zn813   1.991   .     S
O808   C812    1.285   .     A
O808   Zn814   1.991   .     S
O809   Zn814   2.012   .     S
O809   C811    1.287   .     A
O810   C812    1.287   .     A
O810   Zn813   2.012   .     S
C811   C818    1.416   .     S
C812   C817    1.416   .     S
Zn813  N838    2.019   .     S
Zn814  N837    2.019   .     S
C815   H839    1.083   .     S
C815   C825    1.391   .     A
C815   C817    1.389   .     A
C816   H840    1.083   .     S
C816   C826    1.391   .     A
C816   C818    1.389   .     A
C817   C819    1.387   .     A
C818   C820    1.387   .     A
C819   H831    1.086   .     S
C819   C821    1.382   .     A
C820   C822    1.382   .     A
C820   H832    1.086   .     S
C821   C827    1.397   .     A
C821   C823    1.413   .     A
C822   C828    1.397   .     A
C822   C824    1.413   .     A
C823   C825    1.421   .     A
C824   C826    1.421   .     A
C824   C373    1.392   1_556 S
C825   C830    1.414   .     A
C826   C829    1.414   .     A
C827   H833    1.085   .     S
C828   H834    1.085   .     S
C828   C380    1.394   1_556 S
C829   N841    1.438   .     S
C829   C377    1.394   1_556 S
C830   N844    1.438   .     S
C835   C536    1.335   1_565 S
C835   H547    1.088   1_565 S
N837   N888    1.277   .     S
N837   H899    1.029   .     S
N841   O842    1.301   .     A
N841   O843    1.301   .     A
N844   O845    1.301   .     A
N844   O846    1.301   .     A
H848   C536    1.088   1_565 S
H850   N888    1.029   .     S
O851   C855    1.278   .     A
O851   Zn863   1.955   .     S
O852   C856    1.278   .     A
O852   Zn864   1.955   .     S
O853   Zn864   1.975   .     S
O853   C855    1.286   .     A
O854   C856    1.286   .     A
O854   Zn863   1.975   .     S
C855   C885    1.400   .     S
C856   C886    1.400   .     S
O857   C861    1.285   .     A
O857   Zn863   1.991   .     S
O858   C862    1.285   .     A
O858   Zn864   1.991   .     S
O859   Zn864   2.012   .     S
O859   C861    1.287   .     A
O860   C862    1.287   .     A
O860   Zn863   2.012   .     S
C861   C868    1.416   .     S
C862   C867    1.416   .     S
Zn863  N888    2.019   .     S
Zn864  N887    2.019   .     S
C865   H889    1.083   .     S
C865   C875    1.391   .     A
C865   C867    1.389   .     A
C866   H890    1.083   .     S
C866   C876    1.391   .     A
C866   C868    1.389   .     A
C867   C869    1.387   .     A
C868   C870    1.387   .     A
C869   H881    1.086   .     S
C869   C871    1.382   .     A
C870   C872    1.382   .     A
C870   H882    1.086   .     S
C871   C877    1.397   .     A
C871   C873    1.413   .     A
C872   C878    1.397   .     A
C872   C874    1.413   .     A
C873   C875    1.421   .     A
C874   C876    1.421   .     A
C874   C423    1.392   1_556 S
C875   C880    1.414   .     A
C876   C879    1.414   .     A
C877   H883    1.085   .     S
C878   H884    1.085   .     S
C878   C430    1.394   1_556 S
C879   N891    1.438   .     S
C879   C427    1.394   1_556 S
C880   N894    1.438   .     S
C885   C586    1.335   1_565 S
C885   H597    1.088   1_565 S
N887   N788    1.277   1_655 S
N887   H799    1.029   1_655 S
N891   O892    1.301   .     A
N891   O893    1.301   .     A
N894   O895    1.301   .     A
N894   O896    1.301   .     A
H898   C586    1.088   1_565 S
H900   N788    1.029   1_655 S
