data_str_m2_o2_o10_pcu_sym.247
_audit_creation_date              2020-01-03
_audit_creation_method            'Materials Studio'
_symmetry_space_group_name_H-M    'P1'
_symmetry_Int_Tables_number       1
_symmetry_cell_setting            triclinic
loop_
_symmetry_equiv_pos_as_xyz
  x,y,z
_cell_length_a                    26.1739
_cell_length_b                    30.3062
_cell_length_c                    27.8262
_cell_angle_alpha                 90.4677
_cell_angle_beta                  98.2884
_cell_angle_gamma                 90.3534
loop_
_atom_site_label
_atom_site_type_symbol
_atom_site_fract_x
_atom_site_fract_y
_atom_site_fract_z
_atom_site_U_iso_or_equiv
_atom_site_adp_type
_atom_site_occupancy
C1     C     0.16626   0.16505   0.24968   0.00000  Uiso   1.00
C2     C     0.16694   0.33473   0.25019   0.00000  Uiso   1.00
C3     C     0.20967   0.26381   0.05964   0.00000  Uiso   1.00
C4     C     0.15007   0.21361   0.44389   0.00000  Uiso   1.00
C5     C     0.20866   0.26488   0.11013   0.00000  Uiso   1.00
C6     C     0.14882   0.21439   0.39313   0.00000  Uiso   1.00
C7     C     0.12493   0.23332   0.09862   0.00000  Uiso   1.00
C8     C     0.18704   0.28537   0.39856   0.00000  Uiso   1.00
C9     C     0.12214   0.23672   0.04751   0.00000  Uiso   1.00
C10    C     0.18308   0.28794   0.44884   0.00000  Uiso   1.00
C11    C     0.16578   0.25058   0.02714   0.00000  Uiso   1.00
C12    C     0.16620   0.25093   0.47275   0.00000  Uiso   1.00
C13    C     0.06789   0.24992   0.23750   0.00000  Uiso   1.00
C14    C     0.26544   0.25000   0.26250   0.00000  Uiso   1.00
C15    C     0.01252   0.24974   0.23068   0.00000  Uiso   1.00
C16    C     0.32081   0.25016   0.26931   0.00000  Uiso   1.00
C17    C     0.13415   0.04776   0.27690   0.00000  Uiso   1.00
C18    C     0.20893   0.45177   0.23814   0.00000  Uiso   1.00
C19    C     0.13251   0.09355   0.27556   0.00000  Uiso   1.00
C20    C     0.20885   0.40590   0.23693   0.00000  Uiso   1.00
C21    C     0.16535   0.11687   0.24872   0.00000  Uiso   1.00
C22    C     0.16683   0.38253   0.25044   0.00000  Uiso   1.00
C23    C     0.19687   0.09342   0.22050   0.00000  Uiso   1.00
C24    C     0.12420   0.40521   0.26329   0.00000  Uiso   1.00
C25    C     0.19534   0.04754   0.21954   0.00000  Uiso   1.00
C26    C     0.12307   0.45101   0.26111   0.00000  Uiso   1.00
C27    C     0.16512   0.02403   0.24865   0.00000  Uiso   1.00
C28    C     0.16571   0.47504   0.24933   0.00000  Uiso   1.00
Cu29   Cu    0.16667   0.24999   0.29821   0.00000  Uiso   1.00
Cu30   Cu    0.16667   0.25000   0.20178   0.00000  Uiso   1.00
H31    H     0.32565   0.24919   0.19369   0.00000  Uiso   1.00
H32    H     0.00770   0.25071   0.30630   0.00000  Uiso   1.00
H33    H     0.11068   0.03116   0.30020   0.00000  Uiso   1.00
H34    H     0.24319   0.46877   0.23041   0.00000  Uiso   1.00
H35    H     0.21819   0.03065   0.19581   0.00000  Uiso   1.00
H36    H     0.08828   0.46730   0.26818   0.00000  Uiso   1.00
H37    H     0.24454   0.27406   0.04600   0.00000  Uiso   1.00
H38    H     0.13763   0.18396   0.46045   0.00000  Uiso   1.00
H39    H     0.24217   0.27713   0.13383   0.00000  Uiso   1.00
H40    H     0.13443   0.18586   0.37205   0.00000  Uiso   1.00
N41    N     0.16667   0.25001   0.12934   0.00000  Uiso   1.00
N42    N     0.16667   0.24999   0.37065   0.00000  Uiso   1.00
O43    O     0.16667   0.18572   0.29071   0.00000  Uiso   1.00
O44    O     0.16666   0.31427   0.20928   0.00000  Uiso   1.00
O45    O     0.16667   0.18573   0.20928   0.00000  Uiso   1.00
O46    O     0.16666   0.31427   0.29072   0.00000  Uiso   1.00
O47    O     0.09161   0.24999   0.28132   0.00000  Uiso   1.00
O48    O     0.24172   0.25000   0.21868   0.00000  Uiso   1.00
O49    O     0.09161   0.25000   0.19988   0.00000  Uiso   1.00
O50    O     0.24172   0.25000   0.30011   0.00000  Uiso   1.00
Br51   Br    0.08100   0.12184   0.30753   0.00000  Uiso   1.00
Br52   Br    0.26715   0.37657   0.21681   0.00000  Uiso   1.00
Br53   Br    0.24470   0.12179   0.18402   0.00000  Uiso   1.00
Br54   Br    0.06579   0.37487   0.28224   0.00000  Uiso   1.00
O55    O     0.08409   0.21458   0.11759   0.00000  Uiso   1.00
C56    C     0.08739   0.16810   0.11453   0.00000  Uiso   1.00
H57    H     0.12709   0.15601   0.12740   0.00000  Uiso   1.00
H58    H     0.07589   0.15652   0.07650   0.00000  Uiso   1.00
C59    C     0.05068   0.14742   0.14580   0.00000  Uiso   1.00
H60    H     0.01048   0.15787   0.13291   0.00000  Uiso   1.00
H61    H     0.05275   0.11089   0.14355   0.00000  Uiso   1.00
H62    H     0.06136   0.15786   0.18429   0.00000  Uiso   1.00
O63    O     0.21056   0.31946   0.37729   0.00000  Uiso   1.00
C64    C     0.26474   0.31548   0.38908   0.00000  Uiso   1.00
H65    H     0.27805   0.28129   0.38299   0.00000  Uiso   1.00
H66    H     0.27761   0.32474   0.42767   0.00000  Uiso   1.00
C67    C     0.29094   0.34654   0.35744   0.00000  Uiso   1.00
H68    H     0.27908   0.38109   0.36318   0.00000  Uiso   1.00
H69    H     0.00017   0.34415   0.36693   0.00000  Uiso   1.00
H70    H     0.27999   0.33745   0.31862   0.00000  Uiso   1.00
Br71   Br    0.05653   0.22671   0.00741   0.00000  Uiso   1.00
Br72   Br    0.19594   0.34385   0.48211   0.00000  Uiso   1.00
C73    C     0.49960   0.16505   0.24968   0.00000  Uiso   1.00
C74    C     0.50027   0.33473   0.25019   0.00000  Uiso   1.00
C75    C     0.54300   0.26381   0.05964   0.00000  Uiso   1.00
C76    C     0.48340   0.21361   0.44389   0.00000  Uiso   1.00
C77    C     0.54200   0.26488   0.11013   0.00000  Uiso   1.00
C78    C     0.48216   0.21439   0.39313   0.00000  Uiso   1.00
C79    C     0.45826   0.23332   0.09862   0.00000  Uiso   1.00
C80    C     0.52037   0.28537   0.39856   0.00000  Uiso   1.00
C81    C     0.45548   0.23672   0.04751   0.00000  Uiso   1.00
C82    C     0.51641   0.28794   0.44884   0.00000  Uiso   1.00
C83    C     0.49911   0.25058   0.02714   0.00000  Uiso   1.00
C84    C     0.49954   0.25093   0.47275   0.00000  Uiso   1.00
C85    C     0.40123   0.24992   0.23750   0.00000  Uiso   1.00
C86    C     0.59877   0.25000   0.26250   0.00000  Uiso   1.00
C87    C     0.34585   0.24974   0.23068   0.00000  Uiso   1.00
C88    C     0.65415   0.25016   0.26931   0.00000  Uiso   1.00
C89    C     0.46749   0.04776   0.27690   0.00000  Uiso   1.00
C90    C     0.54226   0.45177   0.23814   0.00000  Uiso   1.00
C91    C     0.46584   0.09355   0.27556   0.00000  Uiso   1.00
C92    C     0.54218   0.40590   0.23693   0.00000  Uiso   1.00
C93    C     0.49868   0.11687   0.24872   0.00000  Uiso   1.00
C94    C     0.50016   0.38253   0.25044   0.00000  Uiso   1.00
C95    C     0.53020   0.09342   0.22050   0.00000  Uiso   1.00
C96    C     0.45754   0.40521   0.26329   0.00000  Uiso   1.00
C97    C     0.52867   0.04754   0.21954   0.00000  Uiso   1.00
C98    C     0.45640   0.45101   0.26111   0.00000  Uiso   1.00
C99    C     0.49846   0.02403   0.24865   0.00000  Uiso   1.00
C100   C     0.49904   0.47504   0.24933   0.00000  Uiso   1.00
Cu101  Cu    0.50000   0.24999   0.29821   0.00000  Uiso   1.00
Cu102  Cu    0.50000   0.25000   0.20178   0.00000  Uiso   1.00
H103   H     0.65898   0.24919   0.19369   0.00000  Uiso   1.00
H104   H     0.34103   0.25071   0.30630   0.00000  Uiso   1.00
H105   H     0.44402   0.03116   0.30020   0.00000  Uiso   1.00
H106   H     0.57652   0.46877   0.23041   0.00000  Uiso   1.00
H107   H     0.55152   0.03065   0.19581   0.00000  Uiso   1.00
H108   H     0.42161   0.46730   0.26818   0.00000  Uiso   1.00
H109   H     0.57788   0.27406   0.04600   0.00000  Uiso   1.00
H110   H     0.47096   0.18396   0.46045   0.00000  Uiso   1.00
H111   H     0.57551   0.27713   0.13383   0.00000  Uiso   1.00
H112   H     0.46776   0.18586   0.37205   0.00000  Uiso   1.00
N113   N     0.50000   0.25001   0.12934   0.00000  Uiso   1.00
N114   N     0.50000   0.24999   0.37065   0.00000  Uiso   1.00
O115   O     0.50000   0.18572   0.29071   0.00000  Uiso   1.00
O116   O     0.50000   0.31427   0.20928   0.00000  Uiso   1.00
O117   O     0.50000   0.18573   0.20928   0.00000  Uiso   1.00
O118   O     0.50000   0.31427   0.29072   0.00000  Uiso   1.00
O119   O     0.42495   0.24999   0.28132   0.00000  Uiso   1.00
O120   O     0.57505   0.25000   0.21868   0.00000  Uiso   1.00
O121   O     0.42495   0.25000   0.19988   0.00000  Uiso   1.00
O122   O     0.57505   0.25000   0.30011   0.00000  Uiso   1.00
Br123  Br    0.41434   0.12184   0.30753   0.00000  Uiso   1.00
Br124  Br    0.60048   0.37657   0.21681   0.00000  Uiso   1.00
Br125  Br    0.57803   0.12179   0.18402   0.00000  Uiso   1.00
Br126  Br    0.39912   0.37487   0.28224   0.00000  Uiso   1.00
O127   O     0.41742   0.21458   0.11759   0.00000  Uiso   1.00
C128   C     0.42073   0.16810   0.11453   0.00000  Uiso   1.00
H129   H     0.46042   0.15601   0.12740   0.00000  Uiso   1.00
H130   H     0.40922   0.15652   0.07650   0.00000  Uiso   1.00
C131   C     0.38402   0.14742   0.14580   0.00000  Uiso   1.00
H132   H     0.34382   0.15787   0.13291   0.00000  Uiso   1.00
H133   H     0.38608   0.11089   0.14355   0.00000  Uiso   1.00
H134   H     0.39470   0.15786   0.18429   0.00000  Uiso   1.00
O135   O     0.54389   0.31946   0.37729   0.00000  Uiso   1.00
C136   C     0.59808   0.31548   0.38908   0.00000  Uiso   1.00
H137   H     0.61139   0.28129   0.38299   0.00000  Uiso   1.00
H138   H     0.61095   0.32474   0.42767   0.00000  Uiso   1.00
C139   C     0.62427   0.34654   0.35744   0.00000  Uiso   1.00
H140   H     0.61241   0.38109   0.36318   0.00000  Uiso   1.00
H141   H     0.33351   0.34415   0.36693   0.00000  Uiso   1.00
H142   H     0.61332   0.33745   0.31862   0.00000  Uiso   1.00
Br143  Br    0.38986   0.22671   0.00741   0.00000  Uiso   1.00
Br144  Br    0.52928   0.34385   0.48211   0.00000  Uiso   1.00
C145   C     0.83293   0.16505   0.24968   0.00000  Uiso   1.00
C146   C     0.83360   0.33473   0.25019   0.00000  Uiso   1.00
C147   C     0.87633   0.26381   0.05964   0.00000  Uiso   1.00
C148   C     0.81674   0.21361   0.44389   0.00000  Uiso   1.00
C149   C     0.87533   0.26488   0.11013   0.00000  Uiso   1.00
C150   C     0.81549   0.21439   0.39313   0.00000  Uiso   1.00
C151   C     0.79159   0.23332   0.09862   0.00000  Uiso   1.00
C152   C     0.85371   0.28537   0.39856   0.00000  Uiso   1.00
C153   C     0.78881   0.23672   0.04751   0.00000  Uiso   1.00
C154   C     0.84975   0.28794   0.44884   0.00000  Uiso   1.00
C155   C     0.83245   0.25058   0.02714   0.00000  Uiso   1.00
C156   C     0.83287   0.25093   0.47275   0.00000  Uiso   1.00
C157   C     0.73456   0.24992   0.23750   0.00000  Uiso   1.00
C158   C     0.93210   0.25000   0.26250   0.00000  Uiso   1.00
C159   C     0.67919   0.24974   0.23068   0.00000  Uiso   1.00
C160   C     0.98748   0.25016   0.26931   0.00000  Uiso   1.00
C161   C     0.80082   0.04776   0.27690   0.00000  Uiso   1.00
C162   C     0.87559   0.45177   0.23814   0.00000  Uiso   1.00
C163   C     0.79918   0.09355   0.27556   0.00000  Uiso   1.00
C164   C     0.87552   0.40590   0.23693   0.00000  Uiso   1.00
C165   C     0.83202   0.11687   0.24872   0.00000  Uiso   1.00
C166   C     0.83349   0.38253   0.25044   0.00000  Uiso   1.00
C167   C     0.86353   0.09342   0.22050   0.00000  Uiso   1.00
C168   C     0.79087   0.40521   0.26329   0.00000  Uiso   1.00
C169   C     0.86200   0.04754   0.21954   0.00000  Uiso   1.00
C170   C     0.78974   0.45101   0.26111   0.00000  Uiso   1.00
C171   C     0.83179   0.02403   0.24865   0.00000  Uiso   1.00
C172   C     0.83237   0.47504   0.24933   0.00000  Uiso   1.00
Cu173  Cu    0.83333   0.24999   0.29821   0.00000  Uiso   1.00
Cu174  Cu    0.83333   0.25000   0.20178   0.00000  Uiso   1.00
H175   H     0.99232   0.24919   0.19369   0.00000  Uiso   1.00
H176   H     0.67437   0.25071   0.30630   0.00000  Uiso   1.00
H177   H     0.77735   0.03116   0.30020   0.00000  Uiso   1.00
H178   H     0.90985   0.46877   0.23041   0.00000  Uiso   1.00
H179   H     0.88485   0.03065   0.19581   0.00000  Uiso   1.00
H180   H     0.75495   0.46730   0.26818   0.00000  Uiso   1.00
H181   H     0.91121   0.27406   0.04600   0.00000  Uiso   1.00
H182   H     0.80430   0.18396   0.46045   0.00000  Uiso   1.00
H183   H     0.90884   0.27713   0.13383   0.00000  Uiso   1.00
H184   H     0.80109   0.18586   0.37205   0.00000  Uiso   1.00
N185   N     0.83333   0.25001   0.12934   0.00000  Uiso   1.00
N186   N     0.83333   0.24999   0.37065   0.00000  Uiso   1.00
O187   O     0.83334   0.18572   0.29071   0.00000  Uiso   1.00
O188   O     0.83333   0.31427   0.20928   0.00000  Uiso   1.00
O189   O     0.83334   0.18573   0.20928   0.00000  Uiso   1.00
O190   O     0.83333   0.31427   0.29072   0.00000  Uiso   1.00
O191   O     0.75828   0.24999   0.28132   0.00000  Uiso   1.00
O192   O     0.90839   0.25000   0.21868   0.00000  Uiso   1.00
O193   O     0.75828   0.25000   0.19988   0.00000  Uiso   1.00
O194   O     0.90839   0.25000   0.30011   0.00000  Uiso   1.00
Br195  Br    0.74767   0.12184   0.30753   0.00000  Uiso   1.00
Br196  Br    0.93382   0.37657   0.21681   0.00000  Uiso   1.00
Br197  Br    0.91136   0.12179   0.18402   0.00000  Uiso   1.00
Br198  Br    0.73246   0.37487   0.28224   0.00000  Uiso   1.00
O199   O     0.75076   0.21458   0.11759   0.00000  Uiso   1.00
C200   C     0.75406   0.16810   0.11453   0.00000  Uiso   1.00
H201   H     0.79376   0.15601   0.12740   0.00000  Uiso   1.00
H202   H     0.74255   0.15652   0.07650   0.00000  Uiso   1.00
C203   C     0.71735   0.14742   0.14580   0.00000  Uiso   1.00
H204   H     0.67715   0.15787   0.13291   0.00000  Uiso   1.00
H205   H     0.71941   0.11089   0.14355   0.00000  Uiso   1.00
H206   H     0.72803   0.15786   0.18429   0.00000  Uiso   1.00
O207   O     0.87723   0.31946   0.37729   0.00000  Uiso   1.00
C208   C     0.93141   0.31548   0.38908   0.00000  Uiso   1.00
H209   H     0.94472   0.28129   0.38299   0.00000  Uiso   1.00
H210   H     0.94428   0.32474   0.42767   0.00000  Uiso   1.00
C211   C     0.95760   0.34654   0.35744   0.00000  Uiso   1.00
H212   H     0.94575   0.38109   0.36318   0.00000  Uiso   1.00
H213   H     0.66684   0.34415   0.36693   0.00000  Uiso   1.00
H214   H     0.94665   0.33745   0.31862   0.00000  Uiso   1.00
Br215  Br    0.72320   0.22671   0.00741   0.00000  Uiso   1.00
Br216  Br    0.86261   0.34385   0.48211   0.00000  Uiso   1.00
C217   C     0.16626   0.66505   0.24968   0.00000  Uiso   1.00
C218   C     0.16694   0.83473   0.25019   0.00000  Uiso   1.00
C219   C     0.20967   0.76381   0.05964   0.00000  Uiso   1.00
C220   C     0.15007   0.71361   0.44389   0.00000  Uiso   1.00
C221   C     0.20866   0.76488   0.11013   0.00000  Uiso   1.00
C222   C     0.14882   0.71439   0.39313   0.00000  Uiso   1.00
C223   C     0.12493   0.73332   0.09862   0.00000  Uiso   1.00
C224   C     0.18704   0.78537   0.39856   0.00000  Uiso   1.00
C225   C     0.12214   0.73672   0.04751   0.00000  Uiso   1.00
C226   C     0.18308   0.78794   0.44884   0.00000  Uiso   1.00
C227   C     0.16578   0.75058   0.02714   0.00000  Uiso   1.00
C228   C     0.16620   0.75093   0.47275   0.00000  Uiso   1.00
C229   C     0.06789   0.74992   0.23750   0.00000  Uiso   1.00
C230   C     0.26544   0.75000   0.26250   0.00000  Uiso   1.00
C231   C     0.01252   0.74974   0.23068   0.00000  Uiso   1.00
C232   C     0.32081   0.75016   0.26931   0.00000  Uiso   1.00
C233   C     0.13415   0.54776   0.27690   0.00000  Uiso   1.00
C234   C     0.20893   0.95177   0.23814   0.00000  Uiso   1.00
C235   C     0.13251   0.59355   0.27556   0.00000  Uiso   1.00
C236   C     0.20885   0.90590   0.23693   0.00000  Uiso   1.00
C237   C     0.16535   0.61687   0.24872   0.00000  Uiso   1.00
C238   C     0.16683   0.88253   0.25044   0.00000  Uiso   1.00
C239   C     0.19687   0.59342   0.22050   0.00000  Uiso   1.00
C240   C     0.12420   0.90521   0.26329   0.00000  Uiso   1.00
C241   C     0.19534   0.54754   0.21954   0.00000  Uiso   1.00
C242   C     0.12307   0.95101   0.26111   0.00000  Uiso   1.00
C243   C     0.16512   0.52403   0.24865   0.00000  Uiso   1.00
C244   C     0.16571   0.97504   0.24933   0.00000  Uiso   1.00
Cu245  Cu    0.16667   0.74999   0.29821   0.00000  Uiso   1.00
Cu246  Cu    0.16667   0.75000   0.20178   0.00000  Uiso   1.00
H247   H     0.32565   0.74919   0.19369   0.00000  Uiso   1.00
H248   H     0.00770   0.75071   0.30630   0.00000  Uiso   1.00
H249   H     0.11068   0.53116   0.30020   0.00000  Uiso   1.00
H250   H     0.24319   0.96877   0.23041   0.00000  Uiso   1.00
H251   H     0.21819   0.53065   0.19581   0.00000  Uiso   1.00
H252   H     0.08828   0.96730   0.26818   0.00000  Uiso   1.00
H253   H     0.24454   0.77406   0.04600   0.00000  Uiso   1.00
H254   H     0.13763   0.68396   0.46045   0.00000  Uiso   1.00
H255   H     0.24217   0.77713   0.13383   0.00000  Uiso   1.00
H256   H     0.13443   0.68586   0.37205   0.00000  Uiso   1.00
N257   N     0.16667   0.75001   0.12934   0.00000  Uiso   1.00
N258   N     0.16667   0.74999   0.37065   0.00000  Uiso   1.00
O259   O     0.16667   0.68572   0.29071   0.00000  Uiso   1.00
O260   O     0.16666   0.81427   0.20928   0.00000  Uiso   1.00
O261   O     0.16667   0.68573   0.20928   0.00000  Uiso   1.00
O262   O     0.16666   0.81427   0.29072   0.00000  Uiso   1.00
O263   O     0.09161   0.74999   0.28132   0.00000  Uiso   1.00
O264   O     0.24172   0.75000   0.21868   0.00000  Uiso   1.00
O265   O     0.09161   0.75000   0.19988   0.00000  Uiso   1.00
O266   O     0.24172   0.75000   0.30011   0.00000  Uiso   1.00
Br267  Br    0.08100   0.62184   0.30753   0.00000  Uiso   1.00
Br268  Br    0.26715   0.87657   0.21681   0.00000  Uiso   1.00
Br269  Br    0.24470   0.62179   0.18402   0.00000  Uiso   1.00
Br270  Br    0.06579   0.87487   0.28224   0.00000  Uiso   1.00
O271   O     0.08409   0.71458   0.11759   0.00000  Uiso   1.00
C272   C     0.08739   0.66810   0.11453   0.00000  Uiso   1.00
H273   H     0.12709   0.65601   0.12740   0.00000  Uiso   1.00
H274   H     0.07589   0.65652   0.07650   0.00000  Uiso   1.00
C275   C     0.05068   0.64742   0.14580   0.00000  Uiso   1.00
H276   H     0.01048   0.65787   0.13291   0.00000  Uiso   1.00
H277   H     0.05275   0.61089   0.14355   0.00000  Uiso   1.00
H278   H     0.06136   0.65786   0.18429   0.00000  Uiso   1.00
O279   O     0.21056   0.81946   0.37729   0.00000  Uiso   1.00
C280   C     0.26474   0.81548   0.38908   0.00000  Uiso   1.00
H281   H     0.27805   0.78129   0.38299   0.00000  Uiso   1.00
H282   H     0.27761   0.82474   0.42767   0.00000  Uiso   1.00
C283   C     0.29094   0.84654   0.35744   0.00000  Uiso   1.00
H284   H     0.27908   0.88109   0.36318   0.00000  Uiso   1.00
H285   H     0.00017   0.84415   0.36693   0.00000  Uiso   1.00
H286   H     0.27999   0.83745   0.31862   0.00000  Uiso   1.00
Br287  Br    0.05653   0.72671   0.00741   0.00000  Uiso   1.00
Br288  Br    0.19594   0.84385   0.48211   0.00000  Uiso   1.00
C289   C     0.49960   0.66505   0.24968   0.00000  Uiso   1.00
C290   C     0.50027   0.83473   0.25019   0.00000  Uiso   1.00
C291   C     0.54300   0.76381   0.05964   0.00000  Uiso   1.00
C292   C     0.48340   0.71361   0.44389   0.00000  Uiso   1.00
C293   C     0.54200   0.76488   0.11013   0.00000  Uiso   1.00
C294   C     0.48216   0.71439   0.39313   0.00000  Uiso   1.00
C295   C     0.45826   0.73332   0.09862   0.00000  Uiso   1.00
C296   C     0.52037   0.78537   0.39856   0.00000  Uiso   1.00
C297   C     0.45548   0.73672   0.04751   0.00000  Uiso   1.00
C298   C     0.51641   0.78794   0.44884   0.00000  Uiso   1.00
C299   C     0.49911   0.75058   0.02714   0.00000  Uiso   1.00
C300   C     0.49954   0.75093   0.47275   0.00000  Uiso   1.00
C301   C     0.40123   0.74992   0.23750   0.00000  Uiso   1.00
C302   C     0.59877   0.75000   0.26250   0.00000  Uiso   1.00
C303   C     0.34585   0.74974   0.23068   0.00000  Uiso   1.00
C304   C     0.65415   0.75016   0.26931   0.00000  Uiso   1.00
C305   C     0.46749   0.54776   0.27690   0.00000  Uiso   1.00
C306   C     0.54226   0.95177   0.23814   0.00000  Uiso   1.00
C307   C     0.46584   0.59355   0.27556   0.00000  Uiso   1.00
C308   C     0.54218   0.90590   0.23693   0.00000  Uiso   1.00
C309   C     0.49868   0.61687   0.24872   0.00000  Uiso   1.00
C310   C     0.50016   0.88253   0.25044   0.00000  Uiso   1.00
C311   C     0.53020   0.59342   0.22050   0.00000  Uiso   1.00
C312   C     0.45754   0.90521   0.26329   0.00000  Uiso   1.00
C313   C     0.52867   0.54754   0.21954   0.00000  Uiso   1.00
C314   C     0.45640   0.95101   0.26111   0.00000  Uiso   1.00
C315   C     0.49846   0.52403   0.24865   0.00000  Uiso   1.00
C316   C     0.49904   0.97504   0.24933   0.00000  Uiso   1.00
Cu317  Cu    0.50000   0.74999   0.29821   0.00000  Uiso   1.00
Cu318  Cu    0.50000   0.75000   0.20178   0.00000  Uiso   1.00
H319   H     0.65898   0.74919   0.19369   0.00000  Uiso   1.00
H320   H     0.34103   0.75071   0.30630   0.00000  Uiso   1.00
H321   H     0.44402   0.53116   0.30020   0.00000  Uiso   1.00
H322   H     0.57652   0.96877   0.23041   0.00000  Uiso   1.00
H323   H     0.55152   0.53065   0.19581   0.00000  Uiso   1.00
H324   H     0.42161   0.96730   0.26818   0.00000  Uiso   1.00
H325   H     0.57788   0.77406   0.04600   0.00000  Uiso   1.00
H326   H     0.47096   0.68396   0.46045   0.00000  Uiso   1.00
H327   H     0.57551   0.77713   0.13383   0.00000  Uiso   1.00
H328   H     0.46776   0.68586   0.37205   0.00000  Uiso   1.00
N329   N     0.50000   0.75001   0.12934   0.00000  Uiso   1.00
N330   N     0.50000   0.74999   0.37065   0.00000  Uiso   1.00
O331   O     0.50000   0.68572   0.29071   0.00000  Uiso   1.00
O332   O     0.50000   0.81427   0.20928   0.00000  Uiso   1.00
O333   O     0.50000   0.68573   0.20928   0.00000  Uiso   1.00
O334   O     0.50000   0.81427   0.29072   0.00000  Uiso   1.00
O335   O     0.42495   0.74999   0.28132   0.00000  Uiso   1.00
O336   O     0.57505   0.75000   0.21868   0.00000  Uiso   1.00
O337   O     0.42495   0.75000   0.19988   0.00000  Uiso   1.00
O338   O     0.57505   0.75000   0.30011   0.00000  Uiso   1.00
Br339  Br    0.41434   0.62184   0.30753   0.00000  Uiso   1.00
Br340  Br    0.60048   0.87657   0.21681   0.00000  Uiso   1.00
Br341  Br    0.57803   0.62179   0.18402   0.00000  Uiso   1.00
Br342  Br    0.39912   0.87487   0.28224   0.00000  Uiso   1.00
O343   O     0.41742   0.71458   0.11759   0.00000  Uiso   1.00
C344   C     0.42073   0.66810   0.11453   0.00000  Uiso   1.00
H345   H     0.46042   0.65601   0.12740   0.00000  Uiso   1.00
H346   H     0.40922   0.65652   0.07650   0.00000  Uiso   1.00
C347   C     0.38402   0.64742   0.14580   0.00000  Uiso   1.00
H348   H     0.34382   0.65787   0.13291   0.00000  Uiso   1.00
H349   H     0.38608   0.61089   0.14355   0.00000  Uiso   1.00
H350   H     0.39470   0.65786   0.18429   0.00000  Uiso   1.00
O351   O     0.54389   0.81946   0.37729   0.00000  Uiso   1.00
C352   C     0.59808   0.81548   0.38908   0.00000  Uiso   1.00
H353   H     0.61139   0.78129   0.38299   0.00000  Uiso   1.00
H354   H     0.61095   0.82474   0.42767   0.00000  Uiso   1.00
C355   C     0.62427   0.84654   0.35744   0.00000  Uiso   1.00
H356   H     0.61241   0.88109   0.36318   0.00000  Uiso   1.00
H357   H     0.33351   0.84415   0.36693   0.00000  Uiso   1.00
H358   H     0.61332   0.83745   0.31862   0.00000  Uiso   1.00
Br359  Br    0.38986   0.72671   0.00741   0.00000  Uiso   1.00
Br360  Br    0.52928   0.84385   0.48211   0.00000  Uiso   1.00
C361   C     0.83293   0.66505   0.24968   0.00000  Uiso   1.00
C362   C     0.83360   0.83473   0.25019   0.00000  Uiso   1.00
C363   C     0.87633   0.76381   0.05964   0.00000  Uiso   1.00
C364   C     0.81674   0.71361   0.44389   0.00000  Uiso   1.00
C365   C     0.87533   0.76488   0.11013   0.00000  Uiso   1.00
C366   C     0.81549   0.71439   0.39313   0.00000  Uiso   1.00
C367   C     0.79159   0.73332   0.09862   0.00000  Uiso   1.00
C368   C     0.85371   0.78537   0.39856   0.00000  Uiso   1.00
C369   C     0.78881   0.73672   0.04751   0.00000  Uiso   1.00
C370   C     0.84975   0.78794   0.44884   0.00000  Uiso   1.00
C371   C     0.83245   0.75058   0.02714   0.00000  Uiso   1.00
C372   C     0.83287   0.75093   0.47275   0.00000  Uiso   1.00
C373   C     0.73456   0.74992   0.23750   0.00000  Uiso   1.00
C374   C     0.93210   0.75000   0.26250   0.00000  Uiso   1.00
C375   C     0.67919   0.74974   0.23068   0.00000  Uiso   1.00
C376   C     0.98748   0.75016   0.26931   0.00000  Uiso   1.00
C377   C     0.80082   0.54776   0.27690   0.00000  Uiso   1.00
C378   C     0.87559   0.95177   0.23814   0.00000  Uiso   1.00
C379   C     0.79918   0.59355   0.27556   0.00000  Uiso   1.00
C380   C     0.87552   0.90590   0.23693   0.00000  Uiso   1.00
C381   C     0.83202   0.61687   0.24872   0.00000  Uiso   1.00
C382   C     0.83349   0.88253   0.25044   0.00000  Uiso   1.00
C383   C     0.86353   0.59342   0.22050   0.00000  Uiso   1.00
C384   C     0.79087   0.90521   0.26329   0.00000  Uiso   1.00
C385   C     0.86200   0.54754   0.21954   0.00000  Uiso   1.00
C386   C     0.78974   0.95101   0.26111   0.00000  Uiso   1.00
C387   C     0.83179   0.52403   0.24865   0.00000  Uiso   1.00
C388   C     0.83237   0.97504   0.24933   0.00000  Uiso   1.00
Cu389  Cu    0.83333   0.74999   0.29821   0.00000  Uiso   1.00
Cu390  Cu    0.83333   0.75000   0.20178   0.00000  Uiso   1.00
H391   H     0.99232   0.74919   0.19369   0.00000  Uiso   1.00
H392   H     0.67437   0.75071   0.30630   0.00000  Uiso   1.00
H393   H     0.77735   0.53116   0.30020   0.00000  Uiso   1.00
H394   H     0.90985   0.96877   0.23041   0.00000  Uiso   1.00
H395   H     0.88485   0.53065   0.19581   0.00000  Uiso   1.00
H396   H     0.75495   0.96730   0.26818   0.00000  Uiso   1.00
H397   H     0.91121   0.77406   0.04600   0.00000  Uiso   1.00
H398   H     0.80430   0.68396   0.46045   0.00000  Uiso   1.00
H399   H     0.90884   0.77713   0.13383   0.00000  Uiso   1.00
H400   H     0.80109   0.68586   0.37205   0.00000  Uiso   1.00
N401   N     0.83333   0.75001   0.12934   0.00000  Uiso   1.00
N402   N     0.83333   0.74999   0.37065   0.00000  Uiso   1.00
O403   O     0.83334   0.68572   0.29071   0.00000  Uiso   1.00
O404   O     0.83333   0.81427   0.20928   0.00000  Uiso   1.00
O405   O     0.83334   0.68573   0.20928   0.00000  Uiso   1.00
O406   O     0.83333   0.81427   0.29072   0.00000  Uiso   1.00
O407   O     0.75828   0.74999   0.28132   0.00000  Uiso   1.00
O408   O     0.90839   0.75000   0.21868   0.00000  Uiso   1.00
O409   O     0.75828   0.75000   0.19988   0.00000  Uiso   1.00
O410   O     0.90839   0.75000   0.30011   0.00000  Uiso   1.00
Br411  Br    0.74767   0.62184   0.30753   0.00000  Uiso   1.00
Br412  Br    0.93382   0.87657   0.21681   0.00000  Uiso   1.00
Br413  Br    0.91136   0.62179   0.18402   0.00000  Uiso   1.00
Br414  Br    0.73246   0.87487   0.28224   0.00000  Uiso   1.00
O415   O     0.75076   0.71458   0.11759   0.00000  Uiso   1.00
C416   C     0.75406   0.66810   0.11453   0.00000  Uiso   1.00
H417   H     0.79376   0.65601   0.12740   0.00000  Uiso   1.00
H418   H     0.74255   0.65652   0.07650   0.00000  Uiso   1.00
C419   C     0.71735   0.64742   0.14580   0.00000  Uiso   1.00
H420   H     0.67715   0.65787   0.13291   0.00000  Uiso   1.00
H421   H     0.71941   0.61089   0.14355   0.00000  Uiso   1.00
H422   H     0.72803   0.65786   0.18429   0.00000  Uiso   1.00
O423   O     0.87723   0.81946   0.37729   0.00000  Uiso   1.00
C424   C     0.93141   0.81548   0.38908   0.00000  Uiso   1.00
H425   H     0.94472   0.78129   0.38299   0.00000  Uiso   1.00
H426   H     0.94428   0.82474   0.42767   0.00000  Uiso   1.00
C427   C     0.95760   0.84654   0.35744   0.00000  Uiso   1.00
H428   H     0.94575   0.88109   0.36318   0.00000  Uiso   1.00
H429   H     0.66684   0.84415   0.36693   0.00000  Uiso   1.00
H430   H     0.94665   0.83745   0.31862   0.00000  Uiso   1.00
Br431  Br    0.72320   0.72671   0.00741   0.00000  Uiso   1.00
Br432  Br    0.86261   0.84385   0.48211   0.00000  Uiso   1.00
C433   C     0.16626   0.16505   0.74968   0.00000  Uiso   1.00
C434   C     0.16694   0.33473   0.75019   0.00000  Uiso   1.00
C435   C     0.20967   0.26381   0.55964   0.00000  Uiso   1.00
C436   C     0.15007   0.21361   0.94389   0.00000  Uiso   1.00
C437   C     0.20866   0.26488   0.61013   0.00000  Uiso   1.00
C438   C     0.14882   0.21439   0.89313   0.00000  Uiso   1.00
C439   C     0.12493   0.23332   0.59862   0.00000  Uiso   1.00
C440   C     0.18704   0.28537   0.89856   0.00000  Uiso   1.00
C441   C     0.12214   0.23672   0.54751   0.00000  Uiso   1.00
C442   C     0.18308   0.28794   0.94884   0.00000  Uiso   1.00
C443   C     0.16578   0.25058   0.52714   0.00000  Uiso   1.00
C444   C     0.16620   0.25093   0.97275   0.00000  Uiso   1.00
C445   C     0.06789   0.24992   0.73750   0.00000  Uiso   1.00
C446   C     0.26544   0.25000   0.76250   0.00000  Uiso   1.00
C447   C     0.01252   0.24974   0.73068   0.00000  Uiso   1.00
C448   C     0.32081   0.25016   0.76931   0.00000  Uiso   1.00
C449   C     0.13415   0.04776   0.77690   0.00000  Uiso   1.00
C450   C     0.20893   0.45177   0.73814   0.00000  Uiso   1.00
C451   C     0.13251   0.09355   0.77556   0.00000  Uiso   1.00
C452   C     0.20885   0.40590   0.73693   0.00000  Uiso   1.00
C453   C     0.16535   0.11687   0.74872   0.00000  Uiso   1.00
C454   C     0.16683   0.38253   0.75044   0.00000  Uiso   1.00
C455   C     0.19687   0.09342   0.72050   0.00000  Uiso   1.00
C456   C     0.12420   0.40521   0.76329   0.00000  Uiso   1.00
C457   C     0.19534   0.04754   0.71954   0.00000  Uiso   1.00
C458   C     0.12307   0.45101   0.76111   0.00000  Uiso   1.00
C459   C     0.16512   0.02403   0.74865   0.00000  Uiso   1.00
C460   C     0.16571   0.47504   0.74933   0.00000  Uiso   1.00
Cu461  Cu    0.16667   0.24999   0.79821   0.00000  Uiso   1.00
Cu462  Cu    0.16667   0.25000   0.70178   0.00000  Uiso   1.00
H463   H     0.32565   0.24919   0.69369   0.00000  Uiso   1.00
H464   H     0.00770   0.25071   0.80630   0.00000  Uiso   1.00
H465   H     0.11068   0.03116   0.80020   0.00000  Uiso   1.00
H466   H     0.24319   0.46877   0.73041   0.00000  Uiso   1.00
H467   H     0.21819   0.03065   0.69581   0.00000  Uiso   1.00
H468   H     0.08828   0.46730   0.76818   0.00000  Uiso   1.00
H469   H     0.24454   0.27406   0.54600   0.00000  Uiso   1.00
H470   H     0.13763   0.18396   0.96045   0.00000  Uiso   1.00
H471   H     0.24217   0.27713   0.63383   0.00000  Uiso   1.00
H472   H     0.13443   0.18586   0.87205   0.00000  Uiso   1.00
N473   N     0.16667   0.25001   0.62934   0.00000  Uiso   1.00
N474   N     0.16667   0.24999   0.87065   0.00000  Uiso   1.00
O475   O     0.16667   0.18572   0.79071   0.00000  Uiso   1.00
O476   O     0.16666   0.31427   0.70928   0.00000  Uiso   1.00
O477   O     0.16667   0.18573   0.70928   0.00000  Uiso   1.00
O478   O     0.16666   0.31427   0.79072   0.00000  Uiso   1.00
O479   O     0.09161   0.24999   0.78132   0.00000  Uiso   1.00
O480   O     0.24172   0.25000   0.71868   0.00000  Uiso   1.00
O481   O     0.09161   0.25000   0.69988   0.00000  Uiso   1.00
O482   O     0.24172   0.25000   0.80011   0.00000  Uiso   1.00
Br483  Br    0.08100   0.12184   0.80753   0.00000  Uiso   1.00
Br484  Br    0.26715   0.37657   0.71681   0.00000  Uiso   1.00
Br485  Br    0.24470   0.12179   0.68402   0.00000  Uiso   1.00
Br486  Br    0.06579   0.37487   0.78224   0.00000  Uiso   1.00
O487   O     0.08409   0.21458   0.61759   0.00000  Uiso   1.00
C488   C     0.08739   0.16810   0.61453   0.00000  Uiso   1.00
H489   H     0.12709   0.15601   0.62740   0.00000  Uiso   1.00
H490   H     0.07589   0.15652   0.57650   0.00000  Uiso   1.00
C491   C     0.05068   0.14742   0.64580   0.00000  Uiso   1.00
H492   H     0.01048   0.15787   0.63291   0.00000  Uiso   1.00
H493   H     0.05275   0.11089   0.64355   0.00000  Uiso   1.00
H494   H     0.06136   0.15786   0.68429   0.00000  Uiso   1.00
O495   O     0.21056   0.31946   0.87729   0.00000  Uiso   1.00
C496   C     0.26474   0.31548   0.88908   0.00000  Uiso   1.00
H497   H     0.27805   0.28129   0.88299   0.00000  Uiso   1.00
H498   H     0.27761   0.32474   0.92767   0.00000  Uiso   1.00
C499   C     0.29094   0.34654   0.85744   0.00000  Uiso   1.00
H500   H     0.27908   0.38109   0.86318   0.00000  Uiso   1.00
H501   H     0.00017   0.34415   0.86693   0.00000  Uiso   1.00
H502   H     0.27999   0.33745   0.81862   0.00000  Uiso   1.00
Br503  Br    0.05653   0.22671   0.50741   0.00000  Uiso   1.00
Br504  Br    0.19594   0.34385   0.98211   0.00000  Uiso   1.00
C505   C     0.49960   0.16505   0.74968   0.00000  Uiso   1.00
C506   C     0.50027   0.33473   0.75019   0.00000  Uiso   1.00
C507   C     0.54300   0.26381   0.55964   0.00000  Uiso   1.00
C508   C     0.48340   0.21361   0.94389   0.00000  Uiso   1.00
C509   C     0.54200   0.26488   0.61013   0.00000  Uiso   1.00
C510   C     0.48216   0.21439   0.89313   0.00000  Uiso   1.00
C511   C     0.45826   0.23332   0.59862   0.00000  Uiso   1.00
C512   C     0.52037   0.28537   0.89856   0.00000  Uiso   1.00
C513   C     0.45548   0.23672   0.54751   0.00000  Uiso   1.00
C514   C     0.51641   0.28794   0.94884   0.00000  Uiso   1.00
C515   C     0.49911   0.25058   0.52714   0.00000  Uiso   1.00
C516   C     0.49954   0.25093   0.97275   0.00000  Uiso   1.00
C517   C     0.40123   0.24992   0.73750   0.00000  Uiso   1.00
C518   C     0.59877   0.25000   0.76250   0.00000  Uiso   1.00
C519   C     0.34585   0.24974   0.73068   0.00000  Uiso   1.00
C520   C     0.65415   0.25016   0.76931   0.00000  Uiso   1.00
C521   C     0.46749   0.04776   0.77690   0.00000  Uiso   1.00
C522   C     0.54226   0.45177   0.73814   0.00000  Uiso   1.00
C523   C     0.46584   0.09355   0.77556   0.00000  Uiso   1.00
C524   C     0.54218   0.40590   0.73693   0.00000  Uiso   1.00
C525   C     0.49868   0.11687   0.74872   0.00000  Uiso   1.00
C526   C     0.50016   0.38253   0.75044   0.00000  Uiso   1.00
C527   C     0.53020   0.09342   0.72050   0.00000  Uiso   1.00
C528   C     0.45754   0.40521   0.76329   0.00000  Uiso   1.00
C529   C     0.52867   0.04754   0.71954   0.00000  Uiso   1.00
C530   C     0.45640   0.45101   0.76111   0.00000  Uiso   1.00
C531   C     0.49846   0.02403   0.74865   0.00000  Uiso   1.00
C532   C     0.49904   0.47504   0.74933   0.00000  Uiso   1.00
Cu533  Cu    0.50000   0.24999   0.79821   0.00000  Uiso   1.00
Cu534  Cu    0.50000   0.25000   0.70178   0.00000  Uiso   1.00
H535   H     0.65898   0.24919   0.69369   0.00000  Uiso   1.00
H536   H     0.34103   0.25071   0.80630   0.00000  Uiso   1.00
H537   H     0.44402   0.03116   0.80020   0.00000  Uiso   1.00
H538   H     0.57652   0.46877   0.73041   0.00000  Uiso   1.00
H539   H     0.55152   0.03065   0.69581   0.00000  Uiso   1.00
H540   H     0.42161   0.46730   0.76818   0.00000  Uiso   1.00
H541   H     0.57788   0.27406   0.54600   0.00000  Uiso   1.00
H542   H     0.47096   0.18396   0.96045   0.00000  Uiso   1.00
H543   H     0.57551   0.27713   0.63383   0.00000  Uiso   1.00
H544   H     0.46776   0.18586   0.87205   0.00000  Uiso   1.00
N545   N     0.50000   0.25001   0.62934   0.00000  Uiso   1.00
N546   N     0.50000   0.24999   0.87065   0.00000  Uiso   1.00
O547   O     0.50000   0.18572   0.79071   0.00000  Uiso   1.00
O548   O     0.50000   0.31427   0.70928   0.00000  Uiso   1.00
O549   O     0.50000   0.18573   0.70928   0.00000  Uiso   1.00
O550   O     0.50000   0.31427   0.79072   0.00000  Uiso   1.00
O551   O     0.42495   0.24999   0.78132   0.00000  Uiso   1.00
O552   O     0.57505   0.25000   0.71868   0.00000  Uiso   1.00
O553   O     0.42495   0.25000   0.69988   0.00000  Uiso   1.00
O554   O     0.57505   0.25000   0.80011   0.00000  Uiso   1.00
Br555  Br    0.41434   0.12184   0.80753   0.00000  Uiso   1.00
Br556  Br    0.60048   0.37657   0.71681   0.00000  Uiso   1.00
Br557  Br    0.57803   0.12179   0.68402   0.00000  Uiso   1.00
Br558  Br    0.39912   0.37487   0.78224   0.00000  Uiso   1.00
O559   O     0.41742   0.21458   0.61759   0.00000  Uiso   1.00
C560   C     0.42073   0.16810   0.61453   0.00000  Uiso   1.00
H561   H     0.46042   0.15601   0.62740   0.00000  Uiso   1.00
H562   H     0.40922   0.15652   0.57650   0.00000  Uiso   1.00
C563   C     0.38402   0.14742   0.64580   0.00000  Uiso   1.00
H564   H     0.34382   0.15787   0.63291   0.00000  Uiso   1.00
H565   H     0.38608   0.11089   0.64355   0.00000  Uiso   1.00
H566   H     0.39470   0.15786   0.68429   0.00000  Uiso   1.00
O567   O     0.54389   0.31946   0.87729   0.00000  Uiso   1.00
C568   C     0.59808   0.31548   0.88908   0.00000  Uiso   1.00
H569   H     0.61139   0.28129   0.88299   0.00000  Uiso   1.00
H570   H     0.61095   0.32474   0.92767   0.00000  Uiso   1.00
C571   C     0.62427   0.34654   0.85744   0.00000  Uiso   1.00
H572   H     0.61241   0.38109   0.86318   0.00000  Uiso   1.00
H573   H     0.33351   0.34415   0.86693   0.00000  Uiso   1.00
H574   H     0.61332   0.33745   0.81862   0.00000  Uiso   1.00
Br575  Br    0.38986   0.22671   0.50741   0.00000  Uiso   1.00
Br576  Br    0.52928   0.34385   0.98211   0.00000  Uiso   1.00
C577   C     0.83293   0.16505   0.74968   0.00000  Uiso   1.00
C578   C     0.83360   0.33473   0.75019   0.00000  Uiso   1.00
C579   C     0.87633   0.26381   0.55964   0.00000  Uiso   1.00
C580   C     0.81674   0.21361   0.94389   0.00000  Uiso   1.00
C581   C     0.87533   0.26488   0.61013   0.00000  Uiso   1.00
C582   C     0.81549   0.21439   0.89313   0.00000  Uiso   1.00
C583   C     0.79159   0.23332   0.59862   0.00000  Uiso   1.00
C584   C     0.85371   0.28537   0.89856   0.00000  Uiso   1.00
C585   C     0.78881   0.23672   0.54751   0.00000  Uiso   1.00
C586   C     0.84975   0.28794   0.94884   0.00000  Uiso   1.00
C587   C     0.83245   0.25058   0.52714   0.00000  Uiso   1.00
C588   C     0.83287   0.25093   0.97275   0.00000  Uiso   1.00
C589   C     0.73456   0.24992   0.73750   0.00000  Uiso   1.00
C590   C     0.93210   0.25000   0.76250   0.00000  Uiso   1.00
C591   C     0.67919   0.24974   0.73068   0.00000  Uiso   1.00
C592   C     0.98748   0.25016   0.76931   0.00000  Uiso   1.00
C593   C     0.80082   0.04776   0.77690   0.00000  Uiso   1.00
C594   C     0.87559   0.45177   0.73814   0.00000  Uiso   1.00
C595   C     0.79918   0.09355   0.77556   0.00000  Uiso   1.00
C596   C     0.87552   0.40590   0.73693   0.00000  Uiso   1.00
C597   C     0.83202   0.11687   0.74872   0.00000  Uiso   1.00
C598   C     0.83349   0.38253   0.75044   0.00000  Uiso   1.00
C599   C     0.86353   0.09342   0.72050   0.00000  Uiso   1.00
C600   C     0.79087   0.40521   0.76329   0.00000  Uiso   1.00
C601   C     0.86200   0.04754   0.71954   0.00000  Uiso   1.00
C602   C     0.78974   0.45101   0.76111   0.00000  Uiso   1.00
C603   C     0.83179   0.02403   0.74865   0.00000  Uiso   1.00
C604   C     0.83237   0.47504   0.74933   0.00000  Uiso   1.00
Cu605  Cu    0.83333   0.24999   0.79821   0.00000  Uiso   1.00
Cu606  Cu    0.83333   0.25000   0.70178   0.00000  Uiso   1.00
H607   H     0.99232   0.24919   0.69369   0.00000  Uiso   1.00
H608   H     0.67437   0.25071   0.80630   0.00000  Uiso   1.00
H609   H     0.77735   0.03116   0.80020   0.00000  Uiso   1.00
H610   H     0.90985   0.46877   0.73041   0.00000  Uiso   1.00
H611   H     0.88485   0.03065   0.69581   0.00000  Uiso   1.00
H612   H     0.75495   0.46730   0.76818   0.00000  Uiso   1.00
H613   H     0.91121   0.27406   0.54600   0.00000  Uiso   1.00
H614   H     0.80430   0.18396   0.96045   0.00000  Uiso   1.00
H615   H     0.90884   0.27713   0.63383   0.00000  Uiso   1.00
H616   H     0.80109   0.18586   0.87205   0.00000  Uiso   1.00
N617   N     0.83333   0.25001   0.62934   0.00000  Uiso   1.00
N618   N     0.83333   0.24999   0.87065   0.00000  Uiso   1.00
O619   O     0.83334   0.18572   0.79071   0.00000  Uiso   1.00
O620   O     0.83333   0.31427   0.70928   0.00000  Uiso   1.00
O621   O     0.83334   0.18573   0.70928   0.00000  Uiso   1.00
O622   O     0.83333   0.31427   0.79072   0.00000  Uiso   1.00
O623   O     0.75828   0.24999   0.78132   0.00000  Uiso   1.00
O624   O     0.90839   0.25000   0.71868   0.00000  Uiso   1.00
O625   O     0.75828   0.25000   0.69988   0.00000  Uiso   1.00
O626   O     0.90839   0.25000   0.80011   0.00000  Uiso   1.00
Br627  Br    0.74767   0.12184   0.80753   0.00000  Uiso   1.00
Br628  Br    0.93382   0.37657   0.71681   0.00000  Uiso   1.00
Br629  Br    0.91136   0.12179   0.68402   0.00000  Uiso   1.00
Br630  Br    0.73246   0.37487   0.78224   0.00000  Uiso   1.00
O631   O     0.75076   0.21458   0.61759   0.00000  Uiso   1.00
C632   C     0.75406   0.16810   0.61453   0.00000  Uiso   1.00
H633   H     0.79376   0.15601   0.62740   0.00000  Uiso   1.00
H634   H     0.74255   0.15652   0.57650   0.00000  Uiso   1.00
C635   C     0.71735   0.14742   0.64580   0.00000  Uiso   1.00
H636   H     0.67715   0.15787   0.63291   0.00000  Uiso   1.00
H637   H     0.71941   0.11089   0.64355   0.00000  Uiso   1.00
H638   H     0.72803   0.15786   0.68429   0.00000  Uiso   1.00
O639   O     0.87723   0.31946   0.87729   0.00000  Uiso   1.00
C640   C     0.93141   0.31548   0.88908   0.00000  Uiso   1.00
H641   H     0.94472   0.28129   0.88299   0.00000  Uiso   1.00
H642   H     0.94428   0.32474   0.92767   0.00000  Uiso   1.00
C643   C     0.95760   0.34654   0.85744   0.00000  Uiso   1.00
H644   H     0.94575   0.38109   0.86318   0.00000  Uiso   1.00
H645   H     0.66684   0.34415   0.86693   0.00000  Uiso   1.00
H646   H     0.94665   0.33745   0.81862   0.00000  Uiso   1.00
Br647  Br    0.72320   0.22671   0.50741   0.00000  Uiso   1.00
Br648  Br    0.86261   0.34385   0.98211   0.00000  Uiso   1.00
C649   C     0.16626   0.66505   0.74968   0.00000  Uiso   1.00
C650   C     0.16694   0.83473   0.75019   0.00000  Uiso   1.00
C651   C     0.20967   0.76381   0.55964   0.00000  Uiso   1.00
C652   C     0.15007   0.71361   0.94389   0.00000  Uiso   1.00
C653   C     0.20866   0.76488   0.61013   0.00000  Uiso   1.00
C654   C     0.14882   0.71439   0.89313   0.00000  Uiso   1.00
C655   C     0.12493   0.73332   0.59862   0.00000  Uiso   1.00
C656   C     0.18704   0.78537   0.89856   0.00000  Uiso   1.00
C657   C     0.12214   0.73672   0.54751   0.00000  Uiso   1.00
C658   C     0.18308   0.78794   0.94884   0.00000  Uiso   1.00
C659   C     0.16578   0.75058   0.52714   0.00000  Uiso   1.00
C660   C     0.16620   0.75093   0.97275   0.00000  Uiso   1.00
C661   C     0.06789   0.74992   0.73750   0.00000  Uiso   1.00
C662   C     0.26544   0.75000   0.76250   0.00000  Uiso   1.00
C663   C     0.01252   0.74974   0.73068   0.00000  Uiso   1.00
C664   C     0.32081   0.75016   0.76931   0.00000  Uiso   1.00
C665   C     0.13415   0.54776   0.77690   0.00000  Uiso   1.00
C666   C     0.20893   0.95177   0.73814   0.00000  Uiso   1.00
C667   C     0.13251   0.59355   0.77556   0.00000  Uiso   1.00
C668   C     0.20885   0.90590   0.73693   0.00000  Uiso   1.00
C669   C     0.16535   0.61687   0.74872   0.00000  Uiso   1.00
C670   C     0.16683   0.88253   0.75044   0.00000  Uiso   1.00
C671   C     0.19687   0.59342   0.72050   0.00000  Uiso   1.00
C672   C     0.12420   0.90521   0.76329   0.00000  Uiso   1.00
C673   C     0.19534   0.54754   0.71954   0.00000  Uiso   1.00
C674   C     0.12307   0.95101   0.76111   0.00000  Uiso   1.00
C675   C     0.16512   0.52403   0.74865   0.00000  Uiso   1.00
C676   C     0.16571   0.97504   0.74933   0.00000  Uiso   1.00
Cu677  Cu    0.16667   0.74999   0.79821   0.00000  Uiso   1.00
Cu678  Cu    0.16667   0.75000   0.70178   0.00000  Uiso   1.00
H679   H     0.32565   0.74919   0.69369   0.00000  Uiso   1.00
H680   H     0.00770   0.75071   0.80630   0.00000  Uiso   1.00
H681   H     0.11068   0.53116   0.80020   0.00000  Uiso   1.00
H682   H     0.24319   0.96877   0.73041   0.00000  Uiso   1.00
H683   H     0.21819   0.53065   0.69581   0.00000  Uiso   1.00
H684   H     0.08828   0.96730   0.76818   0.00000  Uiso   1.00
H685   H     0.24454   0.77406   0.54600   0.00000  Uiso   1.00
H686   H     0.13763   0.68396   0.96045   0.00000  Uiso   1.00
H687   H     0.24217   0.77713   0.63383   0.00000  Uiso   1.00
H688   H     0.13443   0.68586   0.87205   0.00000  Uiso   1.00
N689   N     0.16667   0.75001   0.62934   0.00000  Uiso   1.00
N690   N     0.16667   0.74999   0.87065   0.00000  Uiso   1.00
O691   O     0.16667   0.68572   0.79071   0.00000  Uiso   1.00
O692   O     0.16666   0.81427   0.70928   0.00000  Uiso   1.00
O693   O     0.16667   0.68573   0.70928   0.00000  Uiso   1.00
O694   O     0.16666   0.81427   0.79072   0.00000  Uiso   1.00
O695   O     0.09161   0.74999   0.78132   0.00000  Uiso   1.00
O696   O     0.24172   0.75000   0.71868   0.00000  Uiso   1.00
O697   O     0.09161   0.75000   0.69988   0.00000  Uiso   1.00
O698   O     0.24172   0.75000   0.80011   0.00000  Uiso   1.00
Br699  Br    0.08100   0.62184   0.80753   0.00000  Uiso   1.00
Br700  Br    0.26715   0.87657   0.71681   0.00000  Uiso   1.00
Br701  Br    0.24470   0.62179   0.68402   0.00000  Uiso   1.00
Br702  Br    0.06579   0.87487   0.78224   0.00000  Uiso   1.00
O703   O     0.08409   0.71458   0.61759   0.00000  Uiso   1.00
C704   C     0.08739   0.66810   0.61453   0.00000  Uiso   1.00
H705   H     0.12709   0.65601   0.62740   0.00000  Uiso   1.00
H706   H     0.07589   0.65652   0.57650   0.00000  Uiso   1.00
C707   C     0.05068   0.64742   0.64580   0.00000  Uiso   1.00
H708   H     0.01048   0.65787   0.63291   0.00000  Uiso   1.00
H709   H     0.05275   0.61089   0.64355   0.00000  Uiso   1.00
H710   H     0.06136   0.65786   0.68429   0.00000  Uiso   1.00
O711   O     0.21056   0.81946   0.87729   0.00000  Uiso   1.00
C712   C     0.26474   0.81548   0.88908   0.00000  Uiso   1.00
H713   H     0.27805   0.78129   0.88299   0.00000  Uiso   1.00
H714   H     0.27761   0.82474   0.92767   0.00000  Uiso   1.00
C715   C     0.29094   0.84654   0.85744   0.00000  Uiso   1.00
H716   H     0.27908   0.88109   0.86318   0.00000  Uiso   1.00
H717   H     0.00017   0.84415   0.86693   0.00000  Uiso   1.00
H718   H     0.27999   0.83745   0.81862   0.00000  Uiso   1.00
Br719  Br    0.05653   0.72671   0.50741   0.00000  Uiso   1.00
Br720  Br    0.19594   0.84385   0.98211   0.00000  Uiso   1.00
C721   C     0.49960   0.66505   0.74968   0.00000  Uiso   1.00
C722   C     0.50027   0.83473   0.75019   0.00000  Uiso   1.00
C723   C     0.54300   0.76381   0.55964   0.00000  Uiso   1.00
C724   C     0.48340   0.71361   0.94389   0.00000  Uiso   1.00
C725   C     0.54200   0.76488   0.61013   0.00000  Uiso   1.00
C726   C     0.48216   0.71439   0.89313   0.00000  Uiso   1.00
C727   C     0.45826   0.73332   0.59862   0.00000  Uiso   1.00
C728   C     0.52037   0.78537   0.89856   0.00000  Uiso   1.00
C729   C     0.45548   0.73672   0.54751   0.00000  Uiso   1.00
C730   C     0.51641   0.78794   0.94884   0.00000  Uiso   1.00
C731   C     0.49911   0.75058   0.52714   0.00000  Uiso   1.00
C732   C     0.49954   0.75093   0.97275   0.00000  Uiso   1.00
C733   C     0.40123   0.74992   0.73750   0.00000  Uiso   1.00
C734   C     0.59877   0.75000   0.76250   0.00000  Uiso   1.00
C735   C     0.34585   0.74974   0.73068   0.00000  Uiso   1.00
C736   C     0.65415   0.75016   0.76931   0.00000  Uiso   1.00
C737   C     0.46749   0.54776   0.77690   0.00000  Uiso   1.00
C738   C     0.54226   0.95177   0.73814   0.00000  Uiso   1.00
C739   C     0.46584   0.59355   0.77556   0.00000  Uiso   1.00
C740   C     0.54218   0.90590   0.73693   0.00000  Uiso   1.00
C741   C     0.49868   0.61687   0.74872   0.00000  Uiso   1.00
C742   C     0.50016   0.88253   0.75044   0.00000  Uiso   1.00
C743   C     0.53020   0.59342   0.72050   0.00000  Uiso   1.00
C744   C     0.45754   0.90521   0.76329   0.00000  Uiso   1.00
C745   C     0.52867   0.54754   0.71954   0.00000  Uiso   1.00
C746   C     0.45640   0.95101   0.76111   0.00000  Uiso   1.00
C747   C     0.49846   0.52403   0.74865   0.00000  Uiso   1.00
C748   C     0.49904   0.97504   0.74933   0.00000  Uiso   1.00
Cu749  Cu    0.50000   0.74999   0.79821   0.00000  Uiso   1.00
Cu750  Cu    0.50000   0.75000   0.70178   0.00000  Uiso   1.00
H751   H     0.65898   0.74919   0.69369   0.00000  Uiso   1.00
H752   H     0.34103   0.75071   0.80630   0.00000  Uiso   1.00
H753   H     0.44402   0.53116   0.80020   0.00000  Uiso   1.00
H754   H     0.57652   0.96877   0.73041   0.00000  Uiso   1.00
H755   H     0.55152   0.53065   0.69581   0.00000  Uiso   1.00
H756   H     0.42161   0.96730   0.76818   0.00000  Uiso   1.00
H757   H     0.57788   0.77406   0.54600   0.00000  Uiso   1.00
H758   H     0.47096   0.68396   0.96045   0.00000  Uiso   1.00
H759   H     0.57551   0.77713   0.63383   0.00000  Uiso   1.00
H760   H     0.46776   0.68586   0.87205   0.00000  Uiso   1.00
N761   N     0.50000   0.75001   0.62934   0.00000  Uiso   1.00
N762   N     0.50000   0.74999   0.87065   0.00000  Uiso   1.00
O763   O     0.50000   0.68572   0.79071   0.00000  Uiso   1.00
O764   O     0.50000   0.81427   0.70928   0.00000  Uiso   1.00
O765   O     0.50000   0.68573   0.70928   0.00000  Uiso   1.00
O766   O     0.50000   0.81427   0.79072   0.00000  Uiso   1.00
O767   O     0.42495   0.74999   0.78132   0.00000  Uiso   1.00
O768   O     0.57505   0.75000   0.71868   0.00000  Uiso   1.00
O769   O     0.42495   0.75000   0.69988   0.00000  Uiso   1.00
O770   O     0.57505   0.75000   0.80011   0.00000  Uiso   1.00
Br771  Br    0.41434   0.62184   0.80753   0.00000  Uiso   1.00
Br772  Br    0.60048   0.87657   0.71681   0.00000  Uiso   1.00
Br773  Br    0.57803   0.62179   0.68402   0.00000  Uiso   1.00
Br774  Br    0.39912   0.87487   0.78224   0.00000  Uiso   1.00
O775   O     0.41742   0.71458   0.61759   0.00000  Uiso   1.00
C776   C     0.42073   0.66810   0.61453   0.00000  Uiso   1.00
H777   H     0.46042   0.65601   0.62740   0.00000  Uiso   1.00
H778   H     0.40922   0.65652   0.57650   0.00000  Uiso   1.00
C779   C     0.38402   0.64742   0.64580   0.00000  Uiso   1.00
H780   H     0.34382   0.65787   0.63291   0.00000  Uiso   1.00
H781   H     0.38608   0.61089   0.64355   0.00000  Uiso   1.00
H782   H     0.39470   0.65786   0.68429   0.00000  Uiso   1.00
O783   O     0.54389   0.81946   0.87729   0.00000  Uiso   1.00
C784   C     0.59808   0.81548   0.88908   0.00000  Uiso   1.00
H785   H     0.61139   0.78129   0.88299   0.00000  Uiso   1.00
H786   H     0.61095   0.82474   0.92767   0.00000  Uiso   1.00
C787   C     0.62427   0.84654   0.85744   0.00000  Uiso   1.00
H788   H     0.61241   0.88109   0.86318   0.00000  Uiso   1.00
H789   H     0.33351   0.84415   0.86693   0.00000  Uiso   1.00
H790   H     0.61332   0.83745   0.81862   0.00000  Uiso   1.00
Br791  Br    0.38986   0.72671   0.50741   0.00000  Uiso   1.00
Br792  Br    0.52928   0.84385   0.98211   0.00000  Uiso   1.00
C793   C     0.83293   0.66505   0.74968   0.00000  Uiso   1.00
C794   C     0.83360   0.83473   0.75019   0.00000  Uiso   1.00
C795   C     0.87633   0.76381   0.55964   0.00000  Uiso   1.00
C796   C     0.81674   0.71361   0.94389   0.00000  Uiso   1.00
C797   C     0.87533   0.76488   0.61013   0.00000  Uiso   1.00
C798   C     0.81549   0.71439   0.89313   0.00000  Uiso   1.00
C799   C     0.79159   0.73332   0.59862   0.00000  Uiso   1.00
C800   C     0.85371   0.78537   0.89856   0.00000  Uiso   1.00
C801   C     0.78881   0.73672   0.54751   0.00000  Uiso   1.00
C802   C     0.84975   0.78794   0.94884   0.00000  Uiso   1.00
C803   C     0.83245   0.75058   0.52714   0.00000  Uiso   1.00
C804   C     0.83287   0.75093   0.97275   0.00000  Uiso   1.00
C805   C     0.73456   0.74992   0.73750   0.00000  Uiso   1.00
C806   C     0.93210   0.75000   0.76250   0.00000  Uiso   1.00
C807   C     0.67919   0.74974   0.73068   0.00000  Uiso   1.00
C808   C     0.98748   0.75016   0.76931   0.00000  Uiso   1.00
C809   C     0.80082   0.54776   0.77690   0.00000  Uiso   1.00
C810   C     0.87559   0.95177   0.73814   0.00000  Uiso   1.00
C811   C     0.79918   0.59355   0.77556   0.00000  Uiso   1.00
C812   C     0.87552   0.90590   0.73693   0.00000  Uiso   1.00
C813   C     0.83202   0.61687   0.74872   0.00000  Uiso   1.00
C814   C     0.83349   0.88253   0.75044   0.00000  Uiso   1.00
C815   C     0.86353   0.59342   0.72050   0.00000  Uiso   1.00
C816   C     0.79087   0.90521   0.76329   0.00000  Uiso   1.00
C817   C     0.86200   0.54754   0.71954   0.00000  Uiso   1.00
C818   C     0.78974   0.95101   0.76111   0.00000  Uiso   1.00
C819   C     0.83179   0.52403   0.74865   0.00000  Uiso   1.00
C820   C     0.83237   0.97504   0.74933   0.00000  Uiso   1.00
Cu821  Cu    0.83333   0.74999   0.79821   0.00000  Uiso   1.00
Cu822  Cu    0.83333   0.75000   0.70178   0.00000  Uiso   1.00
H823   H     0.99232   0.74919   0.69369   0.00000  Uiso   1.00
H824   H     0.67437   0.75071   0.80630   0.00000  Uiso   1.00
H825   H     0.77735   0.53116   0.80020   0.00000  Uiso   1.00
H826   H     0.90985   0.96877   0.73041   0.00000  Uiso   1.00
H827   H     0.88485   0.53065   0.69581   0.00000  Uiso   1.00
H828   H     0.75495   0.96730   0.76818   0.00000  Uiso   1.00
H829   H     0.91121   0.77406   0.54600   0.00000  Uiso   1.00
H830   H     0.80430   0.68396   0.96045   0.00000  Uiso   1.00
H831   H     0.90884   0.77713   0.63383   0.00000  Uiso   1.00
H832   H     0.80109   0.68586   0.87205   0.00000  Uiso   1.00
N833   N     0.83333   0.75001   0.62934   0.00000  Uiso   1.00
N834   N     0.83333   0.74999   0.87065   0.00000  Uiso   1.00
O835   O     0.83334   0.68572   0.79071   0.00000  Uiso   1.00
O836   O     0.83333   0.81427   0.70928   0.00000  Uiso   1.00
O837   O     0.83334   0.68573   0.70928   0.00000  Uiso   1.00
O838   O     0.83333   0.81427   0.79072   0.00000  Uiso   1.00
O839   O     0.75828   0.74999   0.78132   0.00000  Uiso   1.00
O840   O     0.90839   0.75000   0.71868   0.00000  Uiso   1.00
O841   O     0.75828   0.75000   0.69988   0.00000  Uiso   1.00
O842   O     0.90839   0.75000   0.80011   0.00000  Uiso   1.00
Br843  Br    0.74767   0.62184   0.80753   0.00000  Uiso   1.00
Br844  Br    0.93382   0.87657   0.71681   0.00000  Uiso   1.00
Br845  Br    0.91136   0.62179   0.68402   0.00000  Uiso   1.00
Br846  Br    0.73246   0.87487   0.78224   0.00000  Uiso   1.00
O847   O     0.75076   0.71458   0.61759   0.00000  Uiso   1.00
C848   C     0.75406   0.66810   0.61453   0.00000  Uiso   1.00
H849   H     0.79376   0.65601   0.62740   0.00000  Uiso   1.00
H850   H     0.74255   0.65652   0.57650   0.00000  Uiso   1.00
C851   C     0.71735   0.64742   0.64580   0.00000  Uiso   1.00
H852   H     0.67715   0.65787   0.63291   0.00000  Uiso   1.00
H853   H     0.71941   0.61089   0.64355   0.00000  Uiso   1.00
H854   H     0.72803   0.65786   0.68429   0.00000  Uiso   1.00
O855   O     0.87723   0.81946   0.87729   0.00000  Uiso   1.00
C856   C     0.93141   0.81548   0.88908   0.00000  Uiso   1.00
H857   H     0.94472   0.78129   0.88299   0.00000  Uiso   1.00
H858   H     0.94428   0.82474   0.92767   0.00000  Uiso   1.00
C859   C     0.95760   0.84654   0.85744   0.00000  Uiso   1.00
H860   H     0.94575   0.88109   0.86318   0.00000  Uiso   1.00
H861   H     0.66684   0.84415   0.86693   0.00000  Uiso   1.00
H862   H     0.94665   0.83745   0.81862   0.00000  Uiso   1.00
Br863  Br    0.72320   0.72671   0.50741   0.00000  Uiso   1.00
Br864  Br    0.86261   0.84385   0.98211   0.00000  Uiso   1.00
loop_
_geom_bond_atom_site_label_1
_geom_bond_atom_site_label_2
_geom_bond_distance
_geom_bond_site_symmetry_2
_ccdc_geom_bond_type
C1     C21     1.460   .     S
C1     O45     1.293   .     A
C1     O43     1.297   .     A
C2     C22     1.448   .     S
C2     O46     1.292   .     A
C2     O44     1.291   .     A
C3     C5      1.409   .     A
C3     H37     1.083   .     S
C3     C11     1.410   .     A
C4     C12     1.409   .     A
C4     H38     1.083   .     S
C4     C6      1.409   .     A
C5     H39     1.080   .     S
C5     N41     1.365   .     A
C6     H40     1.076   .     S
C6     N42     1.365   .     A
C7     O55     1.380   .     S
C7     N41     1.377   .     A
C7     C9      1.418   .     A
C8     N42     1.377   .     A
C8     O63     1.380   .     S
C8     C10     1.419   .     A
C9     C11     1.410   .     A
C9     Br71    1.929   .     S
C10    C12     1.409   .     A
C10    Br72    1.928   .     S
C11    C444    1.515   1_554 S
C12    C443    1.515   .     S
C13    O49     1.292   .     A
C13    C15     1.434   .     S
C13    O47     1.286   .     A
C14    O50     1.292   .     A
C14    C16     1.434   .     S
C14    O48     1.286   .     A
C15    C160    1.337   1_455 S
C15    H175    1.087   1_455 S
C16    C87     1.337   .     S
C16    H104    1.087   .     S
C17    C19     1.390   .     A
C17    C27     1.405   .     A
C17    H33     1.080   .     S
C18    H34     1.081   .     S
C18    C28     1.408   .     A
C18    C20     1.390   .     A
C19    Br51    1.921   .     S
C19    C21     1.408   .     A
C20    Br52    1.920   .     S
C20    C22     1.403   .     A
C21    C23     1.410   .     A
C22    C24     1.402   .     A
C23    C25     1.391   .     A
C23    Br53    1.925   .     S
C24    Br54    1.920   .     S
C24    C26     1.390   .     A
C25    C27     1.406   .     A
C25    H35     1.081   .     S
C26    C28     1.408   .     A
C26    H36     1.080   .     S
C27    C244    1.485   1_545 S
C28    C243    1.485   .     S
Cu29   Cu30    2.683   .     S
Cu29   N42     2.016   .     S
Cu29   O46     1.961   .     S
Cu29   O47     1.953   .     S
Cu29   O50     1.958   .     S
Cu29   O43     1.957   .     S
Cu30   N41     2.016   .     S
Cu30   O45     1.961   .     S
Cu30   O44     1.957   .     S
Cu30   O48     1.953   .     S
Cu30   O49     1.958   .     S
H31    C87     1.087   .     S
H32    C160    1.087   1_455 S
O55    C56     1.414   .     S
C56    C59     1.522   .     S
C56    H57     1.114   .     S
C56    H58     1.111   .     S
C59    H60     1.111   .     S
C59    H61     1.110   .     S
C59    H62     1.110   .     S
O63    C64     1.415   .     S
C64    H65     1.115   .     S
C64    H66     1.111   .     S
C64    C67     1.520   .     S
C67    H70     1.109   .     S
C67    H68     1.111   .     S
C67    H141    1.110   .     S
H69    C211    1.110   1_455 S
C73    C93     1.460   .     S
C73    O117    1.293   .     A
C73    O115    1.297   .     A
C74    C94     1.448   .     S
C74    O118    1.292   .     A
C74    O116    1.291   .     A
C75    C77     1.409   .     A
C75    H109    1.083   .     S
C75    C83     1.410   .     A
C76    C84     1.409   .     A
C76    H110    1.083   .     S
C76    C78     1.409   .     A
C77    H111    1.080   .     S
C77    N113    1.365   .     A
C78    H112    1.076   .     S
C78    N114    1.365   .     A
C79    O127    1.380   .     S
C79    N113    1.377   .     A
C79    C81     1.418   .     A
C80    N114    1.377   .     A
C80    O135    1.380   .     S
C80    C82     1.419   .     A
C81    C83     1.410   .     A
C81    Br143   1.929   .     S
C82    C84     1.409   .     A
C82    Br144   1.928   .     S
C83    C516    1.515   1_554 S
C84    C515    1.515   .     S
C85    O121    1.292   .     A
C85    C87     1.434   .     S
C85    O119    1.286   .     A
C86    O122    1.292   .     A
C86    C88     1.434   .     S
C86    O120    1.286   .     A
C88    C159    1.337   .     S
C88    H176    1.087   .     S
C89    C91     1.390   .     A
C89    C99     1.405   .     A
C89    H105    1.080   .     S
C90    H106    1.081   .     S
C90    C100    1.408   .     A
C90    C92     1.390   .     A
C91    Br123   1.921   .     S
C91    C93     1.408   .     A
C92    Br124   1.920   .     S
C92    C94     1.403   .     A
C93    C95     1.410   .     A
C94    C96     1.402   .     A
C95    C97     1.391   .     A
C95    Br125   1.925   .     S
C96    Br126   1.920   .     S
C96    C98     1.390   .     A
C97    C99     1.406   .     A
C97    H107    1.081   .     S
C98    C100    1.408   .     A
C98    H108    1.080   .     S
C99    C316    1.485   1_545 S
C100   C315    1.485   .     S
Cu101  Cu102   2.683   .     S
Cu101  N114    2.016   .     S
Cu101  O118    1.961   .     S
Cu101  O119    1.953   .     S
Cu101  O122    1.958   .     S
Cu101  O115    1.957   .     S
Cu102  N113    2.016   .     S
Cu102  O117    1.961   .     S
Cu102  O116    1.957   .     S
Cu102  O120    1.953   .     S
Cu102  O121    1.958   .     S
H103   C159    1.087   .     S
O127   C128    1.414   .     S
C128   C131    1.522   .     S
C128   H129    1.114   .     S
C128   H130    1.111   .     S
C131   H132    1.111   .     S
C131   H133    1.110   .     S
C131   H134    1.110   .     S
O135   C136    1.415   .     S
C136   H137    1.115   .     S
C136   H138    1.111   .     S
C136   C139    1.520   .     S
C139   H142    1.109   .     S
C139   H140    1.111   .     S
C139   H213    1.110   .     S
C145   C165    1.460   .     S
C145   O189    1.293   .     A
C145   O187    1.297   .     A
C146   C166    1.448   .     S
C146   O190    1.292   .     A
C146   O188    1.291   .     A
C147   C149    1.409   .     A
C147   H181    1.083   .     S
C147   C155    1.410   .     A
C148   C156    1.409   .     A
C148   H182    1.083   .     S
C148   C150    1.409   .     A
C149   H183    1.080   .     S
C149   N185    1.365   .     A
C150   H184    1.076   .     S
C150   N186    1.365   .     A
C151   O199    1.380   .     S
C151   N185    1.377   .     A
C151   C153    1.418   .     A
C152   N186    1.377   .     A
C152   O207    1.380   .     S
C152   C154    1.419   .     A
C153   C155    1.410   .     A
C153   Br215   1.929   .     S
C154   C156    1.409   .     A
C154   Br216   1.928   .     S
C155   C588    1.515   1_554 S
C156   C587    1.515   .     S
C157   O193    1.292   .     A
C157   C159    1.434   .     S
C157   O191    1.286   .     A
C158   O194    1.292   .     A
C158   C160    1.434   .     S
C158   O192    1.286   .     A
C160   C15     1.337   1_655 S
C160   H32     1.087   1_655 S
C161   C163    1.390   .     A
C161   C171    1.405   .     A
C161   H177    1.080   .     S
C162   H178    1.081   .     S
C162   C172    1.408   .     A
C162   C164    1.390   .     A
C163   Br195   1.921   .     S
C163   C165    1.408   .     A
C164   Br196   1.920   .     S
C164   C166    1.403   .     A
C165   C167    1.410   .     A
C166   C168    1.402   .     A
C167   C169    1.391   .     A
C167   Br197   1.925   .     S
C168   Br198   1.920   .     S
C168   C170    1.390   .     A
C169   C171    1.406   .     A
C169   H179    1.081   .     S
C170   C172    1.408   .     A
C170   H180    1.080   .     S
C171   C388    1.485   1_545 S
C172   C387    1.485   .     S
Cu173  Cu174   2.683   .     S
Cu173  N186    2.016   .     S
Cu173  O190    1.961   .     S
Cu173  O191    1.953   .     S
Cu173  O194    1.958   .     S
Cu173  O187    1.957   .     S
Cu174  N185    2.016   .     S
Cu174  O189    1.961   .     S
Cu174  O188    1.957   .     S
Cu174  O192    1.953   .     S
Cu174  O193    1.958   .     S
H175   C15     1.087   1_655 S
O199   C200    1.414   .     S
C200   C203    1.522   .     S
C200   H201    1.114   .     S
C200   H202    1.111   .     S
C203   H204    1.111   .     S
C203   H205    1.110   .     S
C203   H206    1.110   .     S
O207   C208    1.415   .     S
C208   H209    1.115   .     S
C208   H210    1.111   .     S
C208   C211    1.520   .     S
C211   H214    1.109   .     S
C211   H212    1.111   .     S
C211   H69     1.110   1_655 S
C217   C237    1.460   .     S
C217   O261    1.293   .     A
C217   O259    1.297   .     A
C218   C238    1.448   .     S
C218   O262    1.292   .     A
C218   O260    1.291   .     A
C219   C221    1.409   .     A
C219   H253    1.083   .     S
C219   C227    1.410   .     A
C220   C228    1.409   .     A
C220   H254    1.083   .     S
C220   C222    1.409   .     A
C221   H255    1.080   .     S
C221   N257    1.365   .     A
C222   H256    1.076   .     S
C222   N258    1.365   .     A
C223   O271    1.380   .     S
C223   N257    1.377   .     A
C223   C225    1.418   .     A
C224   N258    1.377   .     A
C224   O279    1.380   .     S
C224   C226    1.419   .     A
C225   C227    1.410   .     A
C225   Br287   1.929   .     S
C226   C228    1.409   .     A
C226   Br288   1.928   .     S
C227   C660    1.515   1_554 S
C228   C659    1.515   .     S
C229   O265    1.292   .     A
C229   C231    1.434   .     S
C229   O263    1.286   .     A
C230   O266    1.292   .     A
C230   C232    1.434   .     S
C230   O264    1.286   .     A
C231   C376    1.337   1_455 S
C231   H391    1.087   1_455 S
C232   C303    1.337   .     S
C232   H320    1.087   .     S
C233   C235    1.390   .     A
C233   C243    1.405   .     A
C233   H249    1.080   .     S
C234   H250    1.081   .     S
C234   C244    1.408   .     A
C234   C236    1.390   .     A
C235   Br267   1.921   .     S
C235   C237    1.408   .     A
C236   Br268   1.920   .     S
C236   C238    1.403   .     A
C237   C239    1.410   .     A
C238   C240    1.402   .     A
C239   C241    1.391   .     A
C239   Br269   1.925   .     S
C240   Br270   1.920   .     S
C240   C242    1.390   .     A
C241   C243    1.406   .     A
C241   H251    1.081   .     S
C242   C244    1.408   .     A
C242   H252    1.080   .     S
C244   C27     1.485   1_565 S
Cu245  Cu246   2.683   .     S
Cu245  N258    2.016   .     S
Cu245  O262    1.961   .     S
Cu245  O263    1.953   .     S
Cu245  O266    1.958   .     S
Cu245  O259    1.957   .     S
Cu246  N257    2.016   .     S
Cu246  O261    1.961   .     S
Cu246  O260    1.957   .     S
Cu246  O264    1.953   .     S
Cu246  O265    1.958   .     S
H247   C303    1.087   .     S
H248   C376    1.087   1_455 S
O271   C272    1.414   .     S
C272   C275    1.522   .     S
C272   H273    1.114   .     S
C272   H274    1.111   .     S
C275   H276    1.111   .     S
C275   H277    1.110   .     S
C275   H278    1.110   .     S
O279   C280    1.415   .     S
C280   H281    1.115   .     S
C280   H282    1.111   .     S
C280   C283    1.520   .     S
C283   H286    1.109   .     S
C283   H284    1.111   .     S
C283   H357    1.110   .     S
H285   C427    1.110   1_455 S
C289   C309    1.460   .     S
C289   O333    1.293   .     A
C289   O331    1.297   .     A
C290   C310    1.448   .     S
C290   O334    1.292   .     A
C290   O332    1.291   .     A
C291   C293    1.409   .     A
C291   H325    1.083   .     S
C291   C299    1.410   .     A
C292   C300    1.409   .     A
C292   H326    1.083   .     S
C292   C294    1.409   .     A
C293   H327    1.080   .     S
C293   N329    1.365   .     A
C294   H328    1.076   .     S
C294   N330    1.365   .     A
C295   O343    1.380   .     S
C295   N329    1.377   .     A
C295   C297    1.418   .     A
C296   N330    1.377   .     A
C296   O351    1.380   .     S
C296   C298    1.419   .     A
C297   C299    1.410   .     A
C297   Br359   1.929   .     S
C298   C300    1.409   .     A
C298   Br360   1.928   .     S
C299   C732    1.515   1_554 S
C300   C731    1.515   .     S
C301   O337    1.292   .     A
C301   C303    1.434   .     S
C301   O335    1.286   .     A
C302   O338    1.292   .     A
C302   C304    1.434   .     S
C302   O336    1.286   .     A
C304   C375    1.337   .     S
C304   H392    1.087   .     S
C305   C307    1.390   .     A
C305   C315    1.405   .     A
C305   H321    1.080   .     S
C306   H322    1.081   .     S
C306   C316    1.408   .     A
C306   C308    1.390   .     A
C307   Br339   1.921   .     S
C307   C309    1.408   .     A
C308   Br340   1.920   .     S
C308   C310    1.403   .     A
C309   C311    1.410   .     A
C310   C312    1.402   .     A
C311   C313    1.391   .     A
C311   Br341   1.925   .     S
C312   Br342   1.920   .     S
C312   C314    1.390   .     A
C313   C315    1.406   .     A
C313   H323    1.081   .     S
C314   C316    1.408   .     A
C314   H324    1.080   .     S
C316   C99     1.485   1_565 S
Cu317  Cu318   2.683   .     S
Cu317  N330    2.016   .     S
Cu317  O334    1.961   .     S
Cu317  O335    1.953   .     S
Cu317  O338    1.958   .     S
Cu317  O331    1.957   .     S
Cu318  N329    2.016   .     S
Cu318  O333    1.961   .     S
Cu318  O332    1.957   .     S
Cu318  O336    1.953   .     S
Cu318  O337    1.958   .     S
H319   C375    1.087   .     S
O343   C344    1.414   .     S
C344   C347    1.522   .     S
C344   H345    1.114   .     S
C344   H346    1.111   .     S
C347   H348    1.111   .     S
C347   H349    1.110   .     S
C347   H350    1.110   .     S
O351   C352    1.415   .     S
C352   H353    1.115   .     S
C352   H354    1.111   .     S
C352   C355    1.520   .     S
C355   H358    1.109   .     S
C355   H356    1.111   .     S
C355   H429    1.110   .     S
C361   C381    1.460   .     S
C361   O405    1.293   .     A
C361   O403    1.297   .     A
C362   C382    1.448   .     S
C362   O406    1.292   .     A
C362   O404    1.291   .     A
C363   C365    1.409   .     A
C363   H397    1.083   .     S
C363   C371    1.410   .     A
C364   C372    1.409   .     A
C364   H398    1.083   .     S
C364   C366    1.409   .     A
C365   H399    1.080   .     S
C365   N401    1.365   .     A
C366   H400    1.076   .     S
C366   N402    1.365   .     A
C367   O415    1.380   .     S
C367   N401    1.377   .     A
C367   C369    1.418   .     A
C368   N402    1.377   .     A
C368   O423    1.380   .     S
C368   C370    1.419   .     A
C369   C371    1.410   .     A
C369   Br431   1.929   .     S
C370   C372    1.409   .     A
C370   Br432   1.928   .     S
C371   C804    1.515   1_554 S
C372   C803    1.515   .     S
C373   O409    1.292   .     A
C373   C375    1.434   .     S
C373   O407    1.286   .     A
C374   O410    1.292   .     A
C374   C376    1.434   .     S
C374   O408    1.286   .     A
C376   C231    1.337   1_655 S
C376   H248    1.087   1_655 S
C377   C379    1.390   .     A
C377   C387    1.405   .     A
C377   H393    1.080   .     S
C378   H394    1.081   .     S
C378   C388    1.408   .     A
C378   C380    1.390   .     A
C379   Br411   1.921   .     S
C379   C381    1.408   .     A
C380   Br412   1.920   .     S
C380   C382    1.403   .     A
C381   C383    1.410   .     A
C382   C384    1.402   .     A
C383   C385    1.391   .     A
C383   Br413   1.925   .     S
C384   Br414   1.920   .     S
C384   C386    1.390   .     A
C385   C387    1.406   .     A
C385   H395    1.081   .     S
C386   C388    1.408   .     A
C386   H396    1.080   .     S
C388   C171    1.485   1_565 S
Cu389  Cu390   2.683   .     S
Cu389  N402    2.016   .     S
Cu389  O406    1.961   .     S
Cu389  O407    1.953   .     S
Cu389  O410    1.958   .     S
Cu389  O403    1.957   .     S
Cu390  N401    2.016   .     S
Cu390  O405    1.961   .     S
Cu390  O404    1.957   .     S
Cu390  O408    1.953   .     S
Cu390  O409    1.958   .     S
H391   C231    1.087   1_655 S
O415   C416    1.414   .     S
C416   C419    1.522   .     S
C416   H417    1.114   .     S
C416   H418    1.111   .     S
C419   H420    1.111   .     S
C419   H421    1.110   .     S
C419   H422    1.110   .     S
O423   C424    1.415   .     S
C424   H425    1.115   .     S
C424   H426    1.111   .     S
C424   C427    1.520   .     S
C427   H430    1.109   .     S
C427   H428    1.111   .     S
C427   H285    1.110   1_655 S
C433   C453    1.460   .     S
C433   O477    1.293   .     A
C433   O475    1.297   .     A
C434   C454    1.448   .     S
C434   O478    1.292   .     A
C434   O476    1.291   .     A
C435   C437    1.409   .     A
C435   H469    1.083   .     S
C435   C443    1.410   .     A
C436   C444    1.409   .     A
C436   H470    1.083   .     S
C436   C438    1.409   .     A
C437   H471    1.080   .     S
C437   N473    1.365   .     A
C438   H472    1.076   .     S
C438   N474    1.365   .     A
C439   O487    1.380   .     S
C439   N473    1.377   .     A
C439   C441    1.418   .     A
C440   N474    1.377   .     A
C440   O495    1.380   .     S
C440   C442    1.419   .     A
C441   C443    1.410   .     A
C441   Br503   1.929   .     S
C442   C444    1.409   .     A
C442   Br504   1.928   .     S
C444   C11     1.515   1_556 S
C445   O481    1.292   .     A
C445   C447    1.434   .     S
C445   O479    1.286   .     A
C446   O482    1.292   .     A
C446   C448    1.434   .     S
C446   O480    1.286   .     A
C447   C592    1.337   1_455 S
C447   H607    1.087   1_455 S
C448   C519    1.337   .     S
C448   H536    1.087   .     S
C449   C451    1.390   .     A
C449   C459    1.405   .     A
C449   H465    1.080   .     S
C450   H466    1.081   .     S
C450   C460    1.408   .     A
C450   C452    1.390   .     A
C451   Br483   1.921   .     S
C451   C453    1.408   .     A
C452   Br484   1.920   .     S
C452   C454    1.403   .     A
C453   C455    1.410   .     A
C454   C456    1.402   .     A
C455   C457    1.391   .     A
C455   Br485   1.925   .     S
C456   Br486   1.920   .     S
C456   C458    1.390   .     A
C457   C459    1.406   .     A
C457   H467    1.081   .     S
C458   C460    1.408   .     A
C458   H468    1.080   .     S
C459   C676    1.485   1_545 S
C460   C675    1.485   .     S
Cu461  Cu462   2.683   .     S
Cu461  N474    2.016   .     S
Cu461  O478    1.961   .     S
Cu461  O479    1.953   .     S
Cu461  O482    1.958   .     S
Cu461  O475    1.957   .     S
Cu462  N473    2.016   .     S
Cu462  O477    1.961   .     S
Cu462  O476    1.957   .     S
Cu462  O480    1.953   .     S
Cu462  O481    1.958   .     S
H463   C519    1.087   .     S
H464   C592    1.087   1_455 S
O487   C488    1.414   .     S
C488   C491    1.522   .     S
C488   H489    1.114   .     S
C488   H490    1.111   .     S
C491   H492    1.111   .     S
C491   H493    1.110   .     S
C491   H494    1.110   .     S
O495   C496    1.415   .     S
C496   H497    1.115   .     S
C496   H498    1.111   .     S
C496   C499    1.520   .     S
C499   H502    1.109   .     S
C499   H500    1.111   .     S
C499   H573    1.110   .     S
H501   C643    1.110   1_455 S
C505   C525    1.460   .     S
C505   O549    1.293   .     A
C505   O547    1.297   .     A
C506   C526    1.448   .     S
C506   O550    1.292   .     A
C506   O548    1.291   .     A
C507   C509    1.409   .     A
C507   H541    1.083   .     S
C507   C515    1.410   .     A
C508   C516    1.409   .     A
C508   H542    1.083   .     S
C508   C510    1.409   .     A
C509   H543    1.080   .     S
C509   N545    1.365   .     A
C510   H544    1.076   .     S
C510   N546    1.365   .     A
C511   O559    1.380   .     S
C511   N545    1.377   .     A
C511   C513    1.418   .     A
C512   N546    1.377   .     A
C512   O567    1.380   .     S
C512   C514    1.419   .     A
C513   C515    1.410   .     A
C513   Br575   1.929   .     S
C514   C516    1.409   .     A
C514   Br576   1.928   .     S
C516   C83     1.515   1_556 S
C517   O553    1.292   .     A
C517   C519    1.434   .     S
C517   O551    1.286   .     A
C518   O554    1.292   .     A
C518   C520    1.434   .     S
C518   O552    1.286   .     A
C520   C591    1.337   .     S
C520   H608    1.087   .     S
C521   C523    1.390   .     A
C521   C531    1.405   .     A
C521   H537    1.080   .     S
C522   H538    1.081   .     S
C522   C532    1.408   .     A
C522   C524    1.390   .     A
C523   Br555   1.921   .     S
C523   C525    1.408   .     A
C524   Br556   1.920   .     S
C524   C526    1.403   .     A
C525   C527    1.410   .     A
C526   C528    1.402   .     A
C527   C529    1.391   .     A
C527   Br557   1.925   .     S
C528   Br558   1.920   .     S
C528   C530    1.390   .     A
C529   C531    1.406   .     A
C529   H539    1.081   .     S
C530   C532    1.408   .     A
C530   H540    1.080   .     S
C531   C748    1.485   1_545 S
C532   C747    1.485   .     S
Cu533  Cu534   2.683   .     S
Cu533  N546    2.016   .     S
Cu533  O550    1.961   .     S
Cu533  O551    1.953   .     S
Cu533  O554    1.958   .     S
Cu533  O547    1.957   .     S
Cu534  N545    2.016   .     S
Cu534  O549    1.961   .     S
Cu534  O548    1.957   .     S
Cu534  O552    1.953   .     S
Cu534  O553    1.958   .     S
H535   C591    1.087   .     S
O559   C560    1.414   .     S
C560   C563    1.522   .     S
C560   H561    1.114   .     S
C560   H562    1.111   .     S
C563   H564    1.111   .     S
C563   H565    1.110   .     S
C563   H566    1.110   .     S
O567   C568    1.415   .     S
C568   H569    1.115   .     S
C568   H570    1.111   .     S
C568   C571    1.520   .     S
C571   H574    1.109   .     S
C571   H572    1.111   .     S
C571   H645    1.110   .     S
C577   C597    1.460   .     S
C577   O621    1.293   .     A
C577   O619    1.297   .     A
C578   C598    1.448   .     S
C578   O622    1.292   .     A
C578   O620    1.291   .     A
C579   C581    1.409   .     A
C579   H613    1.083   .     S
C579   C587    1.410   .     A
C580   C588    1.409   .     A
C580   H614    1.083   .     S
C580   C582    1.409   .     A
C581   H615    1.080   .     S
C581   N617    1.365   .     A
C582   H616    1.076   .     S
C582   N618    1.365   .     A
C583   O631    1.380   .     S
C583   N617    1.377   .     A
C583   C585    1.418   .     A
C584   N618    1.377   .     A
C584   O639    1.380   .     S
C584   C586    1.419   .     A
C585   C587    1.410   .     A
C585   Br647   1.929   .     S
C586   C588    1.409   .     A
C586   Br648   1.928   .     S
C588   C155    1.515   1_556 S
C589   O625    1.292   .     A
C589   C591    1.434   .     S
C589   O623    1.286   .     A
C590   O626    1.292   .     A
C590   C592    1.434   .     S
C590   O624    1.286   .     A
C592   C447    1.337   1_655 S
C592   H464    1.087   1_655 S
C593   C595    1.390   .     A
C593   C603    1.405   .     A
C593   H609    1.080   .     S
C594   H610    1.081   .     S
C594   C604    1.408   .     A
C594   C596    1.390   .     A
C595   Br627   1.921   .     S
C595   C597    1.408   .     A
C596   Br628   1.920   .     S
C596   C598    1.403   .     A
C597   C599    1.410   .     A
C598   C600    1.402   .     A
C599   C601    1.391   .     A
C599   Br629   1.925   .     S
C600   Br630   1.920   .     S
C600   C602    1.390   .     A
C601   C603    1.406   .     A
C601   H611    1.081   .     S
C602   C604    1.408   .     A
C602   H612    1.080   .     S
C603   C820    1.485   1_545 S
C604   C819    1.485   .     S
Cu605  Cu606   2.683   .     S
Cu605  N618    2.016   .     S
Cu605  O622    1.961   .     S
Cu605  O623    1.953   .     S
Cu605  O626    1.958   .     S
Cu605  O619    1.957   .     S
Cu606  N617    2.016   .     S
Cu606  O621    1.961   .     S
Cu606  O620    1.957   .     S
Cu606  O624    1.953   .     S
Cu606  O625    1.958   .     S
H607   C447    1.087   1_655 S
O631   C632    1.414   .     S
C632   C635    1.522   .     S
C632   H633    1.114   .     S
C632   H634    1.111   .     S
C635   H636    1.111   .     S
C635   H637    1.110   .     S
C635   H638    1.110   .     S
O639   C640    1.415   .     S
C640   H641    1.115   .     S
C640   H642    1.111   .     S
C640   C643    1.520   .     S
C643   H646    1.109   .     S
C643   H644    1.111   .     S
C643   H501    1.110   1_655 S
C649   C669    1.460   .     S
C649   O693    1.293   .     A
C649   O691    1.297   .     A
C650   C670    1.448   .     S
C650   O694    1.292   .     A
C650   O692    1.291   .     A
C651   C653    1.409   .     A
C651   H685    1.083   .     S
C651   C659    1.410   .     A
C652   C660    1.409   .     A
C652   H686    1.083   .     S
C652   C654    1.409   .     A
C653   H687    1.080   .     S
C653   N689    1.365   .     A
C654   H688    1.076   .     S
C654   N690    1.365   .     A
C655   O703    1.380   .     S
C655   N689    1.377   .     A
C655   C657    1.418   .     A
C656   N690    1.377   .     A
C656   O711    1.380   .     S
C656   C658    1.419   .     A
C657   C659    1.410   .     A
C657   Br719   1.929   .     S
C658   C660    1.409   .     A
C658   Br720   1.928   .     S
C660   C227    1.515   1_556 S
C661   O697    1.292   .     A
C661   C663    1.434   .     S
C661   O695    1.286   .     A
C662   O698    1.292   .     A
C662   C664    1.434   .     S
C662   O696    1.286   .     A
C663   C808    1.337   1_455 S
C663   H823    1.087   1_455 S
C664   C735    1.337   .     S
C664   H752    1.087   .     S
C665   C667    1.390   .     A
C665   C675    1.405   .     A
C665   H681    1.080   .     S
C666   H682    1.081   .     S
C666   C676    1.408   .     A
C666   C668    1.390   .     A
C667   Br699   1.921   .     S
C667   C669    1.408   .     A
C668   Br700   1.920   .     S
C668   C670    1.403   .     A
C669   C671    1.410   .     A
C670   C672    1.402   .     A
C671   C673    1.391   .     A
C671   Br701   1.925   .     S
C672   Br702   1.920   .     S
C672   C674    1.390   .     A
C673   C675    1.406   .     A
C673   H683    1.081   .     S
C674   C676    1.408   .     A
C674   H684    1.080   .     S
C676   C459    1.485   1_565 S
Cu677  Cu678   2.683   .     S
Cu677  N690    2.016   .     S
Cu677  O694    1.961   .     S
Cu677  O695    1.953   .     S
Cu677  O698    1.958   .     S
Cu677  O691    1.957   .     S
Cu678  N689    2.016   .     S
Cu678  O693    1.961   .     S
Cu678  O692    1.957   .     S
Cu678  O696    1.953   .     S
Cu678  O697    1.958   .     S
H679   C735    1.087   .     S
H680   C808    1.087   1_455 S
O703   C704    1.414   .     S
C704   C707    1.522   .     S
C704   H705    1.114   .     S
C704   H706    1.111   .     S
C707   H708    1.111   .     S
C707   H709    1.110   .     S
C707   H710    1.110   .     S
O711   C712    1.415   .     S
C712   H713    1.115   .     S
C712   H714    1.111   .     S
C712   C715    1.520   .     S
C715   H718    1.109   .     S
C715   H716    1.111   .     S
C715   H789    1.110   .     S
H717   C859    1.110   1_455 S
C721   C741    1.460   .     S
C721   O765    1.293   .     A
C721   O763    1.297   .     A
C722   C742    1.448   .     S
C722   O766    1.292   .     A
C722   O764    1.291   .     A
C723   C725    1.409   .     A
C723   H757    1.083   .     S
C723   C731    1.410   .     A
C724   C732    1.409   .     A
C724   H758    1.083   .     S
C724   C726    1.409   .     A
C725   H759    1.080   .     S
C725   N761    1.365   .     A
C726   H760    1.076   .     S
C726   N762    1.365   .     A
C727   O775    1.380   .     S
C727   N761    1.377   .     A
C727   C729    1.418   .     A
C728   N762    1.377   .     A
C728   O783    1.380   .     S
C728   C730    1.419   .     A
C729   C731    1.410   .     A
C729   Br791   1.929   .     S
C730   C732    1.409   .     A
C730   Br792   1.928   .     S
C732   C299    1.515   1_556 S
C733   O769    1.292   .     A
C733   C735    1.434   .     S
C733   O767    1.286   .     A
C734   O770    1.292   .     A
C734   C736    1.434   .     S
C734   O768    1.286   .     A
C736   C807    1.337   .     S
C736   H824    1.087   .     S
C737   C739    1.390   .     A
C737   C747    1.405   .     A
C737   H753    1.080   .     S
C738   H754    1.081   .     S
C738   C748    1.408   .     A
C738   C740    1.390   .     A
C739   Br771   1.921   .     S
C739   C741    1.408   .     A
C740   Br772   1.920   .     S
C740   C742    1.403   .     A
C741   C743    1.410   .     A
C742   C744    1.402   .     A
C743   C745    1.391   .     A
C743   Br773   1.925   .     S
C744   Br774   1.920   .     S
C744   C746    1.390   .     A
C745   C747    1.406   .     A
C745   H755    1.081   .     S
C746   C748    1.408   .     A
C746   H756    1.080   .     S
C748   C531    1.485   1_565 S
Cu749  Cu750   2.683   .     S
Cu749  N762    2.016   .     S
Cu749  O766    1.961   .     S
Cu749  O767    1.953   .     S
Cu749  O770    1.958   .     S
Cu749  O763    1.957   .     S
Cu750  N761    2.016   .     S
Cu750  O765    1.961   .     S
Cu750  O764    1.957   .     S
Cu750  O768    1.953   .     S
Cu750  O769    1.958   .     S
H751   C807    1.087   .     S
O775   C776    1.414   .     S
C776   C779    1.522   .     S
C776   H777    1.114   .     S
C776   H778    1.111   .     S
C779   H780    1.111   .     S
C779   H781    1.110   .     S
C779   H782    1.110   .     S
O783   C784    1.415   .     S
C784   H785    1.115   .     S
C784   H786    1.111   .     S
C784   C787    1.520   .     S
C787   H790    1.109   .     S
C787   H788    1.111   .     S
C787   H861    1.110   .     S
C793   C813    1.460   .     S
C793   O837    1.293   .     A
C793   O835    1.297   .     A
C794   C814    1.448   .     S
C794   O838    1.292   .     A
C794   O836    1.291   .     A
C795   C797    1.409   .     A
C795   H829    1.083   .     S
C795   C803    1.410   .     A
C796   C804    1.409   .     A
C796   H830    1.083   .     S
C796   C798    1.409   .     A
C797   H831    1.080   .     S
C797   N833    1.365   .     A
C798   H832    1.076   .     S
C798   N834    1.365   .     A
C799   O847    1.380   .     S
C799   N833    1.377   .     A
C799   C801    1.418   .     A
C800   N834    1.377   .     A
C800   O855    1.380   .     S
C800   C802    1.419   .     A
C801   C803    1.410   .     A
C801   Br863   1.929   .     S
C802   C804    1.409   .     A
C802   Br864   1.928   .     S
C804   C371    1.515   1_556 S
C805   O841    1.292   .     A
C805   C807    1.434   .     S
C805   O839    1.286   .     A
C806   O842    1.292   .     A
C806   C808    1.434   .     S
C806   O840    1.286   .     A
C808   C663    1.337   1_655 S
C808   H680    1.087   1_655 S
C809   C811    1.390   .     A
C809   C819    1.405   .     A
C809   H825    1.080   .     S
C810   H826    1.081   .     S
C810   C820    1.408   .     A
C810   C812    1.390   .     A
C811   Br843   1.921   .     S
C811   C813    1.408   .     A
C812   Br844   1.920   .     S
C812   C814    1.403   .     A
C813   C815    1.410   .     A
C814   C816    1.402   .     A
C815   C817    1.391   .     A
C815   Br845   1.925   .     S
C816   Br846   1.920   .     S
C816   C818    1.390   .     A
C817   C819    1.406   .     A
C817   H827    1.081   .     S
C818   C820    1.408   .     A
C818   H828    1.080   .     S
C820   C603    1.485   1_565 S
Cu821  Cu822   2.683   .     S
Cu821  N834    2.016   .     S
Cu821  O838    1.961   .     S
Cu821  O839    1.953   .     S
Cu821  O842    1.958   .     S
Cu821  O835    1.957   .     S
Cu822  N833    2.016   .     S
Cu822  O837    1.961   .     S
Cu822  O836    1.957   .     S
Cu822  O840    1.953   .     S
Cu822  O841    1.958   .     S
H823   C663    1.087   1_655 S
O847   C848    1.414   .     S
C848   C851    1.522   .     S
C848   H849    1.114   .     S
C848   H850    1.111   .     S
C851   H852    1.111   .     S
C851   H853    1.110   .     S
C851   H854    1.110   .     S
O855   C856    1.415   .     S
C856   H857    1.115   .     S
C856   H858    1.111   .     S
C856   C859    1.520   .     S
C859   H862    1.109   .     S
C859   H860    1.111   .     S
C859   H717    1.110   1_655 S
