data_str_m1_o10_o16_pcu_sym.139
_audit_creation_date              2020-01-03
_audit_creation_method            'Materials Studio'
_symmetry_space_group_name_H-M    'P1'
_symmetry_Int_Tables_number       1
_symmetry_cell_setting            triclinic
loop_
_symmetry_equiv_pos_as_xyz
  x,y,z
_cell_length_a                    32.7019
_cell_length_b                    32.4628
_cell_length_c                    31.0469
_cell_angle_alpha                 95.8901
_cell_angle_beta                  74.4826
_cell_angle_gamma                 98.1611
loop_
_atom_site_label
_atom_site_type_symbol
_atom_site_fract_x
_atom_site_fract_y
_atom_site_fract_z
_atom_site_U_iso_or_equiv
_atom_site_adp_type
_atom_site_occupancy
C1     C     0.05314   0.16023   0.25962   0.00000  Uiso   1.00
C2     C     0.16537   0.15149   0.05941   0.00000  Uiso   1.00
C3     C     0.23768   0.14017   0.05674   0.00000  Uiso   1.00
C4     C     0.28073   0.17369   0.24022   0.00000  Uiso   1.00
C5     C     0.13522   0.18623   0.42042   0.00000  Uiso   1.00
C6     C     0.32632   0.17490   0.23628   0.00000  Uiso   1.00
C7     C     0.00796   0.15751   0.26576   0.00000  Uiso   1.00
C8     C     0.18052   0.32257   0.23630   0.00000  Uiso   1.00
C9     C     0.15237   0.01184   0.26426   0.00000  Uiso   1.00
C10    C     0.15632   0.05594   0.26027   0.00000  Uiso   1.00
C11    C     0.17665   0.27795   0.24013   0.00000  Uiso   1.00
C12    C     0.07724   0.18174   0.48816   0.00000  Uiso   1.00
C13    C     0.18573   0.14839   0.12938   0.00000  Uiso   1.00
C14    C     0.14828   0.18434   0.37097   0.00000  Uiso   1.00
C15    C     0.25059   0.14725   0.01154   0.00000  Uiso   1.00
C16    C     0.19538   0.14321   0.08085   0.00000  Uiso   1.00
C17    C     0.09167   0.18839   0.44244   0.00000  Uiso   1.00
C18    C     0.31524   0.13889   0.30618   0.00000  Uiso   1.00
C19    C     0.03640   0.22215   0.43498   0.00000  Uiso   1.00
C20    C     0.01906   0.23469   0.39774   0.00000  Uiso   1.00
C21    C     0.32093   0.26677   0.41534   0.00000  Uiso   1.00
C22    C     0.10503   0.17269   0.01182   0.00000  Uiso   1.00
C23    C     0.14886   0.17087   0.49088   0.00000  Uiso   1.00
C24    C     0.16430   0.17978   0.44505   0.00000  Uiso   1.00
C25    C     0.17782   0.15986   0.01369   0.00000  Uiso   1.00
C26    C     0.22147   0.15836   0.49022   0.00000  Uiso   1.00
C27    C     0.23629   0.16977   0.44630   0.00000  Uiso   1.00
C28    C     0.20850   0.18153   0.42449   0.00000  Uiso   1.00
H29    H     0.26123   0.13454   0.07357   0.00000  Uiso   1.00
H30    H     0.01526   0.19011   0.20815   0.00000  Uiso   1.00
H31    H     0.05429   0.25044   0.44801   0.00000  Uiso   1.00
H32    H     0.00899   0.21018   0.46231   0.00000  Uiso   1.00
H33    H     0.04608   0.24805   0.37087   0.00000  Uiso   1.00
H34    H     0.00269   0.20664   0.38291   0.00000  Uiso   1.00
H35    H     0.29337   0.25388   0.44191   0.00000  Uiso   1.00
H36    H     0.30878   0.27490   0.38754   0.00000  Uiso   1.00
H37    H     0.00365   0.29557   0.42920   0.00000  Uiso   1.00
H38    H     0.20646   0.00380   0.21055   0.00000  Uiso   1.00
H39    H     0.12619   0.33141   0.29027   0.00000  Uiso   1.00
H40    H     0.26980   0.17026   0.42887   0.00000  Uiso   1.00
H41    H     0.28384   0.14601   0.49378   0.00000  Uiso   1.00
H42    H     0.13363   0.15442   0.08019   0.00000  Uiso   1.00
H43    H     0.09072   0.16643   0.04633   0.00000  Uiso   1.00
H44    H     0.04368   0.18119   0.00523   0.00000  Uiso   1.00
H45    H     0.22235   0.19220   0.39126   0.00000  Uiso   1.00
N46    N     0.29459   0.12402   0.33850   0.00000  Uiso   1.00
O47    O     0.16667   0.16667   0.25000   0.00000  Uiso   1.00
O48    O     0.15451   0.12637   0.15459   0.00000  Uiso   1.00
O49    O     0.12940   0.20391   0.34968   0.00000  Uiso   1.00
O50    O     0.20824   0.17759   0.14606   0.00000  Uiso   1.00
O51    O     0.17451   0.15880   0.34968   0.00000  Uiso   1.00
O52    O     0.06279   0.19033   0.41722   0.00000  Uiso   1.00
O53    O     0.17930   0.08019   0.28214   0.00000  Uiso   1.00
O54    O     0.14632   0.26085   0.27014   0.00000  Uiso   1.00
O55    O     0.07412   0.13291   0.23413   0.00000  Uiso   1.00
O56    O     0.26693   0.19272   0.21361   0.00000  Uiso   1.00
O57    O     0.07071   0.18878   0.28213   0.00000  Uiso   1.00
O58    O     0.25491   0.15226   0.27014   0.00000  Uiso   1.00
O59    O     0.13760   0.06944   0.23413   0.00000  Uiso   1.00
O60    O     0.20345   0.25620   0.21361   0.00000  Uiso   1.00
Zn61   Zn    0.19338   0.13994   0.28734   0.00000  Uiso   1.00
Zn62   Zn    0.13379   0.12458   0.21876   0.00000  Uiso   1.00
Zn63   Zn    0.21056   0.19775   0.20657   0.00000  Uiso   1.00
Zn64   Zn    0.12893   0.20439   0.28734   0.00000  Uiso   1.00
C65    C     0.38647   0.16023   0.25962   0.00000  Uiso   1.00
C66    C     0.49870   0.15149   0.05941   0.00000  Uiso   1.00
C67    C     0.57101   0.14017   0.05674   0.00000  Uiso   1.00
C68    C     0.61406   0.17369   0.24022   0.00000  Uiso   1.00
C69    C     0.46856   0.18623   0.42042   0.00000  Uiso   1.00
C70    C     0.65965   0.17490   0.23628   0.00000  Uiso   1.00
C71    C     0.34130   0.15751   0.26576   0.00000  Uiso   1.00
C72    C     0.51385   0.32257   0.23630   0.00000  Uiso   1.00
C73    C     0.48570   0.01184   0.26426   0.00000  Uiso   1.00
C74    C     0.48965   0.05594   0.26027   0.00000  Uiso   1.00
C75    C     0.50998   0.27795   0.24013   0.00000  Uiso   1.00
C76    C     0.41058   0.18174   0.48816   0.00000  Uiso   1.00
C77    C     0.51906   0.14839   0.12938   0.00000  Uiso   1.00
C78    C     0.48162   0.18434   0.37097   0.00000  Uiso   1.00
C79    C     0.58392   0.14725   0.01154   0.00000  Uiso   1.00
C80    C     0.52872   0.14321   0.08085   0.00000  Uiso   1.00
C81    C     0.42501   0.18839   0.44244   0.00000  Uiso   1.00
C82    C     0.64857   0.13889   0.30618   0.00000  Uiso   1.00
C83    C     0.36974   0.22215   0.43498   0.00000  Uiso   1.00
C84    C     0.35239   0.23469   0.39774   0.00000  Uiso   1.00
C85    C     0.65427   0.26677   0.41534   0.00000  Uiso   1.00
C86    C     0.43836   0.17269   0.01182   0.00000  Uiso   1.00
C87    C     0.48220   0.17087   0.49088   0.00000  Uiso   1.00
C88    C     0.49764   0.17978   0.44505   0.00000  Uiso   1.00
C89    C     0.51116   0.15986   0.01369   0.00000  Uiso   1.00
C90    C     0.55481   0.15836   0.49022   0.00000  Uiso   1.00
C91    C     0.56962   0.16977   0.44630   0.00000  Uiso   1.00
C92    C     0.54183   0.18153   0.42449   0.00000  Uiso   1.00
H93    H     0.59457   0.13454   0.07357   0.00000  Uiso   1.00
H94    H     0.34860   0.19011   0.20815   0.00000  Uiso   1.00
H95    H     0.38762   0.25044   0.44801   0.00000  Uiso   1.00
H96    H     0.34232   0.21018   0.46231   0.00000  Uiso   1.00
H97    H     0.37942   0.24805   0.37087   0.00000  Uiso   1.00
H98    H     0.33602   0.20664   0.38291   0.00000  Uiso   1.00
H99    H     0.62670   0.25388   0.44191   0.00000  Uiso   1.00
H100   H     0.64212   0.27490   0.38754   0.00000  Uiso   1.00
H101   H     0.33699   0.29557   0.42920   0.00000  Uiso   1.00
H102   H     0.53979   0.00380   0.21055   0.00000  Uiso   1.00
H103   H     0.45952   0.33141   0.29027   0.00000  Uiso   1.00
H104   H     0.60313   0.17026   0.42887   0.00000  Uiso   1.00
H105   H     0.61718   0.14601   0.49378   0.00000  Uiso   1.00
H106   H     0.46696   0.15442   0.08019   0.00000  Uiso   1.00
H107   H     0.42405   0.16643   0.04633   0.00000  Uiso   1.00
H108   H     0.37701   0.18119   0.00523   0.00000  Uiso   1.00
H109   H     0.55568   0.19220   0.39126   0.00000  Uiso   1.00
N110   N     0.62792   0.12402   0.33850   0.00000  Uiso   1.00
O111   O     0.50000   0.16667   0.25000   0.00000  Uiso   1.00
O112   O     0.48784   0.12637   0.15459   0.00000  Uiso   1.00
O113   O     0.46274   0.20391   0.34968   0.00000  Uiso   1.00
O114   O     0.54157   0.17759   0.14606   0.00000  Uiso   1.00
O115   O     0.50785   0.15880   0.34968   0.00000  Uiso   1.00
O116   O     0.39613   0.19033   0.41722   0.00000  Uiso   1.00
O117   O     0.51264   0.08019   0.28214   0.00000  Uiso   1.00
O118   O     0.47965   0.26085   0.27014   0.00000  Uiso   1.00
O119   O     0.40745   0.13291   0.23413   0.00000  Uiso   1.00
O120   O     0.60026   0.19272   0.21361   0.00000  Uiso   1.00
O121   O     0.40405   0.18878   0.28213   0.00000  Uiso   1.00
O122   O     0.58824   0.15226   0.27014   0.00000  Uiso   1.00
O123   O     0.47093   0.06944   0.23413   0.00000  Uiso   1.00
O124   O     0.53678   0.25620   0.21361   0.00000  Uiso   1.00
Zn125  Zn    0.52672   0.13994   0.28734   0.00000  Uiso   1.00
Zn126  Zn    0.46713   0.12458   0.21876   0.00000  Uiso   1.00
Zn127  Zn    0.54389   0.19775   0.20657   0.00000  Uiso   1.00
Zn128  Zn    0.46226   0.20439   0.28734   0.00000  Uiso   1.00
C129   C     0.71980   0.16023   0.25962   0.00000  Uiso   1.00
C130   C     0.83204   0.15149   0.05941   0.00000  Uiso   1.00
C131   C     0.90435   0.14017   0.05674   0.00000  Uiso   1.00
C132   C     0.94739   0.17369   0.24022   0.00000  Uiso   1.00
C133   C     0.80189   0.18623   0.42042   0.00000  Uiso   1.00
C134   C     0.99298   0.17490   0.23628   0.00000  Uiso   1.00
C135   C     0.67463   0.15751   0.26576   0.00000  Uiso   1.00
C136   C     0.84719   0.32257   0.23630   0.00000  Uiso   1.00
C137   C     0.81904   0.01184   0.26426   0.00000  Uiso   1.00
C138   C     0.82299   0.05594   0.26027   0.00000  Uiso   1.00
C139   C     0.84332   0.27795   0.24013   0.00000  Uiso   1.00
C140   C     0.74391   0.18174   0.48816   0.00000  Uiso   1.00
C141   C     0.85240   0.14839   0.12938   0.00000  Uiso   1.00
C142   C     0.81495   0.18434   0.37097   0.00000  Uiso   1.00
C143   C     0.91725   0.14725   0.01154   0.00000  Uiso   1.00
C144   C     0.86205   0.14321   0.08085   0.00000  Uiso   1.00
C145   C     0.75834   0.18839   0.44244   0.00000  Uiso   1.00
C146   C     0.98190   0.13889   0.30618   0.00000  Uiso   1.00
C147   C     0.70307   0.22215   0.43498   0.00000  Uiso   1.00
C148   C     0.68572   0.23469   0.39774   0.00000  Uiso   1.00
C149   C     0.98760   0.26677   0.41534   0.00000  Uiso   1.00
C150   C     0.77169   0.17269   0.01182   0.00000  Uiso   1.00
C151   C     0.81553   0.17087   0.49088   0.00000  Uiso   1.00
C152   C     0.83097   0.17978   0.44505   0.00000  Uiso   1.00
C153   C     0.84449   0.15986   0.01369   0.00000  Uiso   1.00
C154   C     0.88814   0.15836   0.49022   0.00000  Uiso   1.00
C155   C     0.90295   0.16977   0.44630   0.00000  Uiso   1.00
C156   C     0.87517   0.18153   0.42449   0.00000  Uiso   1.00
H157   H     0.92790   0.13454   0.07357   0.00000  Uiso   1.00
H158   H     0.68193   0.19011   0.20815   0.00000  Uiso   1.00
H159   H     0.72095   0.25044   0.44801   0.00000  Uiso   1.00
H160   H     0.67565   0.21018   0.46231   0.00000  Uiso   1.00
H161   H     0.71275   0.24805   0.37087   0.00000  Uiso   1.00
H162   H     0.66936   0.20664   0.38291   0.00000  Uiso   1.00
H163   H     0.96004   0.25388   0.44191   0.00000  Uiso   1.00
H164   H     0.97545   0.27490   0.38754   0.00000  Uiso   1.00
H165   H     0.67032   0.29557   0.42920   0.00000  Uiso   1.00
H166   H     0.87312   0.00380   0.21055   0.00000  Uiso   1.00
H167   H     0.79286   0.33141   0.29027   0.00000  Uiso   1.00
H168   H     0.93646   0.17026   0.42887   0.00000  Uiso   1.00
H169   H     0.95051   0.14601   0.49378   0.00000  Uiso   1.00
H170   H     0.80030   0.15442   0.08019   0.00000  Uiso   1.00
H171   H     0.75739   0.16643   0.04633   0.00000  Uiso   1.00
H172   H     0.71035   0.18119   0.00523   0.00000  Uiso   1.00
H173   H     0.88902   0.19220   0.39126   0.00000  Uiso   1.00
N174   N     0.96126   0.12402   0.33850   0.00000  Uiso   1.00
O175   O     0.83333   0.16667   0.25000   0.00000  Uiso   1.00
O176   O     0.82118   0.12637   0.15459   0.00000  Uiso   1.00
O177   O     0.79607   0.20391   0.34968   0.00000  Uiso   1.00
O178   O     0.87491   0.17759   0.14606   0.00000  Uiso   1.00
O179   O     0.84118   0.15880   0.34968   0.00000  Uiso   1.00
O180   O     0.72946   0.19033   0.41722   0.00000  Uiso   1.00
O181   O     0.84597   0.08019   0.28214   0.00000  Uiso   1.00
O182   O     0.81298   0.26085   0.27014   0.00000  Uiso   1.00
O183   O     0.74078   0.13291   0.23413   0.00000  Uiso   1.00
O184   O     0.93360   0.19272   0.21361   0.00000  Uiso   1.00
O185   O     0.73738   0.18878   0.28213   0.00000  Uiso   1.00
O186   O     0.92158   0.15226   0.27014   0.00000  Uiso   1.00
O187   O     0.80426   0.06944   0.23413   0.00000  Uiso   1.00
O188   O     0.87012   0.25620   0.21361   0.00000  Uiso   1.00
Zn189  Zn    0.86005   0.13994   0.28734   0.00000  Uiso   1.00
Zn190  Zn    0.80046   0.12458   0.21876   0.00000  Uiso   1.00
Zn191  Zn    0.87723   0.19775   0.20657   0.00000  Uiso   1.00
Zn192  Zn    0.79560   0.20439   0.28734   0.00000  Uiso   1.00
C193   C     0.05314   0.49357   0.25962   0.00000  Uiso   1.00
C194   C     0.16537   0.48482   0.05941   0.00000  Uiso   1.00
C195   C     0.23768   0.47350   0.05674   0.00000  Uiso   1.00
C196   C     0.28073   0.50702   0.24022   0.00000  Uiso   1.00
C197   C     0.13522   0.51957   0.42042   0.00000  Uiso   1.00
C198   C     0.32632   0.50823   0.23628   0.00000  Uiso   1.00
C199   C     0.00796   0.49084   0.26576   0.00000  Uiso   1.00
C200   C     0.18052   0.65590   0.23630   0.00000  Uiso   1.00
C201   C     0.15237   0.34517   0.26426   0.00000  Uiso   1.00
C202   C     0.15632   0.38928   0.26027   0.00000  Uiso   1.00
C203   C     0.17665   0.61128   0.24013   0.00000  Uiso   1.00
C204   C     0.07724   0.51507   0.48816   0.00000  Uiso   1.00
C205   C     0.18573   0.48172   0.12938   0.00000  Uiso   1.00
C206   C     0.14828   0.51767   0.37097   0.00000  Uiso   1.00
C207   C     0.25059   0.48058   0.01154   0.00000  Uiso   1.00
C208   C     0.19538   0.47654   0.08085   0.00000  Uiso   1.00
C209   C     0.09167   0.52173   0.44244   0.00000  Uiso   1.00
C210   C     0.31524   0.47222   0.30618   0.00000  Uiso   1.00
C211   C     0.03640   0.55549   0.43498   0.00000  Uiso   1.00
C212   C     0.01906   0.56802   0.39774   0.00000  Uiso   1.00
C213   C     0.32093   0.60010   0.41534   0.00000  Uiso   1.00
C214   C     0.10503   0.50602   0.01182   0.00000  Uiso   1.00
C215   C     0.14886   0.50420   0.49088   0.00000  Uiso   1.00
C216   C     0.16430   0.51311   0.44505   0.00000  Uiso   1.00
C217   C     0.17782   0.49320   0.01369   0.00000  Uiso   1.00
C218   C     0.22147   0.49169   0.49022   0.00000  Uiso   1.00
C219   C     0.23629   0.50311   0.44630   0.00000  Uiso   1.00
C220   C     0.20850   0.51487   0.42449   0.00000  Uiso   1.00
H221   H     0.26123   0.46787   0.07357   0.00000  Uiso   1.00
H222   H     0.01526   0.52344   0.20815   0.00000  Uiso   1.00
H223   H     0.05429   0.58378   0.44801   0.00000  Uiso   1.00
H224   H     0.00899   0.54351   0.46231   0.00000  Uiso   1.00
H225   H     0.04608   0.58138   0.37087   0.00000  Uiso   1.00
H226   H     0.00269   0.53997   0.38291   0.00000  Uiso   1.00
H227   H     0.29337   0.58721   0.44191   0.00000  Uiso   1.00
H228   H     0.30878   0.60823   0.38754   0.00000  Uiso   1.00
H229   H     0.00365   0.62891   0.42920   0.00000  Uiso   1.00
H230   H     0.20646   0.33714   0.21055   0.00000  Uiso   1.00
H231   H     0.12619   0.66475   0.29027   0.00000  Uiso   1.00
H232   H     0.26980   0.50360   0.42887   0.00000  Uiso   1.00
H233   H     0.28384   0.47934   0.49378   0.00000  Uiso   1.00
H234   H     0.13363   0.48776   0.08019   0.00000  Uiso   1.00
H235   H     0.09072   0.49977   0.04633   0.00000  Uiso   1.00
H236   H     0.04368   0.51452   0.00523   0.00000  Uiso   1.00
H237   H     0.22235   0.52553   0.39126   0.00000  Uiso   1.00
N238   N     0.29459   0.45735   0.33850   0.00000  Uiso   1.00
O239   O     0.16667   0.50000   0.25000   0.00000  Uiso   1.00
O240   O     0.15451   0.45970   0.15459   0.00000  Uiso   1.00
O241   O     0.12940   0.53724   0.34968   0.00000  Uiso   1.00
O242   O     0.20824   0.51092   0.14606   0.00000  Uiso   1.00
O243   O     0.17451   0.49213   0.34968   0.00000  Uiso   1.00
O244   O     0.06279   0.52367   0.41722   0.00000  Uiso   1.00
O245   O     0.17930   0.41352   0.28214   0.00000  Uiso   1.00
O246   O     0.14632   0.59418   0.27014   0.00000  Uiso   1.00
O247   O     0.07412   0.46625   0.23413   0.00000  Uiso   1.00
O248   O     0.26693   0.52605   0.21361   0.00000  Uiso   1.00
O249   O     0.07071   0.52211   0.28213   0.00000  Uiso   1.00
O250   O     0.25491   0.48559   0.27014   0.00000  Uiso   1.00
O251   O     0.13760   0.40277   0.23413   0.00000  Uiso   1.00
O252   O     0.20345   0.58953   0.21361   0.00000  Uiso   1.00
Zn253  Zn    0.19338   0.47327   0.28734   0.00000  Uiso   1.00
Zn254  Zn    0.13379   0.45791   0.21876   0.00000  Uiso   1.00
Zn255  Zn    0.21056   0.53109   0.20657   0.00000  Uiso   1.00
Zn256  Zn    0.12893   0.53773   0.28734   0.00000  Uiso   1.00
C257   C     0.38647   0.49357   0.25962   0.00000  Uiso   1.00
C258   C     0.49870   0.48482   0.05941   0.00000  Uiso   1.00
C259   C     0.57101   0.47350   0.05674   0.00000  Uiso   1.00
C260   C     0.61406   0.50702   0.24022   0.00000  Uiso   1.00
C261   C     0.46856   0.51957   0.42042   0.00000  Uiso   1.00
C262   C     0.65965   0.50823   0.23628   0.00000  Uiso   1.00
C263   C     0.34130   0.49084   0.26576   0.00000  Uiso   1.00
C264   C     0.51385   0.65590   0.23630   0.00000  Uiso   1.00
C265   C     0.48570   0.34517   0.26426   0.00000  Uiso   1.00
C266   C     0.48965   0.38928   0.26027   0.00000  Uiso   1.00
C267   C     0.50998   0.61128   0.24013   0.00000  Uiso   1.00
C268   C     0.41058   0.51507   0.48816   0.00000  Uiso   1.00
C269   C     0.51906   0.48172   0.12938   0.00000  Uiso   1.00
C270   C     0.48162   0.51767   0.37097   0.00000  Uiso   1.00
C271   C     0.58392   0.48058   0.01154   0.00000  Uiso   1.00
C272   C     0.52872   0.47654   0.08085   0.00000  Uiso   1.00
C273   C     0.42501   0.52173   0.44244   0.00000  Uiso   1.00
C274   C     0.64857   0.47222   0.30618   0.00000  Uiso   1.00
C275   C     0.36974   0.55549   0.43498   0.00000  Uiso   1.00
C276   C     0.35239   0.56802   0.39774   0.00000  Uiso   1.00
C277   C     0.65427   0.60010   0.41534   0.00000  Uiso   1.00
C278   C     0.43836   0.50602   0.01182   0.00000  Uiso   1.00
C279   C     0.48220   0.50420   0.49088   0.00000  Uiso   1.00
C280   C     0.49764   0.51311   0.44505   0.00000  Uiso   1.00
C281   C     0.51116   0.49320   0.01369   0.00000  Uiso   1.00
C282   C     0.55481   0.49169   0.49022   0.00000  Uiso   1.00
C283   C     0.56962   0.50311   0.44630   0.00000  Uiso   1.00
C284   C     0.54183   0.51487   0.42449   0.00000  Uiso   1.00
H285   H     0.59457   0.46787   0.07357   0.00000  Uiso   1.00
H286   H     0.34860   0.52344   0.20815   0.00000  Uiso   1.00
H287   H     0.38762   0.58378   0.44801   0.00000  Uiso   1.00
H288   H     0.34232   0.54351   0.46231   0.00000  Uiso   1.00
H289   H     0.37942   0.58138   0.37087   0.00000  Uiso   1.00
H290   H     0.33602   0.53997   0.38291   0.00000  Uiso   1.00
H291   H     0.62670   0.58721   0.44191   0.00000  Uiso   1.00
H292   H     0.64212   0.60823   0.38754   0.00000  Uiso   1.00
H293   H     0.33699   0.62891   0.42920   0.00000  Uiso   1.00
H294   H     0.53979   0.33714   0.21055   0.00000  Uiso   1.00
H295   H     0.45952   0.66475   0.29027   0.00000  Uiso   1.00
H296   H     0.60313   0.50360   0.42887   0.00000  Uiso   1.00
H297   H     0.61718   0.47934   0.49378   0.00000  Uiso   1.00
H298   H     0.46696   0.48776   0.08019   0.00000  Uiso   1.00
H299   H     0.42405   0.49977   0.04633   0.00000  Uiso   1.00
H300   H     0.37701   0.51452   0.00523   0.00000  Uiso   1.00
H301   H     0.55568   0.52553   0.39126   0.00000  Uiso   1.00
N302   N     0.62792   0.45735   0.33850   0.00000  Uiso   1.00
O303   O     0.50000   0.50000   0.25000   0.00000  Uiso   1.00
O304   O     0.48784   0.45970   0.15459   0.00000  Uiso   1.00
O305   O     0.46274   0.53724   0.34968   0.00000  Uiso   1.00
O306   O     0.54157   0.51092   0.14606   0.00000  Uiso   1.00
O307   O     0.50785   0.49213   0.34968   0.00000  Uiso   1.00
O308   O     0.39613   0.52367   0.41722   0.00000  Uiso   1.00
O309   O     0.51264   0.41352   0.28214   0.00000  Uiso   1.00
O310   O     0.47965   0.59418   0.27014   0.00000  Uiso   1.00
O311   O     0.40745   0.46625   0.23413   0.00000  Uiso   1.00
O312   O     0.60026   0.52605   0.21361   0.00000  Uiso   1.00
O313   O     0.40405   0.52211   0.28213   0.00000  Uiso   1.00
O314   O     0.58824   0.48559   0.27014   0.00000  Uiso   1.00
O315   O     0.47093   0.40277   0.23413   0.00000  Uiso   1.00
O316   O     0.53678   0.58953   0.21361   0.00000  Uiso   1.00
Zn317  Zn    0.52672   0.47327   0.28734   0.00000  Uiso   1.00
Zn318  Zn    0.46713   0.45791   0.21876   0.00000  Uiso   1.00
Zn319  Zn    0.54389   0.53109   0.20657   0.00000  Uiso   1.00
Zn320  Zn    0.46226   0.53773   0.28734   0.00000  Uiso   1.00
C321   C     0.71980   0.49357   0.25962   0.00000  Uiso   1.00
C322   C     0.83204   0.48482   0.05941   0.00000  Uiso   1.00
C323   C     0.90435   0.47350   0.05674   0.00000  Uiso   1.00
C324   C     0.94739   0.50702   0.24022   0.00000  Uiso   1.00
C325   C     0.80189   0.51957   0.42042   0.00000  Uiso   1.00
C326   C     0.99298   0.50823   0.23628   0.00000  Uiso   1.00
C327   C     0.67463   0.49084   0.26576   0.00000  Uiso   1.00
C328   C     0.84719   0.65590   0.23630   0.00000  Uiso   1.00
C329   C     0.81904   0.34517   0.26426   0.00000  Uiso   1.00
C330   C     0.82299   0.38928   0.26027   0.00000  Uiso   1.00
C331   C     0.84332   0.61128   0.24013   0.00000  Uiso   1.00
C332   C     0.74391   0.51507   0.48816   0.00000  Uiso   1.00
C333   C     0.85240   0.48172   0.12938   0.00000  Uiso   1.00
C334   C     0.81495   0.51767   0.37097   0.00000  Uiso   1.00
C335   C     0.91725   0.48058   0.01154   0.00000  Uiso   1.00
C336   C     0.86205   0.47654   0.08085   0.00000  Uiso   1.00
C337   C     0.75834   0.52173   0.44244   0.00000  Uiso   1.00
C338   C     0.98190   0.47222   0.30618   0.00000  Uiso   1.00
C339   C     0.70307   0.55549   0.43498   0.00000  Uiso   1.00
C340   C     0.68572   0.56802   0.39774   0.00000  Uiso   1.00
C341   C     0.98760   0.60010   0.41534   0.00000  Uiso   1.00
C342   C     0.77169   0.50602   0.01182   0.00000  Uiso   1.00
C343   C     0.81553   0.50420   0.49088   0.00000  Uiso   1.00
C344   C     0.83097   0.51311   0.44505   0.00000  Uiso   1.00
C345   C     0.84449   0.49320   0.01369   0.00000  Uiso   1.00
C346   C     0.88814   0.49169   0.49022   0.00000  Uiso   1.00
C347   C     0.90295   0.50311   0.44630   0.00000  Uiso   1.00
C348   C     0.87517   0.51487   0.42449   0.00000  Uiso   1.00
H349   H     0.92790   0.46787   0.07357   0.00000  Uiso   1.00
H350   H     0.68193   0.52344   0.20815   0.00000  Uiso   1.00
H351   H     0.72095   0.58378   0.44801   0.00000  Uiso   1.00
H352   H     0.67565   0.54351   0.46231   0.00000  Uiso   1.00
H353   H     0.71275   0.58138   0.37087   0.00000  Uiso   1.00
H354   H     0.66936   0.53997   0.38291   0.00000  Uiso   1.00
H355   H     0.96004   0.58721   0.44191   0.00000  Uiso   1.00
H356   H     0.97545   0.60823   0.38754   0.00000  Uiso   1.00
H357   H     0.67032   0.62891   0.42920   0.00000  Uiso   1.00
H358   H     0.87312   0.33714   0.21055   0.00000  Uiso   1.00
H359   H     0.79286   0.66475   0.29027   0.00000  Uiso   1.00
H360   H     0.93646   0.50360   0.42887   0.00000  Uiso   1.00
H361   H     0.95051   0.47934   0.49378   0.00000  Uiso   1.00
H362   H     0.80030   0.48776   0.08019   0.00000  Uiso   1.00
H363   H     0.75739   0.49977   0.04633   0.00000  Uiso   1.00
H364   H     0.71035   0.51452   0.00523   0.00000  Uiso   1.00
H365   H     0.88902   0.52553   0.39126   0.00000  Uiso   1.00
N366   N     0.96126   0.45735   0.33850   0.00000  Uiso   1.00
O367   O     0.83333   0.50000   0.25000   0.00000  Uiso   1.00
O368   O     0.82118   0.45970   0.15459   0.00000  Uiso   1.00
O369   O     0.79607   0.53724   0.34968   0.00000  Uiso   1.00
O370   O     0.87491   0.51092   0.14606   0.00000  Uiso   1.00
O371   O     0.84118   0.49213   0.34968   0.00000  Uiso   1.00
O372   O     0.72946   0.52367   0.41722   0.00000  Uiso   1.00
O373   O     0.84597   0.41352   0.28214   0.00000  Uiso   1.00
O374   O     0.81298   0.59418   0.27014   0.00000  Uiso   1.00
O375   O     0.74078   0.46625   0.23413   0.00000  Uiso   1.00
O376   O     0.93360   0.52605   0.21361   0.00000  Uiso   1.00
O377   O     0.73738   0.52211   0.28213   0.00000  Uiso   1.00
O378   O     0.92158   0.48559   0.27014   0.00000  Uiso   1.00
O379   O     0.80426   0.40277   0.23413   0.00000  Uiso   1.00
O380   O     0.87012   0.58953   0.21361   0.00000  Uiso   1.00
Zn381  Zn    0.86005   0.47327   0.28734   0.00000  Uiso   1.00
Zn382  Zn    0.80046   0.45791   0.21876   0.00000  Uiso   1.00
Zn383  Zn    0.87723   0.53109   0.20657   0.00000  Uiso   1.00
Zn384  Zn    0.79560   0.53773   0.28734   0.00000  Uiso   1.00
C385   C     0.05314   0.82690   0.25962   0.00000  Uiso   1.00
C386   C     0.16537   0.81815   0.05941   0.00000  Uiso   1.00
C387   C     0.23768   0.80684   0.05674   0.00000  Uiso   1.00
C388   C     0.28073   0.84035   0.24022   0.00000  Uiso   1.00
C389   C     0.13522   0.85290   0.42042   0.00000  Uiso   1.00
C390   C     0.32632   0.84156   0.23628   0.00000  Uiso   1.00
C391   C     0.00796   0.82417   0.26576   0.00000  Uiso   1.00
C392   C     0.18052   0.98924   0.23630   0.00000  Uiso   1.00
C393   C     0.15237   0.67851   0.26426   0.00000  Uiso   1.00
C394   C     0.15632   0.72261   0.26027   0.00000  Uiso   1.00
C395   C     0.17665   0.94461   0.24013   0.00000  Uiso   1.00
C396   C     0.07724   0.84840   0.48816   0.00000  Uiso   1.00
C397   C     0.18573   0.81506   0.12938   0.00000  Uiso   1.00
C398   C     0.14828   0.85100   0.37097   0.00000  Uiso   1.00
C399   C     0.25059   0.81392   0.01154   0.00000  Uiso   1.00
C400   C     0.19538   0.80988   0.08085   0.00000  Uiso   1.00
C401   C     0.09167   0.85506   0.44244   0.00000  Uiso   1.00
C402   C     0.31524   0.80555   0.30618   0.00000  Uiso   1.00
C403   C     0.03640   0.88882   0.43498   0.00000  Uiso   1.00
C404   C     0.01906   0.90135   0.39774   0.00000  Uiso   1.00
C405   C     0.32093   0.93343   0.41534   0.00000  Uiso   1.00
C406   C     0.10503   0.83935   0.01182   0.00000  Uiso   1.00
C407   C     0.14886   0.83754   0.49088   0.00000  Uiso   1.00
C408   C     0.16430   0.84644   0.44505   0.00000  Uiso   1.00
C409   C     0.17782   0.82653   0.01369   0.00000  Uiso   1.00
C410   C     0.22147   0.82502   0.49022   0.00000  Uiso   1.00
C411   C     0.23629   0.83644   0.44630   0.00000  Uiso   1.00
C412   C     0.20850   0.84820   0.42449   0.00000  Uiso   1.00
H413   H     0.26123   0.80120   0.07357   0.00000  Uiso   1.00
H414   H     0.01526   0.85677   0.20815   0.00000  Uiso   1.00
H415   H     0.05429   0.91711   0.44801   0.00000  Uiso   1.00
H416   H     0.00899   0.87685   0.46231   0.00000  Uiso   1.00
H417   H     0.04608   0.91471   0.37087   0.00000  Uiso   1.00
H418   H     0.00269   0.87331   0.38291   0.00000  Uiso   1.00
H419   H     0.29337   0.92055   0.44191   0.00000  Uiso   1.00
H420   H     0.30878   0.94156   0.38754   0.00000  Uiso   1.00
H421   H     0.00365   0.96224   0.42920   0.00000  Uiso   1.00
H422   H     0.20646   0.67047   0.21055   0.00000  Uiso   1.00
H423   H     0.12619   0.99808   0.29027   0.00000  Uiso   1.00
H424   H     0.26980   0.83693   0.42887   0.00000  Uiso   1.00
H425   H     0.28384   0.81267   0.49378   0.00000  Uiso   1.00
H426   H     0.13363   0.82109   0.08019   0.00000  Uiso   1.00
H427   H     0.09072   0.83310   0.04633   0.00000  Uiso   1.00
H428   H     0.04368   0.84785   0.00523   0.00000  Uiso   1.00
H429   H     0.22235   0.85886   0.39126   0.00000  Uiso   1.00
N430   N     0.29459   0.79069   0.33850   0.00000  Uiso   1.00
O431   O     0.16667   0.83333   0.25000   0.00000  Uiso   1.00
O432   O     0.15451   0.79304   0.15459   0.00000  Uiso   1.00
O433   O     0.12940   0.87058   0.34968   0.00000  Uiso   1.00
O434   O     0.20824   0.84425   0.14606   0.00000  Uiso   1.00
O435   O     0.17451   0.82546   0.34968   0.00000  Uiso   1.00
O436   O     0.06279   0.85700   0.41722   0.00000  Uiso   1.00
O437   O     0.17930   0.74686   0.28214   0.00000  Uiso   1.00
O438   O     0.14632   0.92751   0.27014   0.00000  Uiso   1.00
O439   O     0.07412   0.79958   0.23413   0.00000  Uiso   1.00
O440   O     0.26693   0.85939   0.21361   0.00000  Uiso   1.00
O441   O     0.07071   0.85544   0.28213   0.00000  Uiso   1.00
O442   O     0.25491   0.81892   0.27014   0.00000  Uiso   1.00
O443   O     0.13760   0.73610   0.23413   0.00000  Uiso   1.00
O444   O     0.20345   0.92286   0.21361   0.00000  Uiso   1.00
Zn445  Zn    0.19338   0.80661   0.28734   0.00000  Uiso   1.00
Zn446  Zn    0.13379   0.79124   0.21876   0.00000  Uiso   1.00
Zn447  Zn    0.21056   0.86442   0.20657   0.00000  Uiso   1.00
Zn448  Zn    0.12893   0.87106   0.28734   0.00000  Uiso   1.00
C449   C     0.38647   0.82690   0.25962   0.00000  Uiso   1.00
C450   C     0.49870   0.81815   0.05941   0.00000  Uiso   1.00
C451   C     0.57101   0.80684   0.05674   0.00000  Uiso   1.00
C452   C     0.61406   0.84035   0.24022   0.00000  Uiso   1.00
C453   C     0.46856   0.85290   0.42042   0.00000  Uiso   1.00
C454   C     0.65965   0.84156   0.23628   0.00000  Uiso   1.00
C455   C     0.34130   0.82417   0.26576   0.00000  Uiso   1.00
C456   C     0.51385   0.98924   0.23630   0.00000  Uiso   1.00
C457   C     0.48570   0.67851   0.26426   0.00000  Uiso   1.00
C458   C     0.48965   0.72261   0.26027   0.00000  Uiso   1.00
C459   C     0.50998   0.94461   0.24013   0.00000  Uiso   1.00
C460   C     0.41058   0.84840   0.48816   0.00000  Uiso   1.00
C461   C     0.51906   0.81506   0.12938   0.00000  Uiso   1.00
C462   C     0.48162   0.85100   0.37097   0.00000  Uiso   1.00
C463   C     0.58392   0.81392   0.01154   0.00000  Uiso   1.00
C464   C     0.52872   0.80988   0.08085   0.00000  Uiso   1.00
C465   C     0.42501   0.85506   0.44244   0.00000  Uiso   1.00
C466   C     0.64857   0.80555   0.30618   0.00000  Uiso   1.00
C467   C     0.36974   0.88882   0.43498   0.00000  Uiso   1.00
C468   C     0.35239   0.90135   0.39774   0.00000  Uiso   1.00
C469   C     0.65427   0.93343   0.41534   0.00000  Uiso   1.00
C470   C     0.43836   0.83935   0.01182   0.00000  Uiso   1.00
C471   C     0.48220   0.83754   0.49088   0.00000  Uiso   1.00
C472   C     0.49764   0.84644   0.44505   0.00000  Uiso   1.00
C473   C     0.51116   0.82653   0.01369   0.00000  Uiso   1.00
C474   C     0.55481   0.82502   0.49022   0.00000  Uiso   1.00
C475   C     0.56962   0.83644   0.44630   0.00000  Uiso   1.00
C476   C     0.54183   0.84820   0.42449   0.00000  Uiso   1.00
H477   H     0.59457   0.80120   0.07357   0.00000  Uiso   1.00
H478   H     0.34860   0.85677   0.20815   0.00000  Uiso   1.00
H479   H     0.38762   0.91711   0.44801   0.00000  Uiso   1.00
H480   H     0.34232   0.87685   0.46231   0.00000  Uiso   1.00
H481   H     0.37942   0.91471   0.37087   0.00000  Uiso   1.00
H482   H     0.33602   0.87331   0.38291   0.00000  Uiso   1.00
H483   H     0.62670   0.92055   0.44191   0.00000  Uiso   1.00
H484   H     0.64212   0.94156   0.38754   0.00000  Uiso   1.00
H485   H     0.33699   0.96224   0.42920   0.00000  Uiso   1.00
H486   H     0.53979   0.67047   0.21055   0.00000  Uiso   1.00
H487   H     0.45952   0.99808   0.29027   0.00000  Uiso   1.00
H488   H     0.60313   0.83693   0.42887   0.00000  Uiso   1.00
H489   H     0.61718   0.81267   0.49378   0.00000  Uiso   1.00
H490   H     0.46696   0.82109   0.08019   0.00000  Uiso   1.00
H491   H     0.42405   0.83310   0.04633   0.00000  Uiso   1.00
H492   H     0.37701   0.84785   0.00523   0.00000  Uiso   1.00
H493   H     0.55568   0.85886   0.39126   0.00000  Uiso   1.00
N494   N     0.62792   0.79069   0.33850   0.00000  Uiso   1.00
O495   O     0.50000   0.83333   0.25000   0.00000  Uiso   1.00
O496   O     0.48784   0.79304   0.15459   0.00000  Uiso   1.00
O497   O     0.46274   0.87058   0.34968   0.00000  Uiso   1.00
O498   O     0.54157   0.84425   0.14606   0.00000  Uiso   1.00
O499   O     0.50785   0.82546   0.34968   0.00000  Uiso   1.00
O500   O     0.39613   0.85700   0.41722   0.00000  Uiso   1.00
O501   O     0.51264   0.74686   0.28214   0.00000  Uiso   1.00
O502   O     0.47965   0.92751   0.27014   0.00000  Uiso   1.00
O503   O     0.40745   0.79958   0.23413   0.00000  Uiso   1.00
O504   O     0.60026   0.85939   0.21361   0.00000  Uiso   1.00
O505   O     0.40405   0.85544   0.28213   0.00000  Uiso   1.00
O506   O     0.58824   0.81892   0.27014   0.00000  Uiso   1.00
O507   O     0.47093   0.73610   0.23413   0.00000  Uiso   1.00
O508   O     0.53678   0.92286   0.21361   0.00000  Uiso   1.00
Zn509  Zn    0.52672   0.80661   0.28734   0.00000  Uiso   1.00
Zn510  Zn    0.46713   0.79124   0.21876   0.00000  Uiso   1.00
Zn511  Zn    0.54389   0.86442   0.20657   0.00000  Uiso   1.00
Zn512  Zn    0.46226   0.87106   0.28734   0.00000  Uiso   1.00
C513   C     0.71980   0.82690   0.25962   0.00000  Uiso   1.00
C514   C     0.83204   0.81815   0.05941   0.00000  Uiso   1.00
C515   C     0.90435   0.80684   0.05674   0.00000  Uiso   1.00
C516   C     0.94739   0.84035   0.24022   0.00000  Uiso   1.00
C517   C     0.80189   0.85290   0.42042   0.00000  Uiso   1.00
C518   C     0.99298   0.84156   0.23628   0.00000  Uiso   1.00
C519   C     0.67463   0.82417   0.26576   0.00000  Uiso   1.00
C520   C     0.84719   0.98924   0.23630   0.00000  Uiso   1.00
C521   C     0.81904   0.67851   0.26426   0.00000  Uiso   1.00
C522   C     0.82299   0.72261   0.26027   0.00000  Uiso   1.00
C523   C     0.84332   0.94461   0.24013   0.00000  Uiso   1.00
C524   C     0.74391   0.84840   0.48816   0.00000  Uiso   1.00
C525   C     0.85240   0.81506   0.12938   0.00000  Uiso   1.00
C526   C     0.81495   0.85100   0.37097   0.00000  Uiso   1.00
C527   C     0.91725   0.81392   0.01154   0.00000  Uiso   1.00
C528   C     0.86205   0.80988   0.08085   0.00000  Uiso   1.00
C529   C     0.75834   0.85506   0.44244   0.00000  Uiso   1.00
C530   C     0.98190   0.80555   0.30618   0.00000  Uiso   1.00
C531   C     0.70307   0.88882   0.43498   0.00000  Uiso   1.00
C532   C     0.68572   0.90135   0.39774   0.00000  Uiso   1.00
C533   C     0.98760   0.93343   0.41534   0.00000  Uiso   1.00
C534   C     0.77169   0.83935   0.01182   0.00000  Uiso   1.00
C535   C     0.81553   0.83754   0.49088   0.00000  Uiso   1.00
C536   C     0.83097   0.84644   0.44505   0.00000  Uiso   1.00
C537   C     0.84449   0.82653   0.01369   0.00000  Uiso   1.00
C538   C     0.88814   0.82502   0.49022   0.00000  Uiso   1.00
C539   C     0.90295   0.83644   0.44630   0.00000  Uiso   1.00
C540   C     0.87517   0.84820   0.42449   0.00000  Uiso   1.00
H541   H     0.92790   0.80120   0.07357   0.00000  Uiso   1.00
H542   H     0.68193   0.85677   0.20815   0.00000  Uiso   1.00
H543   H     0.72095   0.91711   0.44801   0.00000  Uiso   1.00
H544   H     0.67565   0.87685   0.46231   0.00000  Uiso   1.00
H545   H     0.71275   0.91471   0.37087   0.00000  Uiso   1.00
H546   H     0.66936   0.87331   0.38291   0.00000  Uiso   1.00
H547   H     0.96004   0.92055   0.44191   0.00000  Uiso   1.00
H548   H     0.97545   0.94156   0.38754   0.00000  Uiso   1.00
H549   H     0.67032   0.96224   0.42920   0.00000  Uiso   1.00
H550   H     0.87312   0.67047   0.21055   0.00000  Uiso   1.00
H551   H     0.79286   0.99808   0.29027   0.00000  Uiso   1.00
H552   H     0.93646   0.83693   0.42887   0.00000  Uiso   1.00
H553   H     0.95051   0.81267   0.49378   0.00000  Uiso   1.00
H554   H     0.80030   0.82109   0.08019   0.00000  Uiso   1.00
H555   H     0.75739   0.83310   0.04633   0.00000  Uiso   1.00
H556   H     0.71035   0.84785   0.00523   0.00000  Uiso   1.00
H557   H     0.88902   0.85886   0.39126   0.00000  Uiso   1.00
N558   N     0.96126   0.79069   0.33850   0.00000  Uiso   1.00
O559   O     0.83333   0.83333   0.25000   0.00000  Uiso   1.00
O560   O     0.82118   0.79304   0.15459   0.00000  Uiso   1.00
O561   O     0.79607   0.87058   0.34968   0.00000  Uiso   1.00
O562   O     0.87491   0.84425   0.14606   0.00000  Uiso   1.00
O563   O     0.84118   0.82546   0.34968   0.00000  Uiso   1.00
O564   O     0.72946   0.85700   0.41722   0.00000  Uiso   1.00
O565   O     0.84597   0.74686   0.28214   0.00000  Uiso   1.00
O566   O     0.81298   0.92751   0.27014   0.00000  Uiso   1.00
O567   O     0.74078   0.79958   0.23413   0.00000  Uiso   1.00
O568   O     0.93360   0.85939   0.21361   0.00000  Uiso   1.00
O569   O     0.73738   0.85544   0.28213   0.00000  Uiso   1.00
O570   O     0.92158   0.81892   0.27014   0.00000  Uiso   1.00
O571   O     0.80426   0.73610   0.23413   0.00000  Uiso   1.00
O572   O     0.87012   0.92286   0.21361   0.00000  Uiso   1.00
Zn573  Zn    0.86005   0.80661   0.28734   0.00000  Uiso   1.00
Zn574  Zn    0.80046   0.79124   0.21876   0.00000  Uiso   1.00
Zn575  Zn    0.87723   0.86442   0.20657   0.00000  Uiso   1.00
Zn576  Zn    0.79560   0.87106   0.28734   0.00000  Uiso   1.00
C577   C     0.05314   0.16023   0.75962   0.00000  Uiso   1.00
C578   C     0.16537   0.15149   0.55941   0.00000  Uiso   1.00
C579   C     0.23768   0.14017   0.55674   0.00000  Uiso   1.00
C580   C     0.28073   0.17369   0.74022   0.00000  Uiso   1.00
C581   C     0.13522   0.18623   0.92042   0.00000  Uiso   1.00
C582   C     0.32632   0.17490   0.73628   0.00000  Uiso   1.00
C583   C     0.00796   0.15751   0.76576   0.00000  Uiso   1.00
C584   C     0.18052   0.32257   0.73630   0.00000  Uiso   1.00
C585   C     0.15237   0.01184   0.76426   0.00000  Uiso   1.00
C586   C     0.15632   0.05594   0.76027   0.00000  Uiso   1.00
C587   C     0.17665   0.27795   0.74013   0.00000  Uiso   1.00
C588   C     0.07724   0.18174   0.98816   0.00000  Uiso   1.00
C589   C     0.18573   0.14839   0.62938   0.00000  Uiso   1.00
C590   C     0.14828   0.18434   0.87097   0.00000  Uiso   1.00
C591   C     0.25059   0.14725   0.51154   0.00000  Uiso   1.00
C592   C     0.19538   0.14321   0.58085   0.00000  Uiso   1.00
C593   C     0.09167   0.18839   0.94244   0.00000  Uiso   1.00
C594   C     0.31524   0.13889   0.80618   0.00000  Uiso   1.00
C595   C     0.03640   0.22215   0.93498   0.00000  Uiso   1.00
C596   C     0.01906   0.23469   0.89774   0.00000  Uiso   1.00
C597   C     0.32093   0.26677   0.91534   0.00000  Uiso   1.00
C598   C     0.10503   0.17269   0.51182   0.00000  Uiso   1.00
C599   C     0.14886   0.17087   0.99088   0.00000  Uiso   1.00
C600   C     0.16430   0.17978   0.94505   0.00000  Uiso   1.00
C601   C     0.17782   0.15986   0.51369   0.00000  Uiso   1.00
C602   C     0.22147   0.15836   0.99022   0.00000  Uiso   1.00
C603   C     0.23629   0.16977   0.94630   0.00000  Uiso   1.00
C604   C     0.20850   0.18153   0.92449   0.00000  Uiso   1.00
H605   H     0.26123   0.13454   0.57357   0.00000  Uiso   1.00
H606   H     0.01526   0.19011   0.70815   0.00000  Uiso   1.00
H607   H     0.05429   0.25044   0.94801   0.00000  Uiso   1.00
H608   H     0.00899   0.21018   0.96231   0.00000  Uiso   1.00
H609   H     0.04608   0.24805   0.87087   0.00000  Uiso   1.00
H610   H     0.00269   0.20664   0.88291   0.00000  Uiso   1.00
H611   H     0.29337   0.25388   0.94191   0.00000  Uiso   1.00
H612   H     0.30878   0.27490   0.88754   0.00000  Uiso   1.00
H613   H     0.00365   0.29557   0.92920   0.00000  Uiso   1.00
H614   H     0.20646   0.00380   0.71055   0.00000  Uiso   1.00
H615   H     0.12619   0.33141   0.79027   0.00000  Uiso   1.00
H616   H     0.26980   0.17026   0.92887   0.00000  Uiso   1.00
H617   H     0.28384   0.14601   0.99378   0.00000  Uiso   1.00
H618   H     0.13363   0.15442   0.58019   0.00000  Uiso   1.00
H619   H     0.09072   0.16643   0.54633   0.00000  Uiso   1.00
H620   H     0.04368   0.18119   0.50523   0.00000  Uiso   1.00
H621   H     0.22235   0.19220   0.89126   0.00000  Uiso   1.00
N622   N     0.29459   0.12402   0.83850   0.00000  Uiso   1.00
O623   O     0.16667   0.16667   0.75000   0.00000  Uiso   1.00
O624   O     0.15451   0.12637   0.65459   0.00000  Uiso   1.00
O625   O     0.12940   0.20391   0.84968   0.00000  Uiso   1.00
O626   O     0.20824   0.17759   0.64606   0.00000  Uiso   1.00
O627   O     0.17451   0.15880   0.84968   0.00000  Uiso   1.00
O628   O     0.06279   0.19033   0.91722   0.00000  Uiso   1.00
O629   O     0.17930   0.08019   0.78214   0.00000  Uiso   1.00
O630   O     0.14632   0.26085   0.77014   0.00000  Uiso   1.00
O631   O     0.07412   0.13291   0.73413   0.00000  Uiso   1.00
O632   O     0.26693   0.19272   0.71361   0.00000  Uiso   1.00
O633   O     0.07071   0.18878   0.78213   0.00000  Uiso   1.00
O634   O     0.25491   0.15226   0.77014   0.00000  Uiso   1.00
O635   O     0.13760   0.06944   0.73413   0.00000  Uiso   1.00
O636   O     0.20345   0.25620   0.71361   0.00000  Uiso   1.00
Zn637  Zn    0.19338   0.13994   0.78734   0.00000  Uiso   1.00
Zn638  Zn    0.13379   0.12458   0.71876   0.00000  Uiso   1.00
Zn639  Zn    0.21056   0.19775   0.70657   0.00000  Uiso   1.00
Zn640  Zn    0.12893   0.20439   0.78734   0.00000  Uiso   1.00
C641   C     0.38647   0.16023   0.75962   0.00000  Uiso   1.00
C642   C     0.49870   0.15149   0.55941   0.00000  Uiso   1.00
C643   C     0.57101   0.14017   0.55674   0.00000  Uiso   1.00
C644   C     0.61406   0.17369   0.74022   0.00000  Uiso   1.00
C645   C     0.46856   0.18623   0.92042   0.00000  Uiso   1.00
C646   C     0.65965   0.17490   0.73628   0.00000  Uiso   1.00
C647   C     0.34130   0.15751   0.76576   0.00000  Uiso   1.00
C648   C     0.51385   0.32257   0.73630   0.00000  Uiso   1.00
C649   C     0.48570   0.01184   0.76426   0.00000  Uiso   1.00
C650   C     0.48965   0.05594   0.76027   0.00000  Uiso   1.00
C651   C     0.50998   0.27795   0.74013   0.00000  Uiso   1.00
C652   C     0.41058   0.18174   0.98816   0.00000  Uiso   1.00
C653   C     0.51906   0.14839   0.62938   0.00000  Uiso   1.00
C654   C     0.48162   0.18434   0.87097   0.00000  Uiso   1.00
C655   C     0.58392   0.14725   0.51154   0.00000  Uiso   1.00
C656   C     0.52872   0.14321   0.58085   0.00000  Uiso   1.00
C657   C     0.42501   0.18839   0.94244   0.00000  Uiso   1.00
C658   C     0.64857   0.13889   0.80618   0.00000  Uiso   1.00
C659   C     0.36974   0.22215   0.93498   0.00000  Uiso   1.00
C660   C     0.35239   0.23469   0.89774   0.00000  Uiso   1.00
C661   C     0.65427   0.26677   0.91534   0.00000  Uiso   1.00
C662   C     0.43836   0.17269   0.51182   0.00000  Uiso   1.00
C663   C     0.48220   0.17087   0.99088   0.00000  Uiso   1.00
C664   C     0.49764   0.17978   0.94505   0.00000  Uiso   1.00
C665   C     0.51116   0.15986   0.51369   0.00000  Uiso   1.00
C666   C     0.55481   0.15836   0.99022   0.00000  Uiso   1.00
C667   C     0.56962   0.16977   0.94630   0.00000  Uiso   1.00
C668   C     0.54183   0.18153   0.92449   0.00000  Uiso   1.00
H669   H     0.59457   0.13454   0.57357   0.00000  Uiso   1.00
H670   H     0.34860   0.19011   0.70815   0.00000  Uiso   1.00
H671   H     0.38762   0.25044   0.94801   0.00000  Uiso   1.00
H672   H     0.34232   0.21018   0.96231   0.00000  Uiso   1.00
H673   H     0.37942   0.24805   0.87087   0.00000  Uiso   1.00
H674   H     0.33602   0.20664   0.88291   0.00000  Uiso   1.00
H675   H     0.62670   0.25388   0.94191   0.00000  Uiso   1.00
H676   H     0.64212   0.27490   0.88754   0.00000  Uiso   1.00
H677   H     0.33699   0.29557   0.92920   0.00000  Uiso   1.00
H678   H     0.53979   0.00380   0.71055   0.00000  Uiso   1.00
H679   H     0.45952   0.33141   0.79027   0.00000  Uiso   1.00
H680   H     0.60313   0.17026   0.92887   0.00000  Uiso   1.00
H681   H     0.61718   0.14601   0.99378   0.00000  Uiso   1.00
H682   H     0.46696   0.15442   0.58019   0.00000  Uiso   1.00
H683   H     0.42405   0.16643   0.54633   0.00000  Uiso   1.00
H684   H     0.37701   0.18119   0.50523   0.00000  Uiso   1.00
H685   H     0.55568   0.19220   0.89126   0.00000  Uiso   1.00
N686   N     0.62792   0.12402   0.83850   0.00000  Uiso   1.00
O687   O     0.50000   0.16667   0.75000   0.00000  Uiso   1.00
O688   O     0.48784   0.12637   0.65459   0.00000  Uiso   1.00
O689   O     0.46274   0.20391   0.84968   0.00000  Uiso   1.00
O690   O     0.54157   0.17759   0.64606   0.00000  Uiso   1.00
O691   O     0.50785   0.15880   0.84968   0.00000  Uiso   1.00
O692   O     0.39613   0.19033   0.91722   0.00000  Uiso   1.00
O693   O     0.51264   0.08019   0.78214   0.00000  Uiso   1.00
O694   O     0.47965   0.26085   0.77014   0.00000  Uiso   1.00
O695   O     0.40745   0.13291   0.73413   0.00000  Uiso   1.00
O696   O     0.60026   0.19272   0.71361   0.00000  Uiso   1.00
O697   O     0.40405   0.18878   0.78213   0.00000  Uiso   1.00
O698   O     0.58824   0.15226   0.77014   0.00000  Uiso   1.00
O699   O     0.47093   0.06944   0.73413   0.00000  Uiso   1.00
O700   O     0.53678   0.25620   0.71361   0.00000  Uiso   1.00
Zn701  Zn    0.52672   0.13994   0.78734   0.00000  Uiso   1.00
Zn702  Zn    0.46713   0.12458   0.71876   0.00000  Uiso   1.00
Zn703  Zn    0.54389   0.19775   0.70657   0.00000  Uiso   1.00
Zn704  Zn    0.46226   0.20439   0.78734   0.00000  Uiso   1.00
C705   C     0.71980   0.16023   0.75962   0.00000  Uiso   1.00
C706   C     0.83204   0.15149   0.55941   0.00000  Uiso   1.00
C707   C     0.90435   0.14017   0.55674   0.00000  Uiso   1.00
C708   C     0.94739   0.17369   0.74022   0.00000  Uiso   1.00
C709   C     0.80189   0.18623   0.92042   0.00000  Uiso   1.00
C710   C     0.99298   0.17490   0.73628   0.00000  Uiso   1.00
C711   C     0.67463   0.15751   0.76576   0.00000  Uiso   1.00
C712   C     0.84719   0.32257   0.73630   0.00000  Uiso   1.00
C713   C     0.81904   0.01184   0.76426   0.00000  Uiso   1.00
C714   C     0.82299   0.05594   0.76027   0.00000  Uiso   1.00
C715   C     0.84332   0.27795   0.74013   0.00000  Uiso   1.00
C716   C     0.74391   0.18174   0.98816   0.00000  Uiso   1.00
C717   C     0.85240   0.14839   0.62938   0.00000  Uiso   1.00
C718   C     0.81495   0.18434   0.87097   0.00000  Uiso   1.00
C719   C     0.91725   0.14725   0.51154   0.00000  Uiso   1.00
C720   C     0.86205   0.14321   0.58085   0.00000  Uiso   1.00
C721   C     0.75834   0.18839   0.94244   0.00000  Uiso   1.00
C722   C     0.98190   0.13889   0.80618   0.00000  Uiso   1.00
C723   C     0.70307   0.22215   0.93498   0.00000  Uiso   1.00
C724   C     0.68572   0.23469   0.89774   0.00000  Uiso   1.00
C725   C     0.98760   0.26677   0.91534   0.00000  Uiso   1.00
C726   C     0.77169   0.17269   0.51182   0.00000  Uiso   1.00
C727   C     0.81553   0.17087   0.99088   0.00000  Uiso   1.00
C728   C     0.83097   0.17978   0.94505   0.00000  Uiso   1.00
C729   C     0.84449   0.15986   0.51369   0.00000  Uiso   1.00
C730   C     0.88814   0.15836   0.99022   0.00000  Uiso   1.00
C731   C     0.90295   0.16977   0.94630   0.00000  Uiso   1.00
C732   C     0.87517   0.18153   0.92449   0.00000  Uiso   1.00
H733   H     0.92790   0.13454   0.57357   0.00000  Uiso   1.00
H734   H     0.68193   0.19011   0.70815   0.00000  Uiso   1.00
H735   H     0.72095   0.25044   0.94801   0.00000  Uiso   1.00
H736   H     0.67565   0.21018   0.96231   0.00000  Uiso   1.00
H737   H     0.71275   0.24805   0.87087   0.00000  Uiso   1.00
H738   H     0.66936   0.20664   0.88291   0.00000  Uiso   1.00
H739   H     0.96004   0.25388   0.94191   0.00000  Uiso   1.00
H740   H     0.97545   0.27490   0.88754   0.00000  Uiso   1.00
H741   H     0.67032   0.29557   0.92920   0.00000  Uiso   1.00
H742   H     0.87312   0.00380   0.71055   0.00000  Uiso   1.00
H743   H     0.79286   0.33141   0.79027   0.00000  Uiso   1.00
H744   H     0.93646   0.17026   0.92887   0.00000  Uiso   1.00
H745   H     0.95051   0.14601   0.99378   0.00000  Uiso   1.00
H746   H     0.80030   0.15442   0.58019   0.00000  Uiso   1.00
H747   H     0.75739   0.16643   0.54633   0.00000  Uiso   1.00
H748   H     0.71035   0.18119   0.50523   0.00000  Uiso   1.00
H749   H     0.88902   0.19220   0.89126   0.00000  Uiso   1.00
N750   N     0.96126   0.12402   0.83850   0.00000  Uiso   1.00
O751   O     0.83333   0.16667   0.75000   0.00000  Uiso   1.00
O752   O     0.82118   0.12637   0.65459   0.00000  Uiso   1.00
O753   O     0.79607   0.20391   0.84968   0.00000  Uiso   1.00
O754   O     0.87491   0.17759   0.64606   0.00000  Uiso   1.00
O755   O     0.84118   0.15880   0.84968   0.00000  Uiso   1.00
O756   O     0.72946   0.19033   0.91722   0.00000  Uiso   1.00
O757   O     0.84597   0.08019   0.78214   0.00000  Uiso   1.00
O758   O     0.81298   0.26085   0.77014   0.00000  Uiso   1.00
O759   O     0.74078   0.13291   0.73413   0.00000  Uiso   1.00
O760   O     0.93360   0.19272   0.71361   0.00000  Uiso   1.00
O761   O     0.73738   0.18878   0.78213   0.00000  Uiso   1.00
O762   O     0.92158   0.15226   0.77014   0.00000  Uiso   1.00
O763   O     0.80426   0.06944   0.73413   0.00000  Uiso   1.00
O764   O     0.87012   0.25620   0.71361   0.00000  Uiso   1.00
Zn765  Zn    0.86005   0.13994   0.78734   0.00000  Uiso   1.00
Zn766  Zn    0.80046   0.12458   0.71876   0.00000  Uiso   1.00
Zn767  Zn    0.87723   0.19775   0.70657   0.00000  Uiso   1.00
Zn768  Zn    0.79560   0.20439   0.78734   0.00000  Uiso   1.00
C769   C     0.05314   0.49357   0.75962   0.00000  Uiso   1.00
C770   C     0.16537   0.48482   0.55941   0.00000  Uiso   1.00
C771   C     0.23768   0.47350   0.55674   0.00000  Uiso   1.00
C772   C     0.28073   0.50702   0.74022   0.00000  Uiso   1.00
C773   C     0.13522   0.51957   0.92042   0.00000  Uiso   1.00
C774   C     0.32632   0.50823   0.73628   0.00000  Uiso   1.00
C775   C     0.00796   0.49084   0.76576   0.00000  Uiso   1.00
C776   C     0.18052   0.65590   0.73630   0.00000  Uiso   1.00
C777   C     0.15237   0.34517   0.76426   0.00000  Uiso   1.00
C778   C     0.15632   0.38928   0.76027   0.00000  Uiso   1.00
C779   C     0.17665   0.61128   0.74013   0.00000  Uiso   1.00
C780   C     0.07724   0.51507   0.98816   0.00000  Uiso   1.00
C781   C     0.18573   0.48172   0.62938   0.00000  Uiso   1.00
C782   C     0.14828   0.51767   0.87097   0.00000  Uiso   1.00
C783   C     0.25059   0.48058   0.51154   0.00000  Uiso   1.00
C784   C     0.19538   0.47654   0.58085   0.00000  Uiso   1.00
C785   C     0.09167   0.52173   0.94244   0.00000  Uiso   1.00
C786   C     0.31524   0.47222   0.80618   0.00000  Uiso   1.00
C787   C     0.03640   0.55549   0.93498   0.00000  Uiso   1.00
C788   C     0.01906   0.56802   0.89774   0.00000  Uiso   1.00
C789   C     0.32093   0.60010   0.91534   0.00000  Uiso   1.00
C790   C     0.10503   0.50602   0.51182   0.00000  Uiso   1.00
C791   C     0.14886   0.50420   0.99088   0.00000  Uiso   1.00
C792   C     0.16430   0.51311   0.94505   0.00000  Uiso   1.00
C793   C     0.17782   0.49320   0.51369   0.00000  Uiso   1.00
C794   C     0.22147   0.49169   0.99022   0.00000  Uiso   1.00
C795   C     0.23629   0.50311   0.94630   0.00000  Uiso   1.00
C796   C     0.20850   0.51487   0.92449   0.00000  Uiso   1.00
H797   H     0.26123   0.46787   0.57357   0.00000  Uiso   1.00
H798   H     0.01526   0.52344   0.70815   0.00000  Uiso   1.00
H799   H     0.05429   0.58378   0.94801   0.00000  Uiso   1.00
H800   H     0.00899   0.54351   0.96231   0.00000  Uiso   1.00
H801   H     0.04608   0.58138   0.87087   0.00000  Uiso   1.00
H802   H     0.00269   0.53997   0.88291   0.00000  Uiso   1.00
H803   H     0.29337   0.58721   0.94191   0.00000  Uiso   1.00
H804   H     0.30878   0.60823   0.88754   0.00000  Uiso   1.00
H805   H     0.00365   0.62891   0.92920   0.00000  Uiso   1.00
H806   H     0.20646   0.33714   0.71055   0.00000  Uiso   1.00
H807   H     0.12619   0.66475   0.79027   0.00000  Uiso   1.00
H808   H     0.26980   0.50360   0.92887   0.00000  Uiso   1.00
H809   H     0.28384   0.47934   0.99378   0.00000  Uiso   1.00
H810   H     0.13363   0.48776   0.58019   0.00000  Uiso   1.00
H811   H     0.09072   0.49977   0.54633   0.00000  Uiso   1.00
H812   H     0.04368   0.51452   0.50523   0.00000  Uiso   1.00
H813   H     0.22235   0.52553   0.89126   0.00000  Uiso   1.00
N814   N     0.29459   0.45735   0.83850   0.00000  Uiso   1.00
O815   O     0.16667   0.50000   0.75000   0.00000  Uiso   1.00
O816   O     0.15451   0.45970   0.65459   0.00000  Uiso   1.00
O817   O     0.12940   0.53724   0.84968   0.00000  Uiso   1.00
O818   O     0.20824   0.51092   0.64606   0.00000  Uiso   1.00
O819   O     0.17451   0.49213   0.84968   0.00000  Uiso   1.00
O820   O     0.06279   0.52367   0.91722   0.00000  Uiso   1.00
O821   O     0.17930   0.41352   0.78214   0.00000  Uiso   1.00
O822   O     0.14632   0.59418   0.77014   0.00000  Uiso   1.00
O823   O     0.07412   0.46625   0.73413   0.00000  Uiso   1.00
O824   O     0.26693   0.52605   0.71361   0.00000  Uiso   1.00
O825   O     0.07071   0.52211   0.78213   0.00000  Uiso   1.00
O826   O     0.25491   0.48559   0.77014   0.00000  Uiso   1.00
O827   O     0.13760   0.40277   0.73413   0.00000  Uiso   1.00
O828   O     0.20345   0.58953   0.71361   0.00000  Uiso   1.00
Zn829  Zn    0.19338   0.47327   0.78734   0.00000  Uiso   1.00
Zn830  Zn    0.13379   0.45791   0.71876   0.00000  Uiso   1.00
Zn831  Zn    0.21056   0.53109   0.70657   0.00000  Uiso   1.00
Zn832  Zn    0.12893   0.53773   0.78734   0.00000  Uiso   1.00
C833   C     0.38647   0.49357   0.75962   0.00000  Uiso   1.00
C834   C     0.49870   0.48482   0.55941   0.00000  Uiso   1.00
C835   C     0.57101   0.47350   0.55674   0.00000  Uiso   1.00
C836   C     0.61406   0.50702   0.74022   0.00000  Uiso   1.00
C837   C     0.46856   0.51957   0.92042   0.00000  Uiso   1.00
C838   C     0.65965   0.50823   0.73628   0.00000  Uiso   1.00
C839   C     0.34130   0.49084   0.76576   0.00000  Uiso   1.00
C840   C     0.51385   0.65590   0.73630   0.00000  Uiso   1.00
C841   C     0.48570   0.34517   0.76426   0.00000  Uiso   1.00
C842   C     0.48965   0.38928   0.76027   0.00000  Uiso   1.00
C843   C     0.50998   0.61128   0.74013   0.00000  Uiso   1.00
C844   C     0.41058   0.51507   0.98816   0.00000  Uiso   1.00
C845   C     0.51906   0.48172   0.62938   0.00000  Uiso   1.00
C846   C     0.48162   0.51767   0.87097   0.00000  Uiso   1.00
C847   C     0.58392   0.48058   0.51154   0.00000  Uiso   1.00
C848   C     0.52872   0.47654   0.58085   0.00000  Uiso   1.00
C849   C     0.42501   0.52173   0.94244   0.00000  Uiso   1.00
C850   C     0.64857   0.47222   0.80618   0.00000  Uiso   1.00
C851   C     0.36974   0.55549   0.93498   0.00000  Uiso   1.00
C852   C     0.35239   0.56802   0.89774   0.00000  Uiso   1.00
C853   C     0.65427   0.60010   0.91534   0.00000  Uiso   1.00
C854   C     0.43836   0.50602   0.51182   0.00000  Uiso   1.00
C855   C     0.48220   0.50420   0.99088   0.00000  Uiso   1.00
C856   C     0.49764   0.51311   0.94505   0.00000  Uiso   1.00
C857   C     0.51116   0.49320   0.51369   0.00000  Uiso   1.00
C858   C     0.55481   0.49169   0.99022   0.00000  Uiso   1.00
C859   C     0.56962   0.50311   0.94630   0.00000  Uiso   1.00
C860   C     0.54183   0.51487   0.92449   0.00000  Uiso   1.00
H861   H     0.59457   0.46787   0.57357   0.00000  Uiso   1.00
H862   H     0.34860   0.52344   0.70815   0.00000  Uiso   1.00
H863   H     0.38762   0.58378   0.94801   0.00000  Uiso   1.00
H864   H     0.34232   0.54351   0.96231   0.00000  Uiso   1.00
H865   H     0.37942   0.58138   0.87087   0.00000  Uiso   1.00
H866   H     0.33602   0.53997   0.88291   0.00000  Uiso   1.00
H867   H     0.62670   0.58721   0.94191   0.00000  Uiso   1.00
H868   H     0.64212   0.60823   0.88754   0.00000  Uiso   1.00
H869   H     0.33699   0.62891   0.92920   0.00000  Uiso   1.00
H870   H     0.53979   0.33714   0.71055   0.00000  Uiso   1.00
H871   H     0.45952   0.66475   0.79027   0.00000  Uiso   1.00
H872   H     0.60313   0.50360   0.92887   0.00000  Uiso   1.00
H873   H     0.61718   0.47934   0.99378   0.00000  Uiso   1.00
H874   H     0.46696   0.48776   0.58019   0.00000  Uiso   1.00
H875   H     0.42405   0.49977   0.54633   0.00000  Uiso   1.00
H876   H     0.37701   0.51452   0.50523   0.00000  Uiso   1.00
H877   H     0.55568   0.52553   0.89126   0.00000  Uiso   1.00
N878   N     0.62792   0.45735   0.83850   0.00000  Uiso   1.00
O879   O     0.50000   0.50000   0.75000   0.00000  Uiso   1.00
O880   O     0.48784   0.45970   0.65459   0.00000  Uiso   1.00
O881   O     0.46274   0.53724   0.84968   0.00000  Uiso   1.00
O882   O     0.54157   0.51092   0.64606   0.00000  Uiso   1.00
O883   O     0.50785   0.49213   0.84968   0.00000  Uiso   1.00
O884   O     0.39613   0.52367   0.91722   0.00000  Uiso   1.00
O885   O     0.51264   0.41352   0.78214   0.00000  Uiso   1.00
O886   O     0.47965   0.59418   0.77014   0.00000  Uiso   1.00
O887   O     0.40745   0.46625   0.73413   0.00000  Uiso   1.00
O888   O     0.60026   0.52605   0.71361   0.00000  Uiso   1.00
O889   O     0.40405   0.52211   0.78213   0.00000  Uiso   1.00
O890   O     0.58824   0.48559   0.77014   0.00000  Uiso   1.00
O891   O     0.47093   0.40277   0.73413   0.00000  Uiso   1.00
O892   O     0.53678   0.58953   0.71361   0.00000  Uiso   1.00
Zn893  Zn    0.52672   0.47327   0.78734   0.00000  Uiso   1.00
Zn894  Zn    0.46713   0.45791   0.71876   0.00000  Uiso   1.00
Zn895  Zn    0.54389   0.53109   0.70657   0.00000  Uiso   1.00
Zn896  Zn    0.46226   0.53773   0.78734   0.00000  Uiso   1.00
C897   C     0.71980   0.49357   0.75962   0.00000  Uiso   1.00
C898   C     0.83204   0.48482   0.55941   0.00000  Uiso   1.00
C899   C     0.90435   0.47350   0.55674   0.00000  Uiso   1.00
C900   C     0.94739   0.50702   0.74022   0.00000  Uiso   1.00
C901   C     0.80189   0.51957   0.92042   0.00000  Uiso   1.00
C902   C     0.99298   0.50823   0.73628   0.00000  Uiso   1.00
C903   C     0.67463   0.49084   0.76576   0.00000  Uiso   1.00
C904   C     0.84719   0.65590   0.73630   0.00000  Uiso   1.00
C905   C     0.81904   0.34517   0.76426   0.00000  Uiso   1.00
C906   C     0.82299   0.38928   0.76027   0.00000  Uiso   1.00
C907   C     0.84332   0.61128   0.74013   0.00000  Uiso   1.00
C908   C     0.74391   0.51507   0.98816   0.00000  Uiso   1.00
C909   C     0.85240   0.48172   0.62938   0.00000  Uiso   1.00
C910   C     0.81495   0.51767   0.87097   0.00000  Uiso   1.00
C911   C     0.91725   0.48058   0.51154   0.00000  Uiso   1.00
C912   C     0.86205   0.47654   0.58085   0.00000  Uiso   1.00
C913   C     0.75834   0.52173   0.94244   0.00000  Uiso   1.00
C914   C     0.98190   0.47222   0.80618   0.00000  Uiso   1.00
C915   C     0.70307   0.55549   0.93498   0.00000  Uiso   1.00
C916   C     0.68572   0.56802   0.89774   0.00000  Uiso   1.00
C917   C     0.98760   0.60010   0.91534   0.00000  Uiso   1.00
C918   C     0.77169   0.50602   0.51182   0.00000  Uiso   1.00
C919   C     0.81553   0.50420   0.99088   0.00000  Uiso   1.00
C920   C     0.83097   0.51311   0.94505   0.00000  Uiso   1.00
C921   C     0.84449   0.49320   0.51369   0.00000  Uiso   1.00
C922   C     0.88814   0.49169   0.99022   0.00000  Uiso   1.00
C923   C     0.90295   0.50311   0.94630   0.00000  Uiso   1.00
C924   C     0.87517   0.51487   0.92449   0.00000  Uiso   1.00
H925   H     0.92790   0.46787   0.57357   0.00000  Uiso   1.00
H926   H     0.68193   0.52344   0.70815   0.00000  Uiso   1.00
H927   H     0.72095   0.58378   0.94801   0.00000  Uiso   1.00
H928   H     0.67565   0.54351   0.96231   0.00000  Uiso   1.00
H929   H     0.71275   0.58138   0.87087   0.00000  Uiso   1.00
H930   H     0.66936   0.53997   0.88291   0.00000  Uiso   1.00
H931   H     0.96004   0.58721   0.94191   0.00000  Uiso   1.00
H932   H     0.97545   0.60823   0.88754   0.00000  Uiso   1.00
H933   H     0.67032   0.62891   0.92920   0.00000  Uiso   1.00
H934   H     0.87312   0.33714   0.71055   0.00000  Uiso   1.00
H935   H     0.79286   0.66475   0.79027   0.00000  Uiso   1.00
H936   H     0.93646   0.50360   0.92887   0.00000  Uiso   1.00
H937   H     0.95051   0.47934   0.99378   0.00000  Uiso   1.00
H938   H     0.80030   0.48776   0.58019   0.00000  Uiso   1.00
H939   H     0.75739   0.49977   0.54633   0.00000  Uiso   1.00
H940   H     0.71035   0.51452   0.50523   0.00000  Uiso   1.00
H941   H     0.88902   0.52553   0.89126   0.00000  Uiso   1.00
N942   N     0.96126   0.45735   0.83850   0.00000  Uiso   1.00
O943   O     0.83333   0.50000   0.75000   0.00000  Uiso   1.00
O944   O     0.82118   0.45970   0.65459   0.00000  Uiso   1.00
O945   O     0.79607   0.53724   0.84968   0.00000  Uiso   1.00
O946   O     0.87491   0.51092   0.64606   0.00000  Uiso   1.00
O947   O     0.84118   0.49213   0.84968   0.00000  Uiso   1.00
O948   O     0.72946   0.52367   0.91722   0.00000  Uiso   1.00
O949   O     0.84597   0.41352   0.78214   0.00000  Uiso   1.00
O950   O     0.81298   0.59418   0.77014   0.00000  Uiso   1.00
O951   O     0.74078   0.46625   0.73413   0.00000  Uiso   1.00
O952   O     0.93360   0.52605   0.71361   0.00000  Uiso   1.00
O953   O     0.73738   0.52211   0.78213   0.00000  Uiso   1.00
O954   O     0.92158   0.48559   0.77014   0.00000  Uiso   1.00
O955   O     0.80426   0.40277   0.73413   0.00000  Uiso   1.00
O956   O     0.87012   0.58953   0.71361   0.00000  Uiso   1.00
Zn957  Zn    0.86005   0.47327   0.78734   0.00000  Uiso   1.00
Zn958  Zn    0.80046   0.45791   0.71876   0.00000  Uiso   1.00
Zn959  Zn    0.87723   0.53109   0.70657   0.00000  Uiso   1.00
Zn960  Zn    0.79560   0.53773   0.78734   0.00000  Uiso   1.00
C961   C     0.05314   0.82690   0.75962   0.00000  Uiso   1.00
C962   C     0.16537   0.81815   0.55941   0.00000  Uiso   1.00
C963   C     0.23768   0.80684   0.55674   0.00000  Uiso   1.00
C964   C     0.28073   0.84035   0.74022   0.00000  Uiso   1.00
C965   C     0.13522   0.85290   0.92042   0.00000  Uiso   1.00
C966   C     0.32632   0.84156   0.73628   0.00000  Uiso   1.00
C967   C     0.00796   0.82417   0.76576   0.00000  Uiso   1.00
C968   C     0.18052   0.98924   0.73630   0.00000  Uiso   1.00
C969   C     0.15237   0.67851   0.76426   0.00000  Uiso   1.00
C970   C     0.15632   0.72261   0.76027   0.00000  Uiso   1.00
C971   C     0.17665   0.94461   0.74013   0.00000  Uiso   1.00
C972   C     0.07724   0.84840   0.98816   0.00000  Uiso   1.00
C973   C     0.18573   0.81506   0.62938   0.00000  Uiso   1.00
C974   C     0.14828   0.85100   0.87097   0.00000  Uiso   1.00
C975   C     0.25059   0.81392   0.51154   0.00000  Uiso   1.00
C976   C     0.19538   0.80988   0.58085   0.00000  Uiso   1.00
C977   C     0.09167   0.85506   0.94244   0.00000  Uiso   1.00
C978   C     0.31524   0.80555   0.80618   0.00000  Uiso   1.00
C979   C     0.03640   0.88882   0.93498   0.00000  Uiso   1.00
C980   C     0.01906   0.90135   0.89774   0.00000  Uiso   1.00
C981   C     0.32093   0.93343   0.91534   0.00000  Uiso   1.00
C982   C     0.10503   0.83935   0.51182   0.00000  Uiso   1.00
C983   C     0.14886   0.83754   0.99088   0.00000  Uiso   1.00
C984   C     0.16430   0.84644   0.94505   0.00000  Uiso   1.00
C985   C     0.17782   0.82653   0.51369   0.00000  Uiso   1.00
C986   C     0.22147   0.82502   0.99022   0.00000  Uiso   1.00
C987   C     0.23629   0.83644   0.94630   0.00000  Uiso   1.00
C988   C     0.20850   0.84820   0.92449   0.00000  Uiso   1.00
H989   H     0.26123   0.80120   0.57357   0.00000  Uiso   1.00
H990   H     0.01526   0.85677   0.70815   0.00000  Uiso   1.00
H991   H     0.05429   0.91711   0.94801   0.00000  Uiso   1.00
H992   H     0.00899   0.87685   0.96231   0.00000  Uiso   1.00
H993   H     0.04608   0.91471   0.87087   0.00000  Uiso   1.00
H994   H     0.00269   0.87331   0.88291   0.00000  Uiso   1.00
H995   H     0.29337   0.92055   0.94191   0.00000  Uiso   1.00
H996   H     0.30878   0.94156   0.88754   0.00000  Uiso   1.00
H997   H     0.00365   0.96224   0.92920   0.00000  Uiso   1.00
H998   H     0.20646   0.67047   0.71055   0.00000  Uiso   1.00
H999   H     0.12619   0.99808   0.79027   0.00000  Uiso   1.00
H1000  H     0.26980   0.83693   0.92887   0.00000  Uiso   1.00
H1001  H     0.28384   0.81267   0.99378   0.00000  Uiso   1.00
H1002  H     0.13363   0.82109   0.58019   0.00000  Uiso   1.00
H1003  H     0.09072   0.83310   0.54633   0.00000  Uiso   1.00
H1004  H     0.04368   0.84785   0.50523   0.00000  Uiso   1.00
H1005  H     0.22235   0.85886   0.89126   0.00000  Uiso   1.00
N1006  N     0.29459   0.79069   0.83850   0.00000  Uiso   1.00
O1007  O     0.16667   0.83333   0.75000   0.00000  Uiso   1.00
O1008  O     0.15451   0.79304   0.65459   0.00000  Uiso   1.00
O1009  O     0.12940   0.87058   0.84968   0.00000  Uiso   1.00
O1010  O     0.20824   0.84425   0.64606   0.00000  Uiso   1.00
O1011  O     0.17451   0.82546   0.84968   0.00000  Uiso   1.00
O1012  O     0.06279   0.85700   0.91722   0.00000  Uiso   1.00
O1013  O     0.17930   0.74686   0.78214   0.00000  Uiso   1.00
O1014  O     0.14632   0.92751   0.77014   0.00000  Uiso   1.00
O1015  O     0.07412   0.79958   0.73413   0.00000  Uiso   1.00
O1016  O     0.26693   0.85939   0.71361   0.00000  Uiso   1.00
O1017  O     0.07071   0.85544   0.78213   0.00000  Uiso   1.00
O1018  O     0.25491   0.81892   0.77014   0.00000  Uiso   1.00
O1019  O     0.13760   0.73610   0.73413   0.00000  Uiso   1.00
O1020  O     0.20345   0.92286   0.71361   0.00000  Uiso   1.00
Zn1021 Zn    0.19338   0.80661   0.78734   0.00000  Uiso   1.00
Zn1022 Zn    0.13379   0.79124   0.71876   0.00000  Uiso   1.00
Zn1023 Zn    0.21056   0.86442   0.70657   0.00000  Uiso   1.00
Zn1024 Zn    0.12893   0.87106   0.78734   0.00000  Uiso   1.00
C1025  C     0.38647   0.82690   0.75962   0.00000  Uiso   1.00
C1026  C     0.49870   0.81815   0.55941   0.00000  Uiso   1.00
C1027  C     0.57101   0.80684   0.55674   0.00000  Uiso   1.00
C1028  C     0.61406   0.84035   0.74022   0.00000  Uiso   1.00
C1029  C     0.46856   0.85290   0.92042   0.00000  Uiso   1.00
C1030  C     0.65965   0.84156   0.73628   0.00000  Uiso   1.00
C1031  C     0.34130   0.82417   0.76576   0.00000  Uiso   1.00
C1032  C     0.51385   0.98924   0.73630   0.00000  Uiso   1.00
C1033  C     0.48570   0.67851   0.76426   0.00000  Uiso   1.00
C1034  C     0.48965   0.72261   0.76027   0.00000  Uiso   1.00
C1035  C     0.50998   0.94461   0.74013   0.00000  Uiso   1.00
C1036  C     0.41058   0.84840   0.98816   0.00000  Uiso   1.00
C1037  C     0.51906   0.81506   0.62938   0.00000  Uiso   1.00
C1038  C     0.48162   0.85100   0.87097   0.00000  Uiso   1.00
C1039  C     0.58392   0.81392   0.51154   0.00000  Uiso   1.00
C1040  C     0.52872   0.80988   0.58085   0.00000  Uiso   1.00
C1041  C     0.42501   0.85506   0.94244   0.00000  Uiso   1.00
C1042  C     0.64857   0.80555   0.80618   0.00000  Uiso   1.00
C1043  C     0.36974   0.88882   0.93498   0.00000  Uiso   1.00
C1044  C     0.35239   0.90135   0.89774   0.00000  Uiso   1.00
C1045  C     0.65427   0.93343   0.91534   0.00000  Uiso   1.00
C1046  C     0.43836   0.83935   0.51182   0.00000  Uiso   1.00
C1047  C     0.48220   0.83754   0.99088   0.00000  Uiso   1.00
C1048  C     0.49764   0.84644   0.94505   0.00000  Uiso   1.00
C1049  C     0.51116   0.82653   0.51369   0.00000  Uiso   1.00
C1050  C     0.55481   0.82502   0.99022   0.00000  Uiso   1.00
C1051  C     0.56962   0.83644   0.94630   0.00000  Uiso   1.00
C1052  C     0.54183   0.84820   0.92449   0.00000  Uiso   1.00
H1053  H     0.59457   0.80120   0.57357   0.00000  Uiso   1.00
H1054  H     0.34860   0.85677   0.70815   0.00000  Uiso   1.00
H1055  H     0.38762   0.91711   0.94801   0.00000  Uiso   1.00
H1056  H     0.34232   0.87685   0.96231   0.00000  Uiso   1.00
H1057  H     0.37942   0.91471   0.87087   0.00000  Uiso   1.00
H1058  H     0.33602   0.87331   0.88291   0.00000  Uiso   1.00
H1059  H     0.62670   0.92055   0.94191   0.00000  Uiso   1.00
H1060  H     0.64212   0.94156   0.88754   0.00000  Uiso   1.00
H1061  H     0.33699   0.96224   0.92920   0.00000  Uiso   1.00
H1062  H     0.53979   0.67047   0.71055   0.00000  Uiso   1.00
H1063  H     0.45952   0.99808   0.79027   0.00000  Uiso   1.00
H1064  H     0.60313   0.83693   0.92887   0.00000  Uiso   1.00
H1065  H     0.61718   0.81267   0.99378   0.00000  Uiso   1.00
H1066  H     0.46696   0.82109   0.58019   0.00000  Uiso   1.00
H1067  H     0.42405   0.83310   0.54633   0.00000  Uiso   1.00
H1068  H     0.37701   0.84785   0.50523   0.00000  Uiso   1.00
H1069  H     0.55568   0.85886   0.89126   0.00000  Uiso   1.00
N1070  N     0.62792   0.79069   0.83850   0.00000  Uiso   1.00
O1071  O     0.50000   0.83333   0.75000   0.00000  Uiso   1.00
O1072  O     0.48784   0.79304   0.65459   0.00000  Uiso   1.00
O1073  O     0.46274   0.87058   0.84968   0.00000  Uiso   1.00
O1074  O     0.54157   0.84425   0.64606   0.00000  Uiso   1.00
O1075  O     0.50785   0.82546   0.84968   0.00000  Uiso   1.00
O1076  O     0.39613   0.85700   0.91722   0.00000  Uiso   1.00
O1077  O     0.51264   0.74686   0.78214   0.00000  Uiso   1.00
O1078  O     0.47965   0.92751   0.77014   0.00000  Uiso   1.00
O1079  O     0.40745   0.79958   0.73413   0.00000  Uiso   1.00
O1080  O     0.60026   0.85939   0.71361   0.00000  Uiso   1.00
O1081  O     0.40405   0.85544   0.78213   0.00000  Uiso   1.00
O1082  O     0.58824   0.81892   0.77014   0.00000  Uiso   1.00
O1083  O     0.47093   0.73610   0.73413   0.00000  Uiso   1.00
O1084  O     0.53678   0.92286   0.71361   0.00000  Uiso   1.00
Zn1085 Zn    0.52672   0.80661   0.78734   0.00000  Uiso   1.00
Zn1086 Zn    0.46713   0.79124   0.71876   0.00000  Uiso   1.00
Zn1087 Zn    0.54389   0.86442   0.70657   0.00000  Uiso   1.00
Zn1088 Zn    0.46226   0.87106   0.78734   0.00000  Uiso   1.00
C1089  C     0.71980   0.82690   0.75962   0.00000  Uiso   1.00
C1090  C     0.83204   0.81815   0.55941   0.00000  Uiso   1.00
C1091  C     0.90435   0.80684   0.55674   0.00000  Uiso   1.00
C1092  C     0.94739   0.84035   0.74022   0.00000  Uiso   1.00
C1093  C     0.80189   0.85290   0.92042   0.00000  Uiso   1.00
C1094  C     0.99298   0.84156   0.73628   0.00000  Uiso   1.00
C1095  C     0.67463   0.82417   0.76576   0.00000  Uiso   1.00
C1096  C     0.84719   0.98924   0.73630   0.00000  Uiso   1.00
C1097  C     0.81904   0.67851   0.76426   0.00000  Uiso   1.00
C1098  C     0.82299   0.72261   0.76027   0.00000  Uiso   1.00
C1099  C     0.84332   0.94461   0.74013   0.00000  Uiso   1.00
C1100  C     0.74391   0.84840   0.98816   0.00000  Uiso   1.00
C1101  C     0.85240   0.81506   0.62938   0.00000  Uiso   1.00
C1102  C     0.81495   0.85100   0.87097   0.00000  Uiso   1.00
C1103  C     0.91725   0.81392   0.51154   0.00000  Uiso   1.00
C1104  C     0.86205   0.80988   0.58085   0.00000  Uiso   1.00
C1105  C     0.75834   0.85506   0.94244   0.00000  Uiso   1.00
C1106  C     0.98190   0.80555   0.80618   0.00000  Uiso   1.00
C1107  C     0.70307   0.88882   0.93498   0.00000  Uiso   1.00
C1108  C     0.68572   0.90135   0.89774   0.00000  Uiso   1.00
C1109  C     0.98760   0.93343   0.91534   0.00000  Uiso   1.00
C1110  C     0.77169   0.83935   0.51182   0.00000  Uiso   1.00
C1111  C     0.81553   0.83754   0.99088   0.00000  Uiso   1.00
C1112  C     0.83097   0.84644   0.94505   0.00000  Uiso   1.00
C1113  C     0.84449   0.82653   0.51369   0.00000  Uiso   1.00
C1114  C     0.88814   0.82502   0.99022   0.00000  Uiso   1.00
C1115  C     0.90295   0.83644   0.94630   0.00000  Uiso   1.00
C1116  C     0.87517   0.84820   0.92449   0.00000  Uiso   1.00
H1117  H     0.92790   0.80120   0.57357   0.00000  Uiso   1.00
H1118  H     0.68193   0.85677   0.70815   0.00000  Uiso   1.00
H1119  H     0.72095   0.91711   0.94801   0.00000  Uiso   1.00
H1120  H     0.67565   0.87685   0.96231   0.00000  Uiso   1.00
H1121  H     0.71275   0.91471   0.87087   0.00000  Uiso   1.00
H1122  H     0.66936   0.87331   0.88291   0.00000  Uiso   1.00
H1123  H     0.96004   0.92055   0.94191   0.00000  Uiso   1.00
H1124  H     0.97545   0.94156   0.88754   0.00000  Uiso   1.00
H1125  H     0.67032   0.96224   0.92920   0.00000  Uiso   1.00
H1126  H     0.87312   0.67047   0.71055   0.00000  Uiso   1.00
H1127  H     0.79286   0.99808   0.79027   0.00000  Uiso   1.00
H1128  H     0.93646   0.83693   0.92887   0.00000  Uiso   1.00
H1129  H     0.95051   0.81267   0.99378   0.00000  Uiso   1.00
H1130  H     0.80030   0.82109   0.58019   0.00000  Uiso   1.00
H1131  H     0.75739   0.83310   0.54633   0.00000  Uiso   1.00
H1132  H     0.71035   0.84785   0.50523   0.00000  Uiso   1.00
H1133  H     0.88902   0.85886   0.89126   0.00000  Uiso   1.00
N1134  N     0.96126   0.79069   0.83850   0.00000  Uiso   1.00
O1135  O     0.83333   0.83333   0.75000   0.00000  Uiso   1.00
O1136  O     0.82118   0.79304   0.65459   0.00000  Uiso   1.00
O1137  O     0.79607   0.87058   0.84968   0.00000  Uiso   1.00
O1138  O     0.87491   0.84425   0.64606   0.00000  Uiso   1.00
O1139  O     0.84118   0.82546   0.84968   0.00000  Uiso   1.00
O1140  O     0.72946   0.85700   0.91722   0.00000  Uiso   1.00
O1141  O     0.84597   0.74686   0.78214   0.00000  Uiso   1.00
O1142  O     0.81298   0.92751   0.77014   0.00000  Uiso   1.00
O1143  O     0.74078   0.79958   0.73413   0.00000  Uiso   1.00
O1144  O     0.93360   0.85939   0.71361   0.00000  Uiso   1.00
O1145  O     0.73738   0.85544   0.78213   0.00000  Uiso   1.00
O1146  O     0.92158   0.81892   0.77014   0.00000  Uiso   1.00
O1147  O     0.80426   0.73610   0.73413   0.00000  Uiso   1.00
O1148  O     0.87012   0.92286   0.71361   0.00000  Uiso   1.00
Zn1149 Zn    0.86005   0.80661   0.78734   0.00000  Uiso   1.00
Zn1150 Zn    0.80046   0.79124   0.71876   0.00000  Uiso   1.00
Zn1151 Zn    0.87723   0.86442   0.70657   0.00000  Uiso   1.00
Zn1152 Zn    0.79560   0.87106   0.78734   0.00000  Uiso   1.00
loop_
_geom_bond_atom_site_label_1
_geom_bond_atom_site_label_2
_geom_bond_distance
_geom_bond_site_symmetry_2
_ccdc_geom_bond_type
C1     O57     1.268   .     A
C1     O55     1.274   .     A
C1     C7      1.429   .     S
C2     C16     1.393   .     A
C2     H42     1.077   .     S
C2     C25     1.412   .     A
C3     H29     1.084   .     S
C3     C15     1.386   .     A
C3     C16     1.397   .     A
C4     O56     1.285   .     A
C4     C6      1.458   .     S
C4     O58     1.267   .     A
C5     C14     1.477   .     S
C5     C24     1.418   .     A
C5     C17     1.414   .     A
C6     C71     1.349   .     S
C6     H94     1.088   .     S
C7     C134    1.349   1_455 S
C7     C146    1.450   1_455 S
C8     C11     1.450   .     S
C8     C201    1.331   .     S
C8     H230    1.088   .     S
C9     C10     1.434   .     S
C9     C392    1.331   1_545 S
C9     H423    1.086   1_545 S
C10    O59     1.281   .     A
C10    O53     1.281   .     A
C11    O60     1.271   .     A
C11    O54     1.271   .     A
C12    C17     1.400   .     A
C12    C598    1.389   .     S
C12    H620    1.082   .     S
C13    O48     1.283   .     A
C13    O50     1.270   .     A
C13    C16     1.451   .     S
C14    O49     1.280   .     A
C14    O51     1.283   .     A
C15    C602    1.399   1_554 S
C15    H617    1.084   1_554 S
C17    O52     1.390   .     S
C18    N46     1.158   .     T
C18    C71     1.450   .     S
C19    C20     1.529   .     S
C19    H31     1.117   .     S
C19    H32     1.112   .     S
C19    O52     1.413   .     S
C20    H34     1.111   .     S
C20    H33     1.112   .     S
C20    C149    1.526   1_455 S
C21    H35     1.111   .     S
C21    H36     1.110   .     S
C21    C84     1.526   .     S
C21    H101    1.111   .     S
C22    H43     1.076   .     S
C22    C588    1.389   1_554 S
C22    C599    1.414   1_554 S
C23    C24     1.422   .     A
C23    C598    1.414   .     S
C23    C601    1.426   .     S
C24    C28     1.411   .     A
C25    C599    1.426   1_554 S
C25    C602    1.424   1_554 S
C26    C27     1.390   .     A
C26    C591    1.399   .     S
C26    C601    1.424   .     S
C27    H40     1.083   .     S
C27    C28     1.382   .     A
C28    H45     1.081   .     S
H30    C134    1.088   1_455 S
H37    C149    1.111   1_455 S
H38    C392    1.088   1_545 S
H39    C201    1.086   .     S
H41    C591    1.084   .     S
H44    C588    1.082   1_554 S
O47    Zn61    1.955   .     S
O47    Zn62    1.958   .     S
O47    Zn63    1.931   .     S
O47    Zn64    1.934   .     S
O48    Zn62    1.929   .     S
O49    Zn64    1.942   .     S
O50    Zn63    1.943   .     S
O51    Zn61    1.930   .     S
O53    Zn61    1.929   .     S
O54    Zn64    1.926   .     S
O55    Zn62    1.933   .     S
O56    Zn63    1.944   .     S
O57    Zn64    1.945   .     S
O58    Zn61    1.932   .     S
O59    Zn62    1.928   .     S
O60    Zn63    1.927   .     S
C65    O121    1.268   .     A
C65    O119    1.274   .     A
C65    C71     1.429   .     S
C66    C80     1.393   .     A
C66    H106    1.077   .     S
C66    C89     1.412   .     A
C67    H93     1.084   .     S
C67    C79     1.386   .     A
C67    C80     1.397   .     A
C68    O120    1.285   .     A
C68    C70     1.458   .     S
C68    O122    1.267   .     A
C69    C78     1.477   .     S
C69    C88     1.418   .     A
C69    C81     1.414   .     A
C70    C135    1.349   .     S
C70    H158    1.088   .     S
C72    C75     1.450   .     S
C72    C265    1.331   .     S
C72    H294    1.088   .     S
C73    C74     1.434   .     S
C73    C456    1.331   1_545 S
C73    H487    1.086   1_545 S
C74    O123    1.281   .     A
C74    O117    1.281   .     A
C75    O124    1.271   .     A
C75    O118    1.271   .     A
C76    C81     1.400   .     A
C76    C662    1.389   .     S
C76    H684    1.082   .     S
C77    O112    1.283   .     A
C77    O114    1.270   .     A
C77    C80     1.451   .     S
C78    O113    1.280   .     A
C78    O115    1.283   .     A
C79    C666    1.399   1_554 S
C79    H681    1.084   1_554 S
C81    O116    1.390   .     S
C82    N110    1.158   .     T
C82    C135    1.450   .     S
C83    C84     1.529   .     S
C83    H95     1.117   .     S
C83    H96     1.112   .     S
C83    O116    1.413   .     S
C84    H98     1.111   .     S
C84    H97     1.112   .     S
C85    H99     1.111   .     S
C85    H100    1.110   .     S
C85    C148    1.526   .     S
C85    H165    1.111   .     S
C86    H107    1.076   .     S
C86    C652    1.389   1_554 S
C86    C663    1.414   1_554 S
C87    C88     1.422   .     A
C87    C662    1.414   .     S
C87    C665    1.426   .     S
C88    C92     1.411   .     A
C89    C663    1.426   1_554 S
C89    C666    1.424   1_554 S
C90    C91     1.390   .     A
C90    C655    1.399   .     S
C90    C665    1.424   .     S
C91    H104    1.083   .     S
C91    C92     1.382   .     A
C92    H109    1.081   .     S
H102   C456    1.088   1_545 S
H103   C265    1.086   .     S
H105   C655    1.084   .     S
H108   C652    1.082   1_554 S
O111   Zn125   1.955   .     S
O111   Zn126   1.958   .     S
O111   Zn127   1.931   .     S
O111   Zn128   1.934   .     S
O112   Zn126   1.929   .     S
O113   Zn128   1.942   .     S
O114   Zn127   1.943   .     S
O115   Zn125   1.930   .     S
O117   Zn125   1.929   .     S
O118   Zn128   1.926   .     S
O119   Zn126   1.933   .     S
O120   Zn127   1.944   .     S
O121   Zn128   1.945   .     S
O122   Zn125   1.932   .     S
O123   Zn126   1.928   .     S
O124   Zn127   1.927   .     S
C129   O185    1.268   .     A
C129   O183    1.274   .     A
C129   C135    1.429   .     S
C130   C144    1.393   .     A
C130   H170    1.077   .     S
C130   C153    1.412   .     A
C131   H157    1.084   .     S
C131   C143    1.386   .     A
C131   C144    1.397   .     A
C132   O184    1.285   .     A
C132   C134    1.458   .     S
C132   O186    1.267   .     A
C133   C142    1.477   .     S
C133   C152    1.418   .     A
C133   C145    1.414   .     A
C134   C7      1.349   1_655 S
C134   H30     1.088   1_655 S
C136   C139    1.450   .     S
C136   C329    1.331   .     S
C136   H358    1.088   .     S
C137   C138    1.434   .     S
C137   C520    1.331   1_545 S
C137   H551    1.086   1_545 S
C138   O187    1.281   .     A
C138   O181    1.281   .     A
C139   O188    1.271   .     A
C139   O182    1.271   .     A
C140   C145    1.400   .     A
C140   C726    1.389   .     S
C140   H748    1.082   .     S
C141   O176    1.283   .     A
C141   O178    1.270   .     A
C141   C144    1.451   .     S
C142   O177    1.280   .     A
C142   O179    1.283   .     A
C143   C730    1.399   1_554 S
C143   H745    1.084   1_554 S
C145   O180    1.390   .     S
C146   N174    1.158   .     T
C146   C7      1.450   1_655 S
C147   C148    1.529   .     S
C147   H159    1.117   .     S
C147   H160    1.112   .     S
C147   O180    1.413   .     S
C148   H162    1.111   .     S
C148   H161    1.112   .     S
C149   H163    1.111   .     S
C149   H164    1.110   .     S
C149   C20     1.526   1_655 S
C149   H37     1.111   1_655 S
C150   H171    1.076   .     S
C150   C716    1.389   1_554 S
C150   C727    1.414   1_554 S
C151   C152    1.422   .     A
C151   C726    1.414   .     S
C151   C729    1.426   .     S
C152   C156    1.411   .     A
C153   C727    1.426   1_554 S
C153   C730    1.424   1_554 S
C154   C155    1.390   .     A
C154   C719    1.399   .     S
C154   C729    1.424   .     S
C155   H168    1.083   .     S
C155   C156    1.382   .     A
C156   H173    1.081   .     S
H166   C520    1.088   1_545 S
H167   C329    1.086   .     S
H169   C719    1.084   .     S
H172   C716    1.082   1_554 S
O175   Zn189   1.955   .     S
O175   Zn190   1.958   .     S
O175   Zn191   1.931   .     S
O175   Zn192   1.934   .     S
O176   Zn190   1.929   .     S
O177   Zn192   1.942   .     S
O178   Zn191   1.943   .     S
O179   Zn189   1.930   .     S
O181   Zn189   1.929   .     S
O182   Zn192   1.926   .     S
O183   Zn190   1.933   .     S
O184   Zn191   1.944   .     S
O185   Zn192   1.945   .     S
O186   Zn189   1.932   .     S
O187   Zn190   1.928   .     S
O188   Zn191   1.927   .     S
C193   O249    1.268   .     A
C193   O247    1.274   .     A
C193   C199    1.429   .     S
C194   C208    1.393   .     A
C194   H234    1.077   .     S
C194   C217    1.412   .     A
C195   H221    1.084   .     S
C195   C207    1.386   .     A
C195   C208    1.397   .     A
C196   O248    1.285   .     A
C196   C198    1.458   .     S
C196   O250    1.267   .     A
C197   C206    1.477   .     S
C197   C216    1.418   .     A
C197   C209    1.414   .     A
C198   C263    1.349   .     S
C198   H286    1.088   .     S
C199   C326    1.349   1_455 S
C199   C338    1.450   1_455 S
C200   C203    1.450   .     S
C200   C393    1.331   .     S
C200   H422    1.088   .     S
C201   C202    1.434   .     S
C202   O251    1.281   .     A
C202   O245    1.281   .     A
C203   O252    1.271   .     A
C203   O246    1.271   .     A
C204   C209    1.400   .     A
C204   C790    1.389   .     S
C204   H812    1.082   .     S
C205   O240    1.283   .     A
C205   O242    1.270   .     A
C205   C208    1.451   .     S
C206   O241    1.280   .     A
C206   O243    1.283   .     A
C207   C794    1.399   1_554 S
C207   H809    1.084   1_554 S
C209   O244    1.390   .     S
C210   N238    1.158   .     T
C210   C263    1.450   .     S
C211   C212    1.529   .     S
C211   H223    1.117   .     S
C211   H224    1.112   .     S
C211   O244    1.413   .     S
C212   H226    1.111   .     S
C212   H225    1.112   .     S
C212   C341    1.526   1_455 S
C213   H227    1.111   .     S
C213   H228    1.110   .     S
C213   C276    1.526   .     S
C213   H293    1.111   .     S
C214   H235    1.076   .     S
C214   C780    1.389   1_554 S
C214   C791    1.414   1_554 S
C215   C216    1.422   .     A
C215   C790    1.414   .     S
C215   C793    1.426   .     S
C216   C220    1.411   .     A
C217   C791    1.426   1_554 S
C217   C794    1.424   1_554 S
C218   C219    1.390   .     A
C218   C783    1.399   .     S
C218   C793    1.424   .     S
C219   H232    1.083   .     S
C219   C220    1.382   .     A
C220   H237    1.081   .     S
H222   C326    1.088   1_455 S
H229   C341    1.111   1_455 S
H231   C393    1.086   .     S
H233   C783    1.084   .     S
H236   C780    1.082   1_554 S
O239   Zn253   1.955   .     S
O239   Zn254   1.958   .     S
O239   Zn255   1.931   .     S
O239   Zn256   1.934   .     S
O240   Zn254   1.929   .     S
O241   Zn256   1.942   .     S
O242   Zn255   1.943   .     S
O243   Zn253   1.930   .     S
O245   Zn253   1.929   .     S
O246   Zn256   1.926   .     S
O247   Zn254   1.933   .     S
O248   Zn255   1.944   .     S
O249   Zn256   1.945   .     S
O250   Zn253   1.932   .     S
O251   Zn254   1.928   .     S
O252   Zn255   1.927   .     S
C257   O313    1.268   .     A
C257   O311    1.274   .     A
C257   C263    1.429   .     S
C258   C272    1.393   .     A
C258   H298    1.077   .     S
C258   C281    1.412   .     A
C259   H285    1.084   .     S
C259   C271    1.386   .     A
C259   C272    1.397   .     A
C260   O312    1.285   .     A
C260   C262    1.458   .     S
C260   O314    1.267   .     A
C261   C270    1.477   .     S
C261   C280    1.418   .     A
C261   C273    1.414   .     A
C262   C327    1.349   .     S
C262   H350    1.088   .     S
C264   C267    1.450   .     S
C264   C457    1.331   .     S
C264   H486    1.088   .     S
C265   C266    1.434   .     S
C266   O315    1.281   .     A
C266   O309    1.281   .     A
C267   O316    1.271   .     A
C267   O310    1.271   .     A
C268   C273    1.400   .     A
C268   C854    1.389   .     S
C268   H876    1.082   .     S
C269   O304    1.283   .     A
C269   O306    1.270   .     A
C269   C272    1.451   .     S
C270   O305    1.280   .     A
C270   O307    1.283   .     A
C271   C858    1.399   1_554 S
C271   H873    1.084   1_554 S
C273   O308    1.390   .     S
C274   N302    1.158   .     T
C274   C327    1.450   .     S
C275   C276    1.529   .     S
C275   H287    1.117   .     S
C275   H288    1.112   .     S
C275   O308    1.413   .     S
C276   H290    1.111   .     S
C276   H289    1.112   .     S
C277   H291    1.111   .     S
C277   H292    1.110   .     S
C277   C340    1.526   .     S
C277   H357    1.111   .     S
C278   H299    1.076   .     S
C278   C844    1.389   1_554 S
C278   C855    1.414   1_554 S
C279   C280    1.422   .     A
C279   C854    1.414   .     S
C279   C857    1.426   .     S
C280   C284    1.411   .     A
C281   C855    1.426   1_554 S
C281   C858    1.424   1_554 S
C282   C283    1.390   .     A
C282   C847    1.399   .     S
C282   C857    1.424   .     S
C283   H296    1.083   .     S
C283   C284    1.382   .     A
C284   H301    1.081   .     S
H295   C457    1.086   .     S
H297   C847    1.084   .     S
H300   C844    1.082   1_554 S
O303   Zn317   1.955   .     S
O303   Zn318   1.958   .     S
O303   Zn319   1.931   .     S
O303   Zn320   1.934   .     S
O304   Zn318   1.929   .     S
O305   Zn320   1.942   .     S
O306   Zn319   1.943   .     S
O307   Zn317   1.930   .     S
O309   Zn317   1.929   .     S
O310   Zn320   1.926   .     S
O311   Zn318   1.933   .     S
O312   Zn319   1.944   .     S
O313   Zn320   1.945   .     S
O314   Zn317   1.932   .     S
O315   Zn318   1.928   .     S
O316   Zn319   1.927   .     S
C321   O377    1.268   .     A
C321   O375    1.274   .     A
C321   C327    1.429   .     S
C322   C336    1.393   .     A
C322   H362    1.077   .     S
C322   C345    1.412   .     A
C323   H349    1.084   .     S
C323   C335    1.386   .     A
C323   C336    1.397   .     A
C324   O376    1.285   .     A
C324   C326    1.458   .     S
C324   O378    1.267   .     A
C325   C334    1.477   .     S
C325   C344    1.418   .     A
C325   C337    1.414   .     A
C326   C199    1.349   1_655 S
C326   H222    1.088   1_655 S
C328   C331    1.450   .     S
C328   C521    1.331   .     S
C328   H550    1.088   .     S
C329   C330    1.434   .     S
C330   O379    1.281   .     A
C330   O373    1.281   .     A
C331   O380    1.271   .     A
C331   O374    1.271   .     A
C332   C337    1.400   .     A
C332   C918    1.389   .     S
C332   H940    1.082   .     S
C333   O368    1.283   .     A
C333   O370    1.270   .     A
C333   C336    1.451   .     S
C334   O369    1.280   .     A
C334   O371    1.283   .     A
C335   C922    1.399   1_554 S
C335   H937    1.084   1_554 S
C337   O372    1.390   .     S
C338   N366    1.158   .     T
C338   C199    1.450   1_655 S
C339   C340    1.529   .     S
C339   H351    1.117   .     S
C339   H352    1.112   .     S
C339   O372    1.413   .     S
C340   H354    1.111   .     S
C340   H353    1.112   .     S
C341   H355    1.111   .     S
C341   H356    1.110   .     S
C341   C212    1.526   1_655 S
C341   H229    1.111   1_655 S
C342   H363    1.076   .     S
C342   C908    1.389   1_554 S
C342   C919    1.414   1_554 S
C343   C344    1.422   .     A
C343   C918    1.414   .     S
C343   C921    1.426   .     S
C344   C348    1.411   .     A
C345   C919    1.426   1_554 S
C345   C922    1.424   1_554 S
C346   C347    1.390   .     A
C346   C911    1.399   .     S
C346   C921    1.424   .     S
C347   H360    1.083   .     S
C347   C348    1.382   .     A
C348   H365    1.081   .     S
H359   C521    1.086   .     S
H361   C911    1.084   .     S
H364   C908    1.082   1_554 S
O367   Zn381   1.955   .     S
O367   Zn382   1.958   .     S
O367   Zn383   1.931   .     S
O367   Zn384   1.934   .     S
O368   Zn382   1.929   .     S
O369   Zn384   1.942   .     S
O370   Zn383   1.943   .     S
O371   Zn381   1.930   .     S
O373   Zn381   1.929   .     S
O374   Zn384   1.926   .     S
O375   Zn382   1.933   .     S
O376   Zn383   1.944   .     S
O377   Zn384   1.945   .     S
O378   Zn381   1.932   .     S
O379   Zn382   1.928   .     S
O380   Zn383   1.927   .     S
C385   O441    1.268   .     A
C385   O439    1.274   .     A
C385   C391    1.429   .     S
C386   C400    1.393   .     A
C386   H426    1.077   .     S
C386   C409    1.412   .     A
C387   H413    1.084   .     S
C387   C399    1.386   .     A
C387   C400    1.397   .     A
C388   O440    1.285   .     A
C388   C390    1.458   .     S
C388   O442    1.267   .     A
C389   C398    1.477   .     S
C389   C408    1.418   .     A
C389   C401    1.414   .     A
C390   C455    1.349   .     S
C390   H478    1.088   .     S
C391   C518    1.349   1_455 S
C391   C530    1.450   1_455 S
C392   C395    1.450   .     S
C392   C9      1.331   1_565 S
C392   H38     1.088   1_565 S
C393   C394    1.434   .     S
C394   O443    1.281   .     A
C394   O437    1.281   .     A
C395   O444    1.271   .     A
C395   O438    1.271   .     A
C396   C401    1.400   .     A
C396   C982    1.389   .     S
C396   H1004   1.082   .     S
C397   O432    1.283   .     A
C397   O434    1.270   .     A
C397   C400    1.451   .     S
C398   O433    1.280   .     A
C398   O435    1.283   .     A
C399   C986    1.399   1_554 S
C399   H1001   1.084   1_554 S
C401   O436    1.390   .     S
C402   N430    1.158   .     T
C402   C455    1.450   .     S
C403   C404    1.529   .     S
C403   H415    1.117   .     S
C403   H416    1.112   .     S
C403   O436    1.413   .     S
C404   H418    1.111   .     S
C404   H417    1.112   .     S
C404   C533    1.526   1_455 S
C405   H419    1.111   .     S
C405   H420    1.110   .     S
C405   C468    1.526   .     S
C405   H485    1.111   .     S
C406   H427    1.076   .     S
C406   C972    1.389   1_554 S
C406   C983    1.414   1_554 S
C407   C408    1.422   .     A
C407   C982    1.414   .     S
C407   C985    1.426   .     S
C408   C412    1.411   .     A
C409   C983    1.426   1_554 S
C409   C986    1.424   1_554 S
C410   C411    1.390   .     A
C410   C975    1.399   .     S
C410   C985    1.424   .     S
C411   H424    1.083   .     S
C411   C412    1.382   .     A
C412   H429    1.081   .     S
H414   C518    1.088   1_455 S
H421   C533    1.111   1_455 S
H423   C9      1.086   1_565 S
H425   C975    1.084   .     S
H428   C972    1.082   1_554 S
O431   Zn445   1.955   .     S
O431   Zn446   1.958   .     S
O431   Zn447   1.931   .     S
O431   Zn448   1.934   .     S
O432   Zn446   1.929   .     S
O433   Zn448   1.942   .     S
O434   Zn447   1.943   .     S
O435   Zn445   1.930   .     S
O437   Zn445   1.929   .     S
O438   Zn448   1.926   .     S
O439   Zn446   1.933   .     S
O440   Zn447   1.944   .     S
O441   Zn448   1.945   .     S
O442   Zn445   1.932   .     S
O443   Zn446   1.928   .     S
O444   Zn447   1.927   .     S
C449   O505    1.268   .     A
C449   O503    1.274   .     A
C449   C455    1.429   .     S
C450   C464    1.393   .     A
C450   H490    1.077   .     S
C450   C473    1.412   .     A
C451   H477    1.084   .     S
C451   C463    1.386   .     A
C451   C464    1.397   .     A
C452   O504    1.285   .     A
C452   C454    1.458   .     S
C452   O506    1.267   .     A
C453   C462    1.477   .     S
C453   C472    1.418   .     A
C453   C465    1.414   .     A
C454   C519    1.349   .     S
C454   H542    1.088   .     S
C456   C459    1.450   .     S
C456   C73     1.331   1_565 S
C456   H102    1.088   1_565 S
C457   C458    1.434   .     S
C458   O507    1.281   .     A
C458   O501    1.281   .     A
C459   O508    1.271   .     A
C459   O502    1.271   .     A
C460   C465    1.400   .     A
C460   C1046   1.389   .     S
C460   H1068   1.082   .     S
C461   O496    1.283   .     A
C461   O498    1.270   .     A
C461   C464    1.451   .     S
C462   O497    1.280   .     A
C462   O499    1.283   .     A
C463   C1050   1.399   1_554 S
C463   H1065   1.084   1_554 S
C465   O500    1.390   .     S
C466   N494    1.158   .     T
C466   C519    1.450   .     S
C467   C468    1.529   .     S
C467   H479    1.117   .     S
C467   H480    1.112   .     S
C467   O500    1.413   .     S
C468   H482    1.111   .     S
C468   H481    1.112   .     S
C469   H483    1.111   .     S
C469   H484    1.110   .     S
C469   C532    1.526   .     S
C469   H549    1.111   .     S
C470   H491    1.076   .     S
C470   C1036   1.389   1_554 S
C470   C1047   1.414   1_554 S
C471   C472    1.422   .     A
C471   C1046   1.414   .     S
C471   C1049   1.426   .     S
C472   C476    1.411   .     A
C473   C1047   1.426   1_554 S
C473   C1050   1.424   1_554 S
C474   C475    1.390   .     A
C474   C1039   1.399   .     S
C474   C1049   1.424   .     S
C475   H488    1.083   .     S
C475   C476    1.382   .     A
C476   H493    1.081   .     S
H487   C73     1.086   1_565 S
H489   C1039   1.084   .     S
H492   C1036   1.082   1_554 S
O495   Zn509   1.955   .     S
O495   Zn510   1.958   .     S
O495   Zn511   1.931   .     S
O495   Zn512   1.934   .     S
O496   Zn510   1.929   .     S
O497   Zn512   1.942   .     S
O498   Zn511   1.943   .     S
O499   Zn509   1.930   .     S
O501   Zn509   1.929   .     S
O502   Zn512   1.926   .     S
O503   Zn510   1.933   .     S
O504   Zn511   1.944   .     S
O505   Zn512   1.945   .     S
O506   Zn509   1.932   .     S
O507   Zn510   1.928   .     S
O508   Zn511   1.927   .     S
C513   O569    1.268   .     A
C513   O567    1.274   .     A
C513   C519    1.429   .     S
C514   C528    1.393   .     A
C514   H554    1.077   .     S
C514   C537    1.412   .     A
C515   H541    1.084   .     S
C515   C527    1.386   .     A
C515   C528    1.397   .     A
C516   O568    1.285   .     A
C516   C518    1.458   .     S
C516   O570    1.267   .     A
C517   C526    1.477   .     S
C517   C536    1.418   .     A
C517   C529    1.414   .     A
C518   C391    1.349   1_655 S
C518   H414    1.088   1_655 S
C520   C523    1.450   .     S
C520   C137    1.331   1_565 S
C520   H166    1.088   1_565 S
C521   C522    1.434   .     S
C522   O571    1.281   .     A
C522   O565    1.281   .     A
C523   O572    1.271   .     A
C523   O566    1.271   .     A
C524   C529    1.400   .     A
C524   C1110   1.389   .     S
C524   H1132   1.082   .     S
C525   O560    1.283   .     A
C525   O562    1.270   .     A
C525   C528    1.451   .     S
C526   O561    1.280   .     A
C526   O563    1.283   .     A
C527   C1114   1.399   1_554 S
C527   H1129   1.084   1_554 S
C529   O564    1.390   .     S
C530   N558    1.158   .     T
C530   C391    1.450   1_655 S
C531   C532    1.529   .     S
C531   H543    1.117   .     S
C531   H544    1.112   .     S
C531   O564    1.413   .     S
C532   H546    1.111   .     S
C532   H545    1.112   .     S
C533   H547    1.111   .     S
C533   H548    1.110   .     S
C533   C404    1.526   1_655 S
C533   H421    1.111   1_655 S
C534   H555    1.076   .     S
C534   C1100   1.389   1_554 S
C534   C1111   1.414   1_554 S
C535   C536    1.422   .     A
C535   C1110   1.414   .     S
C535   C1113   1.426   .     S
C536   C540    1.411   .     A
C537   C1111   1.426   1_554 S
C537   C1114   1.424   1_554 S
C538   C539    1.390   .     A
C538   C1103   1.399   .     S
C538   C1113   1.424   .     S
C539   H552    1.083   .     S
C539   C540    1.382   .     A
C540   H557    1.081   .     S
H551   C137    1.086   1_565 S
H553   C1103   1.084   .     S
H556   C1100   1.082   1_554 S
O559   Zn573   1.955   .     S
O559   Zn574   1.958   .     S
O559   Zn575   1.931   .     S
O559   Zn576   1.934   .     S
O560   Zn574   1.929   .     S
O561   Zn576   1.942   .     S
O562   Zn575   1.943   .     S
O563   Zn573   1.930   .     S
O565   Zn573   1.929   .     S
O566   Zn576   1.926   .     S
O567   Zn574   1.933   .     S
O568   Zn575   1.944   .     S
O569   Zn576   1.945   .     S
O570   Zn573   1.932   .     S
O571   Zn574   1.928   .     S
O572   Zn575   1.927   .     S
C577   O633    1.268   .     A
C577   O631    1.274   .     A
C577   C583    1.429   .     S
C578   C592    1.393   .     A
C578   H618    1.077   .     S
C578   C601    1.412   .     A
C579   H605    1.084   .     S
C579   C591    1.386   .     A
C579   C592    1.397   .     A
C580   O632    1.285   .     A
C580   C582    1.458   .     S
C580   O634    1.267   .     A
C581   C590    1.477   .     S
C581   C600    1.418   .     A
C581   C593    1.414   .     A
C582   C647    1.349   .     S
C582   H670    1.088   .     S
C583   C710    1.349   1_455 S
C583   C722    1.450   1_455 S
C584   C587    1.450   .     S
C584   C777    1.331   .     S
C584   H806    1.088   .     S
C585   C586    1.434   .     S
C585   C968    1.331   1_545 S
C585   H999    1.086   1_545 S
C586   O635    1.281   .     A
C586   O629    1.281   .     A
C587   O636    1.271   .     A
C587   O630    1.271   .     A
C588   C593    1.400   .     A
C588   C22     1.389   1_556 S
C588   H44     1.082   1_556 S
C589   O624    1.283   .     A
C589   O626    1.270   .     A
C589   C592    1.451   .     S
C590   O625    1.280   .     A
C590   O627    1.283   .     A
C593   O628    1.390   .     S
C594   N622    1.158   .     T
C594   C647    1.450   .     S
C595   C596    1.529   .     S
C595   H607    1.117   .     S
C595   H608    1.112   .     S
C595   O628    1.413   .     S
C596   H610    1.111   .     S
C596   H609    1.112   .     S
C596   C725    1.526   1_455 S
C597   H611    1.111   .     S
C597   H612    1.110   .     S
C597   C660    1.526   .     S
C597   H677    1.111   .     S
C598   H619    1.076   .     S
C599   C600    1.422   .     A
C599   C22     1.414   1_556 S
C599   C25     1.426   1_556 S
C600   C604    1.411   .     A
C602   C603    1.390   .     A
C602   C15     1.399   1_556 S
C602   C25     1.424   1_556 S
C603   H616    1.083   .     S
C603   C604    1.382   .     A
C604   H621    1.081   .     S
H606   C710    1.088   1_455 S
H613   C725    1.111   1_455 S
H614   C968    1.088   1_545 S
H615   C777    1.086   .     S
H617   C15     1.084   1_556 S
O623   Zn637   1.955   .     S
O623   Zn638   1.958   .     S
O623   Zn639   1.931   .     S
O623   Zn640   1.934   .     S
O624   Zn638   1.929   .     S
O625   Zn640   1.942   .     S
O626   Zn639   1.943   .     S
O627   Zn637   1.930   .     S
O629   Zn637   1.929   .     S
O630   Zn640   1.926   .     S
O631   Zn638   1.933   .     S
O632   Zn639   1.944   .     S
O633   Zn640   1.945   .     S
O634   Zn637   1.932   .     S
O635   Zn638   1.928   .     S
O636   Zn639   1.927   .     S
C641   O697    1.268   .     A
C641   O695    1.274   .     A
C641   C647    1.429   .     S
C642   C656    1.393   .     A
C642   H682    1.077   .     S
C642   C665    1.412   .     A
C643   H669    1.084   .     S
C643   C655    1.386   .     A
C643   C656    1.397   .     A
C644   O696    1.285   .     A
C644   C646    1.458   .     S
C644   O698    1.267   .     A
C645   C654    1.477   .     S
C645   C664    1.418   .     A
C645   C657    1.414   .     A
C646   C711    1.349   .     S
C646   H734    1.088   .     S
C648   C651    1.450   .     S
C648   C841    1.331   .     S
C648   H870    1.088   .     S
C649   C650    1.434   .     S
C649   C1032   1.331   1_545 S
C649   H1063   1.086   1_545 S
C650   O699    1.281   .     A
C650   O693    1.281   .     A
C651   O700    1.271   .     A
C651   O694    1.271   .     A
C652   C657    1.400   .     A
C652   C86     1.389   1_556 S
C652   H108    1.082   1_556 S
C653   O688    1.283   .     A
C653   O690    1.270   .     A
C653   C656    1.451   .     S
C654   O689    1.280   .     A
C654   O691    1.283   .     A
C657   O692    1.390   .     S
C658   N686    1.158   .     T
C658   C711    1.450   .     S
C659   C660    1.529   .     S
C659   H671    1.117   .     S
C659   H672    1.112   .     S
C659   O692    1.413   .     S
C660   H674    1.111   .     S
C660   H673    1.112   .     S
C661   H675    1.111   .     S
C661   H676    1.110   .     S
C661   C724    1.526   .     S
C661   H741    1.111   .     S
C662   H683    1.076   .     S
C663   C664    1.422   .     A
C663   C86     1.414   1_556 S
C663   C89     1.426   1_556 S
C664   C668    1.411   .     A
C666   C667    1.390   .     A
C666   C79     1.399   1_556 S
C666   C89     1.424   1_556 S
C667   H680    1.083   .     S
C667   C668    1.382   .     A
C668   H685    1.081   .     S
H678   C1032   1.088   1_545 S
H679   C841    1.086   .     S
H681   C79     1.084   1_556 S
O687   Zn701   1.955   .     S
O687   Zn702   1.958   .     S
O687   Zn703   1.931   .     S
O687   Zn704   1.934   .     S
O688   Zn702   1.929   .     S
O689   Zn704   1.942   .     S
O690   Zn703   1.943   .     S
O691   Zn701   1.930   .     S
O693   Zn701   1.929   .     S
O694   Zn704   1.926   .     S
O695   Zn702   1.933   .     S
O696   Zn703   1.944   .     S
O697   Zn704   1.945   .     S
O698   Zn701   1.932   .     S
O699   Zn702   1.928   .     S
O700   Zn703   1.927   .     S
C705   O761    1.268   .     A
C705   O759    1.274   .     A
C705   C711    1.429   .     S
C706   C720    1.393   .     A
C706   H746    1.077   .     S
C706   C729    1.412   .     A
C707   H733    1.084   .     S
C707   C719    1.386   .     A
C707   C720    1.397   .     A
C708   O760    1.285   .     A
C708   C710    1.458   .     S
C708   O762    1.267   .     A
C709   C718    1.477   .     S
C709   C728    1.418   .     A
C709   C721    1.414   .     A
C710   C583    1.349   1_655 S
C710   H606    1.088   1_655 S
C712   C715    1.450   .     S
C712   C905    1.331   .     S
C712   H934    1.088   .     S
C713   C714    1.434   .     S
C713   C1096   1.331   1_545 S
C713   H1127   1.086   1_545 S
C714   O763    1.281   .     A
C714   O757    1.281   .     A
C715   O764    1.271   .     A
C715   O758    1.271   .     A
C716   C721    1.400   .     A
C716   C150    1.389   1_556 S
C716   H172    1.082   1_556 S
C717   O752    1.283   .     A
C717   O754    1.270   .     A
C717   C720    1.451   .     S
C718   O753    1.280   .     A
C718   O755    1.283   .     A
C721   O756    1.390   .     S
C722   N750    1.158   .     T
C722   C583    1.450   1_655 S
C723   C724    1.529   .     S
C723   H735    1.117   .     S
C723   H736    1.112   .     S
C723   O756    1.413   .     S
C724   H738    1.111   .     S
C724   H737    1.112   .     S
C725   H739    1.111   .     S
C725   H740    1.110   .     S
C725   C596    1.526   1_655 S
C725   H613    1.111   1_655 S
C726   H747    1.076   .     S
C727   C728    1.422   .     A
C727   C150    1.414   1_556 S
C727   C153    1.426   1_556 S
C728   C732    1.411   .     A
C730   C731    1.390   .     A
C730   C143    1.399   1_556 S
C730   C153    1.424   1_556 S
C731   H744    1.083   .     S
C731   C732    1.382   .     A
C732   H749    1.081   .     S
H742   C1096   1.088   1_545 S
H743   C905    1.086   .     S
H745   C143    1.084   1_556 S
O751   Zn765   1.955   .     S
O751   Zn766   1.958   .     S
O751   Zn767   1.931   .     S
O751   Zn768   1.934   .     S
O752   Zn766   1.929   .     S
O753   Zn768   1.942   .     S
O754   Zn767   1.943   .     S
O755   Zn765   1.930   .     S
O757   Zn765   1.929   .     S
O758   Zn768   1.926   .     S
O759   Zn766   1.933   .     S
O760   Zn767   1.944   .     S
O761   Zn768   1.945   .     S
O762   Zn765   1.932   .     S
O763   Zn766   1.928   .     S
O764   Zn767   1.927   .     S
C769   O825    1.268   .     A
C769   O823    1.274   .     A
C769   C775    1.429   .     S
C770   C784    1.393   .     A
C770   H810    1.077   .     S
C770   C793    1.412   .     A
C771   H797    1.084   .     S
C771   C783    1.386   .     A
C771   C784    1.397   .     A
C772   O824    1.285   .     A
C772   C774    1.458   .     S
C772   O826    1.267   .     A
C773   C782    1.477   .     S
C773   C792    1.418   .     A
C773   C785    1.414   .     A
C774   C839    1.349   .     S
C774   H862    1.088   .     S
C775   C902    1.349   1_455 S
C775   C914    1.450   1_455 S
C776   C779    1.450   .     S
C776   C969    1.331   .     S
C776   H998    1.088   .     S
C777   C778    1.434   .     S
C778   O827    1.281   .     A
C778   O821    1.281   .     A
C779   O828    1.271   .     A
C779   O822    1.271   .     A
C780   C785    1.400   .     A
C780   C214    1.389   1_556 S
C780   H236    1.082   1_556 S
C781   O816    1.283   .     A
C781   O818    1.270   .     A
C781   C784    1.451   .     S
C782   O817    1.280   .     A
C782   O819    1.283   .     A
C785   O820    1.390   .     S
C786   N814    1.158   .     T
C786   C839    1.450   .     S
C787   C788    1.529   .     S
C787   H799    1.117   .     S
C787   H800    1.112   .     S
C787   O820    1.413   .     S
C788   H802    1.111   .     S
C788   H801    1.112   .     S
C788   C917    1.526   1_455 S
C789   H803    1.111   .     S
C789   H804    1.110   .     S
C789   C852    1.526   .     S
C789   H869    1.111   .     S
C790   H811    1.076   .     S
C791   C792    1.422   .     A
C791   C214    1.414   1_556 S
C791   C217    1.426   1_556 S
C792   C796    1.411   .     A
C794   C795    1.390   .     A
C794   C207    1.399   1_556 S
C794   C217    1.424   1_556 S
C795   H808    1.083   .     S
C795   C796    1.382   .     A
C796   H813    1.081   .     S
H798   C902    1.088   1_455 S
H805   C917    1.111   1_455 S
H807   C969    1.086   .     S
H809   C207    1.084   1_556 S
O815   Zn829   1.955   .     S
O815   Zn830   1.958   .     S
O815   Zn831   1.931   .     S
O815   Zn832   1.934   .     S
O816   Zn830   1.929   .     S
O817   Zn832   1.942   .     S
O818   Zn831   1.943   .     S
O819   Zn829   1.930   .     S
O821   Zn829   1.929   .     S
O822   Zn832   1.926   .     S
O823   Zn830   1.933   .     S
O824   Zn831   1.944   .     S
O825   Zn832   1.945   .     S
O826   Zn829   1.932   .     S
O827   Zn830   1.928   .     S
O828   Zn831   1.927   .     S
C833   O889    1.268   .     A
C833   O887    1.274   .     A
C833   C839    1.429   .     S
C834   C848    1.393   .     A
C834   H874    1.077   .     S
C834   C857    1.412   .     A
C835   H861    1.084   .     S
C835   C847    1.386   .     A
C835   C848    1.397   .     A
C836   O888    1.285   .     A
C836   C838    1.458   .     S
C836   O890    1.267   .     A
C837   C846    1.477   .     S
C837   C856    1.418   .     A
C837   C849    1.414   .     A
C838   C903    1.349   .     S
C838   H926    1.088   .     S
C840   C843    1.450   .     S
C840   C1033   1.331   .     S
C840   H1062   1.088   .     S
C841   C842    1.434   .     S
C842   O891    1.281   .     A
C842   O885    1.281   .     A
C843   O892    1.271   .     A
C843   O886    1.271   .     A
C844   C849    1.400   .     A
C844   C278    1.389   1_556 S
C844   H300    1.082   1_556 S
C845   O880    1.283   .     A
C845   O882    1.270   .     A
C845   C848    1.451   .     S
C846   O881    1.280   .     A
C846   O883    1.283   .     A
C849   O884    1.390   .     S
C850   N878    1.158   .     T
C850   C903    1.450   .     S
C851   C852    1.529   .     S
C851   H863    1.117   .     S
C851   H864    1.112   .     S
C851   O884    1.413   .     S
C852   H866    1.111   .     S
C852   H865    1.112   .     S
C853   H867    1.111   .     S
C853   H868    1.110   .     S
C853   C916    1.526   .     S
C853   H933    1.111   .     S
C854   H875    1.076   .     S
C855   C856    1.422   .     A
C855   C278    1.414   1_556 S
C855   C281    1.426   1_556 S
C856   C860    1.411   .     A
C858   C859    1.390   .     A
C858   C271    1.399   1_556 S
C858   C281    1.424   1_556 S
C859   H872    1.083   .     S
C859   C860    1.382   .     A
C860   H877    1.081   .     S
H871   C1033   1.086   .     S
H873   C271    1.084   1_556 S
O879   Zn893   1.955   .     S
O879   Zn894   1.958   .     S
O879   Zn895   1.931   .     S
O879   Zn896   1.934   .     S
O880   Zn894   1.929   .     S
O881   Zn896   1.942   .     S
O882   Zn895   1.943   .     S
O883   Zn893   1.930   .     S
O885   Zn893   1.929   .     S
O886   Zn896   1.926   .     S
O887   Zn894   1.933   .     S
O888   Zn895   1.944   .     S
O889   Zn896   1.945   .     S
O890   Zn893   1.932   .     S
O891   Zn894   1.928   .     S
O892   Zn895   1.927   .     S
C897   O953    1.268   .     A
C897   O951    1.274   .     A
C897   C903    1.429   .     S
C898   C912    1.393   .     A
C898   H938    1.077   .     S
C898   C921    1.412   .     A
C899   H925    1.084   .     S
C899   C911    1.386   .     A
C899   C912    1.397   .     A
C900   O952    1.285   .     A
C900   C902    1.458   .     S
C900   O954    1.267   .     A
C901   C910    1.477   .     S
C901   C920    1.418   .     A
C901   C913    1.414   .     A
C902   C775    1.349   1_655 S
C902   H798    1.088   1_655 S
C904   C907    1.450   .     S
C904   C1097   1.331   .     S
C904   H1126   1.088   .     S
C905   C906    1.434   .     S
C906   O955    1.281   .     A
C906   O949    1.281   .     A
C907   O956    1.271   .     A
C907   O950    1.271   .     A
C908   C913    1.400   .     A
C908   C342    1.389   1_556 S
C908   H364    1.082   1_556 S
C909   O944    1.283   .     A
C909   O946    1.270   .     A
C909   C912    1.451   .     S
C910   O945    1.280   .     A
C910   O947    1.283   .     A
C913   O948    1.390   .     S
C914   N942    1.158   .     T
C914   C775    1.450   1_655 S
C915   C916    1.529   .     S
C915   H927    1.117   .     S
C915   H928    1.112   .     S
C915   O948    1.413   .     S
C916   H930    1.111   .     S
C916   H929    1.112   .     S
C917   H931    1.111   .     S
C917   H932    1.110   .     S
C917   C788    1.526   1_655 S
C917   H805    1.111   1_655 S
C918   H939    1.076   .     S
C919   C920    1.422   .     A
C919   C342    1.414   1_556 S
C919   C345    1.426   1_556 S
C920   C924    1.411   .     A
C922   C923    1.390   .     A
C922   C335    1.399   1_556 S
C922   C345    1.424   1_556 S
C923   H936    1.083   .     S
C923   C924    1.382   .     A
C924   H941    1.081   .     S
H935   C1097   1.086   .     S
H937   C335    1.084   1_556 S
O943   Zn957   1.955   .     S
O943   Zn958   1.958   .     S
O943   Zn959   1.931   .     S
O943   Zn960   1.934   .     S
O944   Zn958   1.929   .     S
O945   Zn960   1.942   .     S
O946   Zn959   1.943   .     S
O947   Zn957   1.930   .     S
O949   Zn957   1.929   .     S
O950   Zn960   1.926   .     S
O951   Zn958   1.933   .     S
O952   Zn959   1.944   .     S
O953   Zn960   1.945   .     S
O954   Zn957   1.932   .     S
O955   Zn958   1.928   .     S
O956   Zn959   1.927   .     S
C961   O1017   1.268   .     A
C961   O1015   1.274   .     A
C961   C967    1.429   .     S
C962   C976    1.393   .     A
C962   H1002   1.077   .     S
C962   C985    1.412   .     A
C963   H989    1.084   .     S
C963   C975    1.386   .     A
C963   C976    1.397   .     A
C964   O1016   1.285   .     A
C964   C966    1.458   .     S
C964   O1018   1.267   .     A
C965   C974    1.477   .     S
C965   C984    1.418   .     A
C965   C977    1.414   .     A
C966   C1031   1.349   .     S
C966   H1054   1.088   .     S
C967   C1094   1.349   1_455 S
C967   C1106   1.450   1_455 S
C968   C971    1.450   .     S
C968   C585    1.331   1_565 S
C968   H614    1.088   1_565 S
C969   C970    1.434   .     S
C970   O1019   1.281   .     A
C970   O1013   1.281   .     A
C971   O1020   1.271   .     A
C971   O1014   1.271   .     A
C972   C977    1.400   .     A
C972   C406    1.389   1_556 S
C972   H428    1.082   1_556 S
C973   O1008   1.283   .     A
C973   O1010   1.270   .     A
C973   C976    1.451   .     S
C974   O1009   1.280   .     A
C974   O1011   1.283   .     A
C977   O1012   1.390   .     S
C978   N1006   1.158   .     T
C978   C1031   1.450   .     S
C979   C980    1.529   .     S
C979   H991    1.117   .     S
C979   H992    1.112   .     S
C979   O1012   1.413   .     S
C980   H994    1.111   .     S
C980   H993    1.112   .     S
C980   C1109   1.526   1_455 S
C981   H995    1.111   .     S
C981   H996    1.110   .     S
C981   C1044   1.526   .     S
C981   H1061   1.111   .     S
C982   H1003   1.076   .     S
C983   C984    1.422   .     A
C983   C406    1.414   1_556 S
C983   C409    1.426   1_556 S
C984   C988    1.411   .     A
C986   C987    1.390   .     A
C986   C399    1.399   1_556 S
C986   C409    1.424   1_556 S
C987   H1000   1.083   .     S
C987   C988    1.382   .     A
C988   H1005   1.081   .     S
H990   C1094   1.088   1_455 S
H997   C1109   1.111   1_455 S
H999   C585    1.086   1_565 S
H1001  C399    1.084   1_556 S
O1007  Zn1021  1.955   .     S
O1007  Zn1022  1.958   .     S
O1007  Zn1023  1.931   .     S
O1007  Zn1024  1.934   .     S
O1008  Zn1022  1.929   .     S
O1009  Zn1024  1.942   .     S
O1010  Zn1023  1.943   .     S
O1011  Zn1021  1.930   .     S
O1013  Zn1021  1.929   .     S
O1014  Zn1024  1.926   .     S
O1015  Zn1022  1.933   .     S
O1016  Zn1023  1.944   .     S
O1017  Zn1024  1.945   .     S
O1018  Zn1021  1.932   .     S
O1019  Zn1022  1.928   .     S
O1020  Zn1023  1.927   .     S
C1025  O1081   1.268   .     A
C1025  O1079   1.274   .     A
C1025  C1031   1.429   .     S
C1026  C1040   1.393   .     A
C1026  H1066   1.077   .     S
C1026  C1049   1.412   .     A
C1027  H1053   1.084   .     S
C1027  C1039   1.386   .     A
C1027  C1040   1.397   .     A
C1028  O1080   1.285   .     A
C1028  C1030   1.458   .     S
C1028  O1082   1.267   .     A
C1029  C1038   1.477   .     S
C1029  C1048   1.418   .     A
C1029  C1041   1.414   .     A
C1030  C1095   1.349   .     S
C1030  H1118   1.088   .     S
C1032  C1035   1.450   .     S
C1032  C649    1.331   1_565 S
C1032  H678    1.088   1_565 S
C1033  C1034   1.434   .     S
C1034  O1083   1.281   .     A
C1034  O1077   1.281   .     A
C1035  O1084   1.271   .     A
C1035  O1078   1.271   .     A
C1036  C1041   1.400   .     A
C1036  C470    1.389   1_556 S
C1036  H492    1.082   1_556 S
C1037  O1072   1.283   .     A
C1037  O1074   1.270   .     A
C1037  C1040   1.451   .     S
C1038  O1073   1.280   .     A
C1038  O1075   1.283   .     A
C1041  O1076   1.390   .     S
C1042  N1070   1.158   .     T
C1042  C1095   1.450   .     S
C1043  C1044   1.529   .     S
C1043  H1055   1.117   .     S
C1043  H1056   1.112   .     S
C1043  O1076   1.413   .     S
C1044  H1058   1.111   .     S
C1044  H1057   1.112   .     S
C1045  H1059   1.111   .     S
C1045  H1060   1.110   .     S
C1045  C1108   1.526   .     S
C1045  H1125   1.111   .     S
C1046  H1067   1.076   .     S
C1047  C1048   1.422   .     A
C1047  C470    1.414   1_556 S
C1047  C473    1.426   1_556 S
C1048  C1052   1.411   .     A
C1050  C1051   1.390   .     A
C1050  C463    1.399   1_556 S
C1050  C473    1.424   1_556 S
C1051  H1064   1.083   .     S
C1051  C1052   1.382   .     A
C1052  H1069   1.081   .     S
H1063  C649    1.086   1_565 S
H1065  C463    1.084   1_556 S
O1071  Zn1085  1.955   .     S
O1071  Zn1086  1.958   .     S
O1071  Zn1087  1.931   .     S
O1071  Zn1088  1.934   .     S
O1072  Zn1086  1.929   .     S
O1073  Zn1088  1.942   .     S
O1074  Zn1087  1.943   .     S
O1075  Zn1085  1.930   .     S
O1077  Zn1085  1.929   .     S
O1078  Zn1088  1.926   .     S
O1079  Zn1086  1.933   .     S
O1080  Zn1087  1.944   .     S
O1081  Zn1088  1.945   .     S
O1082  Zn1085  1.932   .     S
O1083  Zn1086  1.928   .     S
O1084  Zn1087  1.927   .     S
C1089  O1145   1.268   .     A
C1089  O1143   1.274   .     A
C1089  C1095   1.429   .     S
C1090  C1104   1.393   .     A
C1090  H1130   1.077   .     S
C1090  C1113   1.412   .     A
C1091  H1117   1.084   .     S
C1091  C1103   1.386   .     A
C1091  C1104   1.397   .     A
C1092  O1144   1.285   .     A
C1092  C1094   1.458   .     S
C1092  O1146   1.267   .     A
C1093  C1102   1.477   .     S
C1093  C1112   1.418   .     A
C1093  C1105   1.414   .     A
C1094  C967    1.349   1_655 S
C1094  H990    1.088   1_655 S
C1096  C1099   1.450   .     S
C1096  C713    1.331   1_565 S
C1096  H742    1.088   1_565 S
C1097  C1098   1.434   .     S
C1098  O1147   1.281   .     A
C1098  O1141   1.281   .     A
C1099  O1148   1.271   .     A
C1099  O1142   1.271   .     A
C1100  C1105   1.400   .     A
C1100  C534    1.389   1_556 S
C1100  H556    1.082   1_556 S
C1101  O1136   1.283   .     A
C1101  O1138   1.270   .     A
C1101  C1104   1.451   .     S
C1102  O1137   1.280   .     A
C1102  O1139   1.283   .     A
C1105  O1140   1.390   .     S
C1106  N1134   1.158   .     T
C1106  C967    1.450   1_655 S
C1107  C1108   1.529   .     S
C1107  H1119   1.117   .     S
C1107  H1120   1.112   .     S
C1107  O1140   1.413   .     S
C1108  H1122   1.111   .     S
C1108  H1121   1.112   .     S
C1109  H1123   1.111   .     S
C1109  H1124   1.110   .     S
C1109  C980    1.526   1_655 S
C1109  H997    1.111   1_655 S
C1110  H1131   1.076   .     S
C1111  C1112   1.422   .     A
C1111  C534    1.414   1_556 S
C1111  C537    1.426   1_556 S
C1112  C1116   1.411   .     A
C1114  C1115   1.390   .     A
C1114  C527    1.399   1_556 S
C1114  C537    1.424   1_556 S
C1115  H1128   1.083   .     S
C1115  C1116   1.382   .     A
C1116  H1133   1.081   .     S
H1127  C713    1.086   1_565 S
H1129  C527    1.084   1_556 S
O1135  Zn1149  1.955   .     S
O1135  Zn1150  1.958   .     S
O1135  Zn1151  1.931   .     S
O1135  Zn1152  1.934   .     S
O1136  Zn1150  1.929   .     S
O1137  Zn1152  1.942   .     S
O1138  Zn1151  1.943   .     S
O1139  Zn1149  1.930   .     S
O1141  Zn1149  1.929   .     S
O1142  Zn1152  1.926   .     S
O1143  Zn1150  1.933   .     S
O1144  Zn1151  1.944   .     S
O1145  Zn1152  1.945   .     S
O1146  Zn1149  1.932   .     S
O1147  Zn1150  1.928   .     S
O1148  Zn1151  1.927   .     S
