data_str_m3_o10_o18_pcu_sym.26
_audit_creation_date              2020-01-03
_audit_creation_method            'Materials Studio'
_symmetry_space_group_name_H-M    'P1'
_symmetry_Int_Tables_number       1
_symmetry_cell_setting            triclinic
loop_
_symmetry_equiv_pos_as_xyz
  x,y,z
_cell_length_a                    23.4247
_cell_length_b                    25.6410
_cell_length_c                    28.2490
_cell_angle_alpha                 92.2980
_cell_angle_beta                  96.7396
_cell_angle_gamma                 93.1553
loop_
_atom_site_label
_atom_site_type_symbol
_atom_site_fract_x
_atom_site_fract_y
_atom_site_fract_z
_atom_site_U_iso_or_equiv
_atom_site_adp_type
_atom_site_occupancy
C1     C     0.01453   0.26478   0.24888   0.00000  Uiso   1.00
C2     C     0.31036   0.16621   0.15916   0.00000  Uiso   1.00
C3     C     0.04202   0.21027   0.38359   0.00000  Uiso   1.00
C4     C     0.29639   0.17247   0.10719   0.00000  Uiso   1.00
C5     C     0.02472   0.26086   0.45448   0.00000  Uiso   1.00
C6     C     0.31908   0.14812   0.02843   0.00000  Uiso   1.00
C7     C     0.00329   0.23362   0.41127   0.00000  Uiso   1.00
C8     C     0.33283   0.15002   0.07736   0.00000  Uiso   1.00
C9     C     0.10055   0.22457   0.39507   0.00000  Uiso   1.00
C10    C     0.24752   0.19938   0.08694   0.00000  Uiso   1.00
C11    C     0.11945   0.23258   0.44316   0.00000  Uiso   1.00
C12    C     0.31897   0.06864   0.25181   0.00000  Uiso   1.00
C13    C     0.23753   0.20280   0.03604   0.00000  Uiso   1.00
C14    C     0.08339   0.25853   0.47154   0.00000  Uiso   1.00
C15    C     0.27038   0.17141   0.00786   0.00000  Uiso   1.00
C16    C     0.17264   0.21578   0.46327   0.00000  Uiso   1.00
C17    C     0.19224   0.23060   0.01135   0.00000  Uiso   1.00
C18    C     0.20429   0.21947   0.11898   0.00000  Uiso   1.00
C19    C     0.22862   0.27021   0.14705   0.00000  Uiso   1.00
C20    C     0.18353   0.29496   0.17378   0.00000  Uiso   1.00
C21    C     0.12857   0.26184   0.36280   0.00000  Uiso   1.00
C22    C     0.10959   0.31796   0.37000   0.00000  Uiso   1.00
C23    C     0.16478   0.27263   0.03156   0.00000  Uiso   1.00
C24    C     0.13639   0.02251   0.33741   0.00000  Uiso   1.00
C25    C     0.20356   0.18132   0.43766   0.00000  Uiso   1.00
C26    C     0.10819   0.28267   0.01453   0.00000  Uiso   1.00
C27    C     0.25291   0.16101   0.45935   0.00000  Uiso   1.00
C28    C     0.01743   0.31789   0.23971   0.00000  Uiso   1.00
C29    C     0.31587   0.01551   0.26105   0.00000  Uiso   1.00
C30    C     0.02406   0.18025   0.33864   0.00000  Uiso   1.00
Cl31   Cl    0.05153   0.00147   0.18910   0.00000  Uiso   1.00
Cl32   Cl    0.27937   0.33152   0.31033   0.00000  Uiso   1.00
H33    H     0.08443   0.30906   0.03460   0.00000  Uiso   1.00
H34    H     0.17148   0.20869   0.28448   0.00000  Uiso   1.00
H35    H     0.14798   0.30672   0.14766   0.00000  Uiso   1.00
H36    H     0.16634   0.26696   0.19835   0.00000  Uiso   1.00
H37    H     0.20299   0.33031   0.19492   0.00000  Uiso   1.00
H38    H     0.26573   0.26213   0.17239   0.00000  Uiso   1.00
H39    H     0.24609   0.29916   0.12357   0.00000  Uiso   1.00
H40    H     0.16120   0.22380   0.10002   0.00000  Uiso   1.00
H41    H     0.19007   0.18929   0.14250   0.00000  Uiso   1.00
H42    H     0.18296   0.02980   0.34960   0.00000  Uiso   1.00
H43    H     0.13025   0.00679   0.29982   0.00000  Uiso   1.00
H44    H     0.27649   0.13537   0.43831   0.00000  Uiso   1.00
H45    H     0.11575   0.06041   0.33914   0.00000  Uiso   1.00
H46    H     0.06199   0.31800   0.36226   0.00000  Uiso   1.00
H47    H     0.12212   0.33254   0.40757   0.00000  Uiso   1.00
H48    H     0.17628   0.26165   0.36971   0.00000  Uiso   1.00
H49    H     0.11557   0.24978   0.32518   0.00000  Uiso   1.00
H50    H     0.03693   0.13037   0.09203   0.00000  Uiso   1.00
H51    H     0.29114   0.23232   0.39881   0.00000  Uiso   1.00
H52    H     0.32901   0.28061   0.47529   0.00000  Uiso   1.00
H53    H     0.01237   0.12660   0.00655   0.00000  Uiso   1.00
H54    H     0.18436   0.29549   0.06223   0.00000  Uiso   1.00
H55    H     0.18962   0.16947   0.40069   0.00000  Uiso   1.00
H56    H     0.16234   0.12500   0.21504   0.00000  Uiso   1.00
N57    N     0.14695   0.15216   0.23739   0.00000  Uiso   1.00
N58    N     0.18638   0.18117   0.26260   0.00000  Uiso   1.00
O59    O     0.29719   0.24631   0.25309   0.00000  Uiso   1.00
O60    O     0.03614   0.08702   0.24690   0.00000  Uiso   1.00
O61    O     0.05822   0.23702   0.24501   0.00000  Uiso   1.00
O62    O     0.27512   0.09632   0.25498   0.00000  Uiso   1.00
O63    O     0.30328   0.17397   0.32247   0.00000  Uiso   1.00
O64    O     0.03005   0.15937   0.17753   0.00000  Uiso   1.00
O65    O     0.06431   0.16467   0.31439   0.00000  Uiso   1.00
O66    O     0.26902   0.16866   0.18561   0.00000  Uiso   1.00
Zn67   Zn    0.27033   0.17287   0.25539   0.00000  Uiso   1.00
Zn68   Zn    0.06300   0.16046   0.24460   0.00000  Uiso   1.00
C69    C     0.34786   0.26478   0.24888   0.00000  Uiso   1.00
C70    C     0.64370   0.16621   0.15916   0.00000  Uiso   1.00
C71    C     0.37536   0.21027   0.38359   0.00000  Uiso   1.00
C72    C     0.62973   0.17247   0.10719   0.00000  Uiso   1.00
C73    C     0.35806   0.26086   0.45448   0.00000  Uiso   1.00
C74    C     0.65242   0.14812   0.02843   0.00000  Uiso   1.00
C75    C     0.33663   0.23362   0.41127   0.00000  Uiso   1.00
C76    C     0.66616   0.15002   0.07736   0.00000  Uiso   1.00
C77    C     0.43388   0.22457   0.39507   0.00000  Uiso   1.00
C78    C     0.58085   0.19938   0.08694   0.00000  Uiso   1.00
C79    C     0.45278   0.23258   0.44316   0.00000  Uiso   1.00
C80    C     0.65231   0.06864   0.25181   0.00000  Uiso   1.00
C81    C     0.57086   0.20280   0.03604   0.00000  Uiso   1.00
C82    C     0.41672   0.25853   0.47154   0.00000  Uiso   1.00
C83    C     0.60372   0.17141   0.00786   0.00000  Uiso   1.00
C84    C     0.50598   0.21578   0.46327   0.00000  Uiso   1.00
C85    C     0.52557   0.23060   0.01135   0.00000  Uiso   1.00
C86    C     0.53762   0.21947   0.11898   0.00000  Uiso   1.00
C87    C     0.56195   0.27021   0.14705   0.00000  Uiso   1.00
C88    C     0.51686   0.29496   0.17378   0.00000  Uiso   1.00
C89    C     0.46190   0.26184   0.36280   0.00000  Uiso   1.00
C90    C     0.44292   0.31796   0.37000   0.00000  Uiso   1.00
C91    C     0.49811   0.27263   0.03156   0.00000  Uiso   1.00
C92    C     0.46973   0.02251   0.33741   0.00000  Uiso   1.00
C93    C     0.53689   0.18132   0.43766   0.00000  Uiso   1.00
C94    C     0.44152   0.28267   0.01453   0.00000  Uiso   1.00
C95    C     0.58624   0.16101   0.45935   0.00000  Uiso   1.00
C96    C     0.35076   0.31789   0.23971   0.00000  Uiso   1.00
C97    C     0.64920   0.01551   0.26105   0.00000  Uiso   1.00
C98    C     0.35739   0.18025   0.33864   0.00000  Uiso   1.00
Cl99   Cl    0.38486   0.00147   0.18910   0.00000  Uiso   1.00
Cl100  Cl    0.61270   0.33152   0.31033   0.00000  Uiso   1.00
H101   H     0.41776   0.30906   0.03460   0.00000  Uiso   1.00
H102   H     0.50482   0.20869   0.28448   0.00000  Uiso   1.00
H103   H     0.48132   0.30672   0.14766   0.00000  Uiso   1.00
H104   H     0.49967   0.26696   0.19835   0.00000  Uiso   1.00
H105   H     0.53632   0.33031   0.19492   0.00000  Uiso   1.00
H106   H     0.59907   0.26213   0.17239   0.00000  Uiso   1.00
H107   H     0.57943   0.29916   0.12357   0.00000  Uiso   1.00
H108   H     0.49454   0.22380   0.10002   0.00000  Uiso   1.00
H109   H     0.52341   0.18929   0.14250   0.00000  Uiso   1.00
H110   H     0.51630   0.02980   0.34960   0.00000  Uiso   1.00
H111   H     0.46358   0.00679   0.29982   0.00000  Uiso   1.00
H112   H     0.60982   0.13537   0.43831   0.00000  Uiso   1.00
H113   H     0.44909   0.06041   0.33914   0.00000  Uiso   1.00
H114   H     0.39533   0.31800   0.36226   0.00000  Uiso   1.00
H115   H     0.45545   0.33254   0.40757   0.00000  Uiso   1.00
H116   H     0.50961   0.26165   0.36971   0.00000  Uiso   1.00
H117   H     0.44891   0.24978   0.32518   0.00000  Uiso   1.00
H118   H     0.37026   0.13037   0.09203   0.00000  Uiso   1.00
H119   H     0.62448   0.23232   0.39881   0.00000  Uiso   1.00
H120   H     0.66234   0.28061   0.47529   0.00000  Uiso   1.00
H121   H     0.34570   0.12660   0.00655   0.00000  Uiso   1.00
H122   H     0.51769   0.29549   0.06223   0.00000  Uiso   1.00
H123   H     0.52295   0.16947   0.40069   0.00000  Uiso   1.00
H124   H     0.49567   0.12500   0.21504   0.00000  Uiso   1.00
N125   N     0.48029   0.15216   0.23739   0.00000  Uiso   1.00
N126   N     0.51971   0.18117   0.26260   0.00000  Uiso   1.00
O127   O     0.63052   0.24631   0.25309   0.00000  Uiso   1.00
O128   O     0.36948   0.08702   0.24690   0.00000  Uiso   1.00
O129   O     0.39155   0.23702   0.24501   0.00000  Uiso   1.00
O130   O     0.60845   0.09632   0.25498   0.00000  Uiso   1.00
O131   O     0.63662   0.17397   0.32247   0.00000  Uiso   1.00
O132   O     0.36338   0.15937   0.17753   0.00000  Uiso   1.00
O133   O     0.39764   0.16467   0.31439   0.00000  Uiso   1.00
O134   O     0.60236   0.16866   0.18561   0.00000  Uiso   1.00
Zn135  Zn    0.60366   0.17287   0.25539   0.00000  Uiso   1.00
Zn136  Zn    0.39634   0.16046   0.24460   0.00000  Uiso   1.00
C137   C     0.68120   0.26478   0.24888   0.00000  Uiso   1.00
C138   C     0.97703   0.16621   0.15916   0.00000  Uiso   1.00
C139   C     0.70869   0.21027   0.38359   0.00000  Uiso   1.00
C140   C     0.96306   0.17247   0.10719   0.00000  Uiso   1.00
C141   C     0.69139   0.26086   0.45448   0.00000  Uiso   1.00
C142   C     0.98575   0.14812   0.02843   0.00000  Uiso   1.00
C143   C     0.66996   0.23362   0.41127   0.00000  Uiso   1.00
C144   C     0.99949   0.15002   0.07736   0.00000  Uiso   1.00
C145   C     0.76721   0.22457   0.39507   0.00000  Uiso   1.00
C146   C     0.91419   0.19938   0.08694   0.00000  Uiso   1.00
C147   C     0.78612   0.23258   0.44316   0.00000  Uiso   1.00
C148   C     0.98564   0.06864   0.25181   0.00000  Uiso   1.00
C149   C     0.90420   0.20280   0.03604   0.00000  Uiso   1.00
C150   C     0.75005   0.25853   0.47154   0.00000  Uiso   1.00
C151   C     0.93705   0.17141   0.00786   0.00000  Uiso   1.00
C152   C     0.83931   0.21578   0.46327   0.00000  Uiso   1.00
C153   C     0.85890   0.23060   0.01135   0.00000  Uiso   1.00
C154   C     0.87096   0.21947   0.11898   0.00000  Uiso   1.00
C155   C     0.89528   0.27021   0.14705   0.00000  Uiso   1.00
C156   C     0.85020   0.29496   0.17378   0.00000  Uiso   1.00
C157   C     0.79524   0.26184   0.36280   0.00000  Uiso   1.00
C158   C     0.77626   0.31796   0.37000   0.00000  Uiso   1.00
C159   C     0.83145   0.27263   0.03156   0.00000  Uiso   1.00
C160   C     0.80306   0.02251   0.33741   0.00000  Uiso   1.00
C161   C     0.87023   0.18132   0.43766   0.00000  Uiso   1.00
C162   C     0.77486   0.28267   0.01453   0.00000  Uiso   1.00
C163   C     0.91958   0.16101   0.45935   0.00000  Uiso   1.00
C164   C     0.68409   0.31789   0.23971   0.00000  Uiso   1.00
C165   C     0.98254   0.01551   0.26105   0.00000  Uiso   1.00
C166   C     0.69073   0.18025   0.33864   0.00000  Uiso   1.00
Cl167  Cl    0.71820   0.00147   0.18910   0.00000  Uiso   1.00
Cl168  Cl    0.94603   0.33152   0.31033   0.00000  Uiso   1.00
H169   H     0.75109   0.30906   0.03460   0.00000  Uiso   1.00
H170   H     0.83815   0.20869   0.28448   0.00000  Uiso   1.00
H171   H     0.81465   0.30672   0.14766   0.00000  Uiso   1.00
H172   H     0.83301   0.26696   0.19835   0.00000  Uiso   1.00
H173   H     0.86965   0.33031   0.19492   0.00000  Uiso   1.00
H174   H     0.93240   0.26213   0.17239   0.00000  Uiso   1.00
H175   H     0.91276   0.29916   0.12357   0.00000  Uiso   1.00
H176   H     0.82787   0.22380   0.10002   0.00000  Uiso   1.00
H177   H     0.85674   0.18929   0.14250   0.00000  Uiso   1.00
H178   H     0.84963   0.02980   0.34960   0.00000  Uiso   1.00
H179   H     0.79691   0.00679   0.29982   0.00000  Uiso   1.00
H180   H     0.94315   0.13537   0.43831   0.00000  Uiso   1.00
H181   H     0.78242   0.06041   0.33914   0.00000  Uiso   1.00
H182   H     0.72866   0.31800   0.36226   0.00000  Uiso   1.00
H183   H     0.78879   0.33254   0.40757   0.00000  Uiso   1.00
H184   H     0.84295   0.26165   0.36971   0.00000  Uiso   1.00
H185   H     0.78224   0.24978   0.32518   0.00000  Uiso   1.00
H186   H     0.70359   0.13037   0.09203   0.00000  Uiso   1.00
H187   H     0.95781   0.23232   0.39881   0.00000  Uiso   1.00
H188   H     0.99567   0.28061   0.47529   0.00000  Uiso   1.00
H189   H     0.67903   0.12660   0.00655   0.00000  Uiso   1.00
H190   H     0.85102   0.29549   0.06223   0.00000  Uiso   1.00
H191   H     0.85628   0.16947   0.40069   0.00000  Uiso   1.00
H192   H     0.82901   0.12500   0.21504   0.00000  Uiso   1.00
N193   N     0.81362   0.15216   0.23739   0.00000  Uiso   1.00
N194   N     0.85305   0.18117   0.26260   0.00000  Uiso   1.00
O195   O     0.96386   0.24631   0.25309   0.00000  Uiso   1.00
O196   O     0.70281   0.08702   0.24690   0.00000  Uiso   1.00
O197   O     0.72488   0.23702   0.24501   0.00000  Uiso   1.00
O198   O     0.94178   0.09632   0.25498   0.00000  Uiso   1.00
O199   O     0.96995   0.17397   0.32247   0.00000  Uiso   1.00
O200   O     0.69672   0.15937   0.17753   0.00000  Uiso   1.00
O201   O     0.73098   0.16467   0.31439   0.00000  Uiso   1.00
O202   O     0.93569   0.16866   0.18561   0.00000  Uiso   1.00
Zn203  Zn    0.93700   0.17287   0.25539   0.00000  Uiso   1.00
Zn204  Zn    0.72967   0.16046   0.24460   0.00000  Uiso   1.00
C205   C     0.01453   0.59811   0.24888   0.00000  Uiso   1.00
C206   C     0.31036   0.49954   0.15916   0.00000  Uiso   1.00
C207   C     0.04202   0.54361   0.38359   0.00000  Uiso   1.00
C208   C     0.29639   0.50580   0.10719   0.00000  Uiso   1.00
C209   C     0.02472   0.59419   0.45448   0.00000  Uiso   1.00
C210   C     0.31908   0.48145   0.02843   0.00000  Uiso   1.00
C211   C     0.00329   0.56696   0.41127   0.00000  Uiso   1.00
C212   C     0.33283   0.48335   0.07736   0.00000  Uiso   1.00
C213   C     0.10055   0.55791   0.39507   0.00000  Uiso   1.00
C214   C     0.24752   0.53272   0.08694   0.00000  Uiso   1.00
C215   C     0.11945   0.56591   0.44316   0.00000  Uiso   1.00
C216   C     0.31897   0.40197   0.25181   0.00000  Uiso   1.00
C217   C     0.23753   0.53613   0.03604   0.00000  Uiso   1.00
C218   C     0.08339   0.59186   0.47154   0.00000  Uiso   1.00
C219   C     0.27038   0.50474   0.00786   0.00000  Uiso   1.00
C220   C     0.17264   0.54912   0.46327   0.00000  Uiso   1.00
C221   C     0.19224   0.56394   0.01135   0.00000  Uiso   1.00
C222   C     0.20429   0.55280   0.11898   0.00000  Uiso   1.00
C223   C     0.22862   0.60354   0.14705   0.00000  Uiso   1.00
C224   C     0.18353   0.62829   0.17378   0.00000  Uiso   1.00
C225   C     0.12857   0.59518   0.36280   0.00000  Uiso   1.00
C226   C     0.10959   0.65129   0.37000   0.00000  Uiso   1.00
C227   C     0.16478   0.60596   0.03156   0.00000  Uiso   1.00
C228   C     0.13639   0.35585   0.33741   0.00000  Uiso   1.00
C229   C     0.20356   0.51466   0.43766   0.00000  Uiso   1.00
C230   C     0.10819   0.61601   0.01453   0.00000  Uiso   1.00
C231   C     0.25291   0.49435   0.45935   0.00000  Uiso   1.00
C232   C     0.01743   0.65123   0.23971   0.00000  Uiso   1.00
C233   C     0.31587   0.34884   0.26105   0.00000  Uiso   1.00
C234   C     0.02406   0.51358   0.33864   0.00000  Uiso   1.00
Cl235  Cl    0.05153   0.33480   0.18910   0.00000  Uiso   1.00
Cl236  Cl    0.27937   0.66485   0.31033   0.00000  Uiso   1.00
H237   H     0.08443   0.64239   0.03460   0.00000  Uiso   1.00
H238   H     0.17148   0.54202   0.28448   0.00000  Uiso   1.00
H239   H     0.14798   0.64005   0.14766   0.00000  Uiso   1.00
H240   H     0.16634   0.60029   0.19835   0.00000  Uiso   1.00
H241   H     0.20299   0.66364   0.19492   0.00000  Uiso   1.00
H242   H     0.26573   0.59547   0.17239   0.00000  Uiso   1.00
H243   H     0.24609   0.63250   0.12357   0.00000  Uiso   1.00
H244   H     0.16120   0.55713   0.10002   0.00000  Uiso   1.00
H245   H     0.19007   0.52262   0.14250   0.00000  Uiso   1.00
H246   H     0.18296   0.36314   0.34960   0.00000  Uiso   1.00
H247   H     0.13025   0.34012   0.29982   0.00000  Uiso   1.00
H248   H     0.27649   0.46870   0.43831   0.00000  Uiso   1.00
H249   H     0.11575   0.39374   0.33914   0.00000  Uiso   1.00
H250   H     0.06199   0.65133   0.36226   0.00000  Uiso   1.00
H251   H     0.12212   0.66588   0.40757   0.00000  Uiso   1.00
H252   H     0.17628   0.59499   0.36971   0.00000  Uiso   1.00
H253   H     0.11557   0.58311   0.32518   0.00000  Uiso   1.00
H254   H     0.03693   0.46370   0.09203   0.00000  Uiso   1.00
H255   H     0.29114   0.56565   0.39881   0.00000  Uiso   1.00
H256   H     0.32901   0.61395   0.47529   0.00000  Uiso   1.00
H257   H     0.01237   0.45993   0.00655   0.00000  Uiso   1.00
H258   H     0.18436   0.62882   0.06223   0.00000  Uiso   1.00
H259   H     0.18962   0.50281   0.40069   0.00000  Uiso   1.00
H260   H     0.16234   0.45834   0.21504   0.00000  Uiso   1.00
N261   N     0.14695   0.48550   0.23739   0.00000  Uiso   1.00
N262   N     0.18638   0.51450   0.26260   0.00000  Uiso   1.00
O263   O     0.29719   0.57964   0.25309   0.00000  Uiso   1.00
O264   O     0.03614   0.42036   0.24690   0.00000  Uiso   1.00
O265   O     0.05822   0.57035   0.24501   0.00000  Uiso   1.00
O266   O     0.27512   0.42965   0.25498   0.00000  Uiso   1.00
O267   O     0.30328   0.50730   0.32247   0.00000  Uiso   1.00
O268   O     0.03005   0.49270   0.17753   0.00000  Uiso   1.00
O269   O     0.06431   0.49801   0.31439   0.00000  Uiso   1.00
O270   O     0.26902   0.50199   0.18561   0.00000  Uiso   1.00
Zn271  Zn    0.27033   0.50621   0.25539   0.00000  Uiso   1.00
Zn272  Zn    0.06300   0.49379   0.24460   0.00000  Uiso   1.00
C273   C     0.34786   0.59811   0.24888   0.00000  Uiso   1.00
C274   C     0.64370   0.49954   0.15916   0.00000  Uiso   1.00
C275   C     0.37536   0.54361   0.38359   0.00000  Uiso   1.00
C276   C     0.62973   0.50580   0.10719   0.00000  Uiso   1.00
C277   C     0.35806   0.59419   0.45448   0.00000  Uiso   1.00
C278   C     0.65242   0.48145   0.02843   0.00000  Uiso   1.00
C279   C     0.33663   0.56696   0.41127   0.00000  Uiso   1.00
C280   C     0.66616   0.48335   0.07736   0.00000  Uiso   1.00
C281   C     0.43388   0.55791   0.39507   0.00000  Uiso   1.00
C282   C     0.58085   0.53272   0.08694   0.00000  Uiso   1.00
C283   C     0.45278   0.56591   0.44316   0.00000  Uiso   1.00
C284   C     0.65231   0.40197   0.25181   0.00000  Uiso   1.00
C285   C     0.57086   0.53613   0.03604   0.00000  Uiso   1.00
C286   C     0.41672   0.59186   0.47154   0.00000  Uiso   1.00
C287   C     0.60372   0.50474   0.00786   0.00000  Uiso   1.00
C288   C     0.50598   0.54912   0.46327   0.00000  Uiso   1.00
C289   C     0.52557   0.56394   0.01135   0.00000  Uiso   1.00
C290   C     0.53762   0.55280   0.11898   0.00000  Uiso   1.00
C291   C     0.56195   0.60354   0.14705   0.00000  Uiso   1.00
C292   C     0.51686   0.62829   0.17378   0.00000  Uiso   1.00
C293   C     0.46190   0.59518   0.36280   0.00000  Uiso   1.00
C294   C     0.44292   0.65129   0.37000   0.00000  Uiso   1.00
C295   C     0.49811   0.60596   0.03156   0.00000  Uiso   1.00
C296   C     0.46973   0.35585   0.33741   0.00000  Uiso   1.00
C297   C     0.53689   0.51466   0.43766   0.00000  Uiso   1.00
C298   C     0.44152   0.61601   0.01453   0.00000  Uiso   1.00
C299   C     0.58624   0.49435   0.45935   0.00000  Uiso   1.00
C300   C     0.35076   0.65123   0.23971   0.00000  Uiso   1.00
C301   C     0.64920   0.34884   0.26105   0.00000  Uiso   1.00
C302   C     0.35739   0.51358   0.33864   0.00000  Uiso   1.00
Cl303  Cl    0.38486   0.33480   0.18910   0.00000  Uiso   1.00
Cl304  Cl    0.61270   0.66485   0.31033   0.00000  Uiso   1.00
H305   H     0.41776   0.64239   0.03460   0.00000  Uiso   1.00
H306   H     0.50482   0.54202   0.28448   0.00000  Uiso   1.00
H307   H     0.48132   0.64005   0.14766   0.00000  Uiso   1.00
H308   H     0.49967   0.60029   0.19835   0.00000  Uiso   1.00
H309   H     0.53632   0.66364   0.19492   0.00000  Uiso   1.00
H310   H     0.59907   0.59547   0.17239   0.00000  Uiso   1.00
H311   H     0.57943   0.63250   0.12357   0.00000  Uiso   1.00
H312   H     0.49454   0.55713   0.10002   0.00000  Uiso   1.00
H313   H     0.52341   0.52262   0.14250   0.00000  Uiso   1.00
H314   H     0.51630   0.36314   0.34960   0.00000  Uiso   1.00
H315   H     0.46358   0.34012   0.29982   0.00000  Uiso   1.00
H316   H     0.60982   0.46870   0.43831   0.00000  Uiso   1.00
H317   H     0.44909   0.39374   0.33914   0.00000  Uiso   1.00
H318   H     0.39533   0.65133   0.36226   0.00000  Uiso   1.00
H319   H     0.45545   0.66588   0.40757   0.00000  Uiso   1.00
H320   H     0.50961   0.59499   0.36971   0.00000  Uiso   1.00
H321   H     0.44891   0.58311   0.32518   0.00000  Uiso   1.00
H322   H     0.37026   0.46370   0.09203   0.00000  Uiso   1.00
H323   H     0.62448   0.56565   0.39881   0.00000  Uiso   1.00
H324   H     0.66234   0.61395   0.47529   0.00000  Uiso   1.00
H325   H     0.34570   0.45993   0.00655   0.00000  Uiso   1.00
H326   H     0.51769   0.62882   0.06223   0.00000  Uiso   1.00
H327   H     0.52295   0.50281   0.40069   0.00000  Uiso   1.00
H328   H     0.49567   0.45834   0.21504   0.00000  Uiso   1.00
N329   N     0.48029   0.48550   0.23739   0.00000  Uiso   1.00
N330   N     0.51971   0.51450   0.26260   0.00000  Uiso   1.00
O331   O     0.63052   0.57964   0.25309   0.00000  Uiso   1.00
O332   O     0.36948   0.42036   0.24690   0.00000  Uiso   1.00
O333   O     0.39155   0.57035   0.24501   0.00000  Uiso   1.00
O334   O     0.60845   0.42965   0.25498   0.00000  Uiso   1.00
O335   O     0.63662   0.50730   0.32247   0.00000  Uiso   1.00
O336   O     0.36338   0.49270   0.17753   0.00000  Uiso   1.00
O337   O     0.39764   0.49801   0.31439   0.00000  Uiso   1.00
O338   O     0.60236   0.50199   0.18561   0.00000  Uiso   1.00
Zn339  Zn    0.60366   0.50621   0.25539   0.00000  Uiso   1.00
Zn340  Zn    0.39634   0.49379   0.24460   0.00000  Uiso   1.00
C341   C     0.68120   0.59811   0.24888   0.00000  Uiso   1.00
C342   C     0.97703   0.49954   0.15916   0.00000  Uiso   1.00
C343   C     0.70869   0.54361   0.38359   0.00000  Uiso   1.00
C344   C     0.96306   0.50580   0.10719   0.00000  Uiso   1.00
C345   C     0.69139   0.59419   0.45448   0.00000  Uiso   1.00
C346   C     0.98575   0.48145   0.02843   0.00000  Uiso   1.00
C347   C     0.66996   0.56696   0.41127   0.00000  Uiso   1.00
C348   C     0.99949   0.48335   0.07736   0.00000  Uiso   1.00
C349   C     0.76721   0.55791   0.39507   0.00000  Uiso   1.00
C350   C     0.91419   0.53272   0.08694   0.00000  Uiso   1.00
C351   C     0.78612   0.56591   0.44316   0.00000  Uiso   1.00
C352   C     0.98564   0.40197   0.25181   0.00000  Uiso   1.00
C353   C     0.90420   0.53613   0.03604   0.00000  Uiso   1.00
C354   C     0.75005   0.59186   0.47154   0.00000  Uiso   1.00
C355   C     0.93705   0.50474   0.00786   0.00000  Uiso   1.00
C356   C     0.83931   0.54912   0.46327   0.00000  Uiso   1.00
C357   C     0.85890   0.56394   0.01135   0.00000  Uiso   1.00
C358   C     0.87096   0.55280   0.11898   0.00000  Uiso   1.00
C359   C     0.89528   0.60354   0.14705   0.00000  Uiso   1.00
C360   C     0.85020   0.62829   0.17378   0.00000  Uiso   1.00
C361   C     0.79524   0.59518   0.36280   0.00000  Uiso   1.00
C362   C     0.77626   0.65129   0.37000   0.00000  Uiso   1.00
C363   C     0.83145   0.60596   0.03156   0.00000  Uiso   1.00
C364   C     0.80306   0.35585   0.33741   0.00000  Uiso   1.00
C365   C     0.87023   0.51466   0.43766   0.00000  Uiso   1.00
C366   C     0.77486   0.61601   0.01453   0.00000  Uiso   1.00
C367   C     0.91958   0.49435   0.45935   0.00000  Uiso   1.00
C368   C     0.68409   0.65123   0.23971   0.00000  Uiso   1.00
C369   C     0.98254   0.34884   0.26105   0.00000  Uiso   1.00
C370   C     0.69073   0.51358   0.33864   0.00000  Uiso   1.00
Cl371  Cl    0.71820   0.33480   0.18910   0.00000  Uiso   1.00
Cl372  Cl    0.94603   0.66485   0.31033   0.00000  Uiso   1.00
H373   H     0.75109   0.64239   0.03460   0.00000  Uiso   1.00
H374   H     0.83815   0.54202   0.28448   0.00000  Uiso   1.00
H375   H     0.81465   0.64005   0.14766   0.00000  Uiso   1.00
H376   H     0.83301   0.60029   0.19835   0.00000  Uiso   1.00
H377   H     0.86965   0.66364   0.19492   0.00000  Uiso   1.00
H378   H     0.93240   0.59547   0.17239   0.00000  Uiso   1.00
H379   H     0.91276   0.63250   0.12357   0.00000  Uiso   1.00
H380   H     0.82787   0.55713   0.10002   0.00000  Uiso   1.00
H381   H     0.85674   0.52262   0.14250   0.00000  Uiso   1.00
H382   H     0.84963   0.36314   0.34960   0.00000  Uiso   1.00
H383   H     0.79691   0.34012   0.29982   0.00000  Uiso   1.00
H384   H     0.94315   0.46870   0.43831   0.00000  Uiso   1.00
H385   H     0.78242   0.39374   0.33914   0.00000  Uiso   1.00
H386   H     0.72866   0.65133   0.36226   0.00000  Uiso   1.00
H387   H     0.78879   0.66588   0.40757   0.00000  Uiso   1.00
H388   H     0.84295   0.59499   0.36971   0.00000  Uiso   1.00
H389   H     0.78224   0.58311   0.32518   0.00000  Uiso   1.00
H390   H     0.70359   0.46370   0.09203   0.00000  Uiso   1.00
H391   H     0.95781   0.56565   0.39881   0.00000  Uiso   1.00
H392   H     0.99567   0.61395   0.47529   0.00000  Uiso   1.00
H393   H     0.67903   0.45993   0.00655   0.00000  Uiso   1.00
H394   H     0.85102   0.62882   0.06223   0.00000  Uiso   1.00
H395   H     0.85628   0.50281   0.40069   0.00000  Uiso   1.00
H396   H     0.82901   0.45834   0.21504   0.00000  Uiso   1.00
N397   N     0.81362   0.48550   0.23739   0.00000  Uiso   1.00
N398   N     0.85305   0.51450   0.26260   0.00000  Uiso   1.00
O399   O     0.96386   0.57964   0.25309   0.00000  Uiso   1.00
O400   O     0.70281   0.42036   0.24690   0.00000  Uiso   1.00
O401   O     0.72488   0.57035   0.24501   0.00000  Uiso   1.00
O402   O     0.94178   0.42965   0.25498   0.00000  Uiso   1.00
O403   O     0.96995   0.50730   0.32247   0.00000  Uiso   1.00
O404   O     0.69672   0.49270   0.17753   0.00000  Uiso   1.00
O405   O     0.73098   0.49801   0.31439   0.00000  Uiso   1.00
O406   O     0.93569   0.50199   0.18561   0.00000  Uiso   1.00
Zn407  Zn    0.93700   0.50621   0.25539   0.00000  Uiso   1.00
Zn408  Zn    0.72967   0.49379   0.24460   0.00000  Uiso   1.00
C409   C     0.01453   0.93144   0.24888   0.00000  Uiso   1.00
C410   C     0.31036   0.83288   0.15916   0.00000  Uiso   1.00
C411   C     0.04202   0.87694   0.38359   0.00000  Uiso   1.00
C412   C     0.29639   0.83914   0.10719   0.00000  Uiso   1.00
C413   C     0.02472   0.92753   0.45448   0.00000  Uiso   1.00
C414   C     0.31908   0.81478   0.02843   0.00000  Uiso   1.00
C415   C     0.00329   0.90029   0.41127   0.00000  Uiso   1.00
C416   C     0.33283   0.81668   0.07736   0.00000  Uiso   1.00
C417   C     0.10055   0.89124   0.39507   0.00000  Uiso   1.00
C418   C     0.24752   0.86605   0.08694   0.00000  Uiso   1.00
C419   C     0.11945   0.89925   0.44316   0.00000  Uiso   1.00
C420   C     0.31897   0.73530   0.25181   0.00000  Uiso   1.00
C421   C     0.23753   0.86946   0.03604   0.00000  Uiso   1.00
C422   C     0.08339   0.92519   0.47154   0.00000  Uiso   1.00
C423   C     0.27038   0.83808   0.00786   0.00000  Uiso   1.00
C424   C     0.17264   0.88245   0.46327   0.00000  Uiso   1.00
C425   C     0.19224   0.89727   0.01135   0.00000  Uiso   1.00
C426   C     0.20429   0.88614   0.11898   0.00000  Uiso   1.00
C427   C     0.22862   0.93687   0.14705   0.00000  Uiso   1.00
C428   C     0.18353   0.96163   0.17378   0.00000  Uiso   1.00
C429   C     0.12857   0.92851   0.36280   0.00000  Uiso   1.00
C430   C     0.10959   0.98463   0.37000   0.00000  Uiso   1.00
C431   C     0.16478   0.93930   0.03156   0.00000  Uiso   1.00
C432   C     0.13639   0.68918   0.33741   0.00000  Uiso   1.00
C433   C     0.20356   0.84799   0.43766   0.00000  Uiso   1.00
C434   C     0.10819   0.94934   0.01453   0.00000  Uiso   1.00
C435   C     0.25291   0.82768   0.45935   0.00000  Uiso   1.00
C436   C     0.01743   0.98456   0.23971   0.00000  Uiso   1.00
C437   C     0.31587   0.68217   0.26105   0.00000  Uiso   1.00
C438   C     0.02406   0.84692   0.33864   0.00000  Uiso   1.00
Cl439  Cl    0.05153   0.66813   0.18910   0.00000  Uiso   1.00
Cl440  Cl    0.27937   0.99819   0.31033   0.00000  Uiso   1.00
H441   H     0.08443   0.97573   0.03460   0.00000  Uiso   1.00
H442   H     0.17148   0.87536   0.28448   0.00000  Uiso   1.00
H443   H     0.14798   0.97338   0.14766   0.00000  Uiso   1.00
H444   H     0.16634   0.93363   0.19835   0.00000  Uiso   1.00
H445   H     0.20299   0.99697   0.19492   0.00000  Uiso   1.00
H446   H     0.26573   0.92880   0.17239   0.00000  Uiso   1.00
H447   H     0.24609   0.96583   0.12357   0.00000  Uiso   1.00
H448   H     0.16120   0.89046   0.10002   0.00000  Uiso   1.00
H449   H     0.19007   0.85595   0.14250   0.00000  Uiso   1.00
H450   H     0.18296   0.69647   0.34960   0.00000  Uiso   1.00
H451   H     0.13025   0.67346   0.29982   0.00000  Uiso   1.00
H452   H     0.27649   0.80204   0.43831   0.00000  Uiso   1.00
H453   H     0.11575   0.72708   0.33914   0.00000  Uiso   1.00
H454   H     0.06199   0.98467   0.36226   0.00000  Uiso   1.00
H455   H     0.12212   0.99921   0.40757   0.00000  Uiso   1.00
H456   H     0.17628   0.92832   0.36971   0.00000  Uiso   1.00
H457   H     0.11557   0.91645   0.32518   0.00000  Uiso   1.00
H458   H     0.03693   0.79704   0.09203   0.00000  Uiso   1.00
H459   H     0.29114   0.89899   0.39881   0.00000  Uiso   1.00
H460   H     0.32901   0.94728   0.47529   0.00000  Uiso   1.00
H461   H     0.01237   0.79327   0.00655   0.00000  Uiso   1.00
H462   H     0.18436   0.96216   0.06223   0.00000  Uiso   1.00
H463   H     0.18962   0.83614   0.40069   0.00000  Uiso   1.00
H464   H     0.16234   0.79167   0.21504   0.00000  Uiso   1.00
N465   N     0.14695   0.81883   0.23739   0.00000  Uiso   1.00
N466   N     0.18638   0.84784   0.26260   0.00000  Uiso   1.00
O467   O     0.29719   0.91298   0.25309   0.00000  Uiso   1.00
O468   O     0.03614   0.75369   0.24690   0.00000  Uiso   1.00
O469   O     0.05822   0.90368   0.24501   0.00000  Uiso   1.00
O470   O     0.27512   0.76298   0.25498   0.00000  Uiso   1.00
O471   O     0.30328   0.84063   0.32247   0.00000  Uiso   1.00
O472   O     0.03005   0.82603   0.17753   0.00000  Uiso   1.00
O473   O     0.06431   0.83134   0.31439   0.00000  Uiso   1.00
O474   O     0.26902   0.83533   0.18561   0.00000  Uiso   1.00
Zn475  Zn    0.27033   0.83954   0.25539   0.00000  Uiso   1.00
Zn476  Zn    0.06300   0.82713   0.24460   0.00000  Uiso   1.00
C477   C     0.34786   0.93144   0.24888   0.00000  Uiso   1.00
C478   C     0.64370   0.83288   0.15916   0.00000  Uiso   1.00
C479   C     0.37536   0.87694   0.38359   0.00000  Uiso   1.00
C480   C     0.62973   0.83914   0.10719   0.00000  Uiso   1.00
C481   C     0.35806   0.92753   0.45448   0.00000  Uiso   1.00
C482   C     0.65242   0.81478   0.02843   0.00000  Uiso   1.00
C483   C     0.33663   0.90029   0.41127   0.00000  Uiso   1.00
C484   C     0.66616   0.81668   0.07736   0.00000  Uiso   1.00
C485   C     0.43388   0.89124   0.39507   0.00000  Uiso   1.00
C486   C     0.58085   0.86605   0.08694   0.00000  Uiso   1.00
C487   C     0.45278   0.89925   0.44316   0.00000  Uiso   1.00
C488   C     0.65231   0.73530   0.25181   0.00000  Uiso   1.00
C489   C     0.57086   0.86946   0.03604   0.00000  Uiso   1.00
C490   C     0.41672   0.92519   0.47154   0.00000  Uiso   1.00
C491   C     0.60372   0.83808   0.00786   0.00000  Uiso   1.00
C492   C     0.50598   0.88245   0.46327   0.00000  Uiso   1.00
C493   C     0.52557   0.89727   0.01135   0.00000  Uiso   1.00
C494   C     0.53762   0.88614   0.11898   0.00000  Uiso   1.00
C495   C     0.56195   0.93687   0.14705   0.00000  Uiso   1.00
C496   C     0.51686   0.96163   0.17378   0.00000  Uiso   1.00
C497   C     0.46190   0.92851   0.36280   0.00000  Uiso   1.00
C498   C     0.44292   0.98463   0.37000   0.00000  Uiso   1.00
C499   C     0.49811   0.93930   0.03156   0.00000  Uiso   1.00
C500   C     0.46973   0.68918   0.33741   0.00000  Uiso   1.00
C501   C     0.53689   0.84799   0.43766   0.00000  Uiso   1.00
C502   C     0.44152   0.94934   0.01453   0.00000  Uiso   1.00
C503   C     0.58624   0.82768   0.45935   0.00000  Uiso   1.00
C504   C     0.35076   0.98456   0.23971   0.00000  Uiso   1.00
C505   C     0.64920   0.68217   0.26105   0.00000  Uiso   1.00
C506   C     0.35739   0.84692   0.33864   0.00000  Uiso   1.00
Cl507  Cl    0.38486   0.66813   0.18910   0.00000  Uiso   1.00
Cl508  Cl    0.61270   0.99819   0.31033   0.00000  Uiso   1.00
H509   H     0.41776   0.97573   0.03460   0.00000  Uiso   1.00
H510   H     0.50482   0.87536   0.28448   0.00000  Uiso   1.00
H511   H     0.48132   0.97338   0.14766   0.00000  Uiso   1.00
H512   H     0.49967   0.93363   0.19835   0.00000  Uiso   1.00
H513   H     0.53632   0.99697   0.19492   0.00000  Uiso   1.00
H514   H     0.59907   0.92880   0.17239   0.00000  Uiso   1.00
H515   H     0.57943   0.96583   0.12357   0.00000  Uiso   1.00
H516   H     0.49454   0.89046   0.10002   0.00000  Uiso   1.00
H517   H     0.52341   0.85595   0.14250   0.00000  Uiso   1.00
H518   H     0.51630   0.69647   0.34960   0.00000  Uiso   1.00
H519   H     0.46358   0.67346   0.29982   0.00000  Uiso   1.00
H520   H     0.60982   0.80204   0.43831   0.00000  Uiso   1.00
H521   H     0.44909   0.72708   0.33914   0.00000  Uiso   1.00
H522   H     0.39533   0.98467   0.36226   0.00000  Uiso   1.00
H523   H     0.45545   0.99921   0.40757   0.00000  Uiso   1.00
H524   H     0.50961   0.92832   0.36971   0.00000  Uiso   1.00
H525   H     0.44891   0.91645   0.32518   0.00000  Uiso   1.00
H526   H     0.37026   0.79704   0.09203   0.00000  Uiso   1.00
H527   H     0.62448   0.89899   0.39881   0.00000  Uiso   1.00
H528   H     0.66234   0.94728   0.47529   0.00000  Uiso   1.00
H529   H     0.34570   0.79327   0.00655   0.00000  Uiso   1.00
H530   H     0.51769   0.96216   0.06223   0.00000  Uiso   1.00
H531   H     0.52295   0.83614   0.40069   0.00000  Uiso   1.00
H532   H     0.49567   0.79167   0.21504   0.00000  Uiso   1.00
N533   N     0.48029   0.81883   0.23739   0.00000  Uiso   1.00
N534   N     0.51971   0.84784   0.26260   0.00000  Uiso   1.00
O535   O     0.63052   0.91298   0.25309   0.00000  Uiso   1.00
O536   O     0.36948   0.75369   0.24690   0.00000  Uiso   1.00
O537   O     0.39155   0.90368   0.24501   0.00000  Uiso   1.00
O538   O     0.60845   0.76298   0.25498   0.00000  Uiso   1.00
O539   O     0.63662   0.84063   0.32247   0.00000  Uiso   1.00
O540   O     0.36338   0.82603   0.17753   0.00000  Uiso   1.00
O541   O     0.39764   0.83134   0.31439   0.00000  Uiso   1.00
O542   O     0.60236   0.83533   0.18561   0.00000  Uiso   1.00
Zn543  Zn    0.60366   0.83954   0.25539   0.00000  Uiso   1.00
Zn544  Zn    0.39634   0.82713   0.24460   0.00000  Uiso   1.00
C545   C     0.68120   0.93144   0.24888   0.00000  Uiso   1.00
C546   C     0.97703   0.83288   0.15916   0.00000  Uiso   1.00
C547   C     0.70869   0.87694   0.38359   0.00000  Uiso   1.00
C548   C     0.96306   0.83914   0.10719   0.00000  Uiso   1.00
C549   C     0.69139   0.92753   0.45448   0.00000  Uiso   1.00
C550   C     0.98575   0.81478   0.02843   0.00000  Uiso   1.00
C551   C     0.66996   0.90029   0.41127   0.00000  Uiso   1.00
C552   C     0.99949   0.81668   0.07736   0.00000  Uiso   1.00
C553   C     0.76721   0.89124   0.39507   0.00000  Uiso   1.00
C554   C     0.91419   0.86605   0.08694   0.00000  Uiso   1.00
C555   C     0.78612   0.89925   0.44316   0.00000  Uiso   1.00
C556   C     0.98564   0.73530   0.25181   0.00000  Uiso   1.00
C557   C     0.90420   0.86946   0.03604   0.00000  Uiso   1.00
C558   C     0.75005   0.92519   0.47154   0.00000  Uiso   1.00
C559   C     0.93705   0.83808   0.00786   0.00000  Uiso   1.00
C560   C     0.83931   0.88245   0.46327   0.00000  Uiso   1.00
C561   C     0.85890   0.89727   0.01135   0.00000  Uiso   1.00
C562   C     0.87096   0.88614   0.11898   0.00000  Uiso   1.00
C563   C     0.89528   0.93687   0.14705   0.00000  Uiso   1.00
C564   C     0.85020   0.96163   0.17378   0.00000  Uiso   1.00
C565   C     0.79524   0.92851   0.36280   0.00000  Uiso   1.00
C566   C     0.77626   0.98463   0.37000   0.00000  Uiso   1.00
C567   C     0.83145   0.93930   0.03156   0.00000  Uiso   1.00
C568   C     0.80306   0.68918   0.33741   0.00000  Uiso   1.00
C569   C     0.87023   0.84799   0.43766   0.00000  Uiso   1.00
C570   C     0.77486   0.94934   0.01453   0.00000  Uiso   1.00
C571   C     0.91958   0.82768   0.45935   0.00000  Uiso   1.00
C572   C     0.68409   0.98456   0.23971   0.00000  Uiso   1.00
C573   C     0.98254   0.68217   0.26105   0.00000  Uiso   1.00
C574   C     0.69073   0.84692   0.33864   0.00000  Uiso   1.00
Cl575  Cl    0.71820   0.66813   0.18910   0.00000  Uiso   1.00
Cl576  Cl    0.94603   0.99819   0.31033   0.00000  Uiso   1.00
H577   H     0.75109   0.97573   0.03460   0.00000  Uiso   1.00
H578   H     0.83815   0.87536   0.28448   0.00000  Uiso   1.00
H579   H     0.81465   0.97338   0.14766   0.00000  Uiso   1.00
H580   H     0.83301   0.93363   0.19835   0.00000  Uiso   1.00
H581   H     0.86965   0.99697   0.19492   0.00000  Uiso   1.00
H582   H     0.93240   0.92880   0.17239   0.00000  Uiso   1.00
H583   H     0.91276   0.96583   0.12357   0.00000  Uiso   1.00
H584   H     0.82787   0.89046   0.10002   0.00000  Uiso   1.00
H585   H     0.85674   0.85595   0.14250   0.00000  Uiso   1.00
H586   H     0.84963   0.69647   0.34960   0.00000  Uiso   1.00
H587   H     0.79691   0.67346   0.29982   0.00000  Uiso   1.00
H588   H     0.94315   0.80204   0.43831   0.00000  Uiso   1.00
H589   H     0.78242   0.72708   0.33914   0.00000  Uiso   1.00
H590   H     0.72866   0.98467   0.36226   0.00000  Uiso   1.00
H591   H     0.78879   0.99921   0.40757   0.00000  Uiso   1.00
H592   H     0.84295   0.92832   0.36971   0.00000  Uiso   1.00
H593   H     0.78224   0.91645   0.32518   0.00000  Uiso   1.00
H594   H     0.70359   0.79704   0.09203   0.00000  Uiso   1.00
H595   H     0.95781   0.89899   0.39881   0.00000  Uiso   1.00
H596   H     0.99567   0.94728   0.47529   0.00000  Uiso   1.00
H597   H     0.67903   0.79327   0.00655   0.00000  Uiso   1.00
H598   H     0.85102   0.96216   0.06223   0.00000  Uiso   1.00
H599   H     0.85628   0.83614   0.40069   0.00000  Uiso   1.00
H600   H     0.82901   0.79167   0.21504   0.00000  Uiso   1.00
N601   N     0.81362   0.81883   0.23739   0.00000  Uiso   1.00
N602   N     0.85305   0.84784   0.26260   0.00000  Uiso   1.00
O603   O     0.96386   0.91298   0.25309   0.00000  Uiso   1.00
O604   O     0.70281   0.75369   0.24690   0.00000  Uiso   1.00
O605   O     0.72488   0.90368   0.24501   0.00000  Uiso   1.00
O606   O     0.94178   0.76298   0.25498   0.00000  Uiso   1.00
O607   O     0.96995   0.84063   0.32247   0.00000  Uiso   1.00
O608   O     0.69672   0.82603   0.17753   0.00000  Uiso   1.00
O609   O     0.73098   0.83134   0.31439   0.00000  Uiso   1.00
O610   O     0.93569   0.83533   0.18561   0.00000  Uiso   1.00
Zn611  Zn    0.93700   0.83954   0.25539   0.00000  Uiso   1.00
Zn612  Zn    0.72967   0.82713   0.24460   0.00000  Uiso   1.00
C613   C     0.01453   0.26478   0.74888   0.00000  Uiso   1.00
C614   C     0.31036   0.16621   0.65916   0.00000  Uiso   1.00
C615   C     0.04202   0.21027   0.88359   0.00000  Uiso   1.00
C616   C     0.29639   0.17247   0.60719   0.00000  Uiso   1.00
C617   C     0.02472   0.26086   0.95448   0.00000  Uiso   1.00
C618   C     0.31908   0.14812   0.52843   0.00000  Uiso   1.00
C619   C     0.00329   0.23362   0.91127   0.00000  Uiso   1.00
C620   C     0.33283   0.15002   0.57736   0.00000  Uiso   1.00
C621   C     0.10055   0.22457   0.89507   0.00000  Uiso   1.00
C622   C     0.24752   0.19938   0.58694   0.00000  Uiso   1.00
C623   C     0.11945   0.23258   0.94316   0.00000  Uiso   1.00
C624   C     0.31897   0.06864   0.75181   0.00000  Uiso   1.00
C625   C     0.23753   0.20280   0.53604   0.00000  Uiso   1.00
C626   C     0.08339   0.25853   0.97154   0.00000  Uiso   1.00
C627   C     0.27038   0.17141   0.50786   0.00000  Uiso   1.00
C628   C     0.17264   0.21578   0.96327   0.00000  Uiso   1.00
C629   C     0.19224   0.23060   0.51135   0.00000  Uiso   1.00
C630   C     0.20429   0.21947   0.61898   0.00000  Uiso   1.00
C631   C     0.22862   0.27021   0.64705   0.00000  Uiso   1.00
C632   C     0.18353   0.29496   0.67378   0.00000  Uiso   1.00
C633   C     0.12857   0.26184   0.86280   0.00000  Uiso   1.00
C634   C     0.10959   0.31796   0.87000   0.00000  Uiso   1.00
C635   C     0.16478   0.27263   0.53156   0.00000  Uiso   1.00
C636   C     0.13639   0.02251   0.83741   0.00000  Uiso   1.00
C637   C     0.20356   0.18132   0.93766   0.00000  Uiso   1.00
C638   C     0.10819   0.28267   0.51453   0.00000  Uiso   1.00
C639   C     0.25291   0.16101   0.95935   0.00000  Uiso   1.00
C640   C     0.01743   0.31789   0.73971   0.00000  Uiso   1.00
C641   C     0.31587   0.01551   0.76105   0.00000  Uiso   1.00
C642   C     0.02406   0.18025   0.83864   0.00000  Uiso   1.00
Cl643  Cl    0.05153   0.00147   0.68910   0.00000  Uiso   1.00
Cl644  Cl    0.27937   0.33152   0.81033   0.00000  Uiso   1.00
H645   H     0.08443   0.30906   0.53460   0.00000  Uiso   1.00
H646   H     0.17148   0.20869   0.78448   0.00000  Uiso   1.00
H647   H     0.14798   0.30672   0.64766   0.00000  Uiso   1.00
H648   H     0.16634   0.26696   0.69835   0.00000  Uiso   1.00
H649   H     0.20299   0.33031   0.69492   0.00000  Uiso   1.00
H650   H     0.26573   0.26213   0.67239   0.00000  Uiso   1.00
H651   H     0.24609   0.29916   0.62357   0.00000  Uiso   1.00
H652   H     0.16120   0.22380   0.60002   0.00000  Uiso   1.00
H653   H     0.19007   0.18929   0.64250   0.00000  Uiso   1.00
H654   H     0.18296   0.02980   0.84960   0.00000  Uiso   1.00
H655   H     0.13025   0.00679   0.79982   0.00000  Uiso   1.00
H656   H     0.27649   0.13537   0.93831   0.00000  Uiso   1.00
H657   H     0.11575   0.06041   0.83914   0.00000  Uiso   1.00
H658   H     0.06199   0.31800   0.86226   0.00000  Uiso   1.00
H659   H     0.12212   0.33254   0.90757   0.00000  Uiso   1.00
H660   H     0.17628   0.26165   0.86971   0.00000  Uiso   1.00
H661   H     0.11557   0.24978   0.82518   0.00000  Uiso   1.00
H662   H     0.03693   0.13037   0.59203   0.00000  Uiso   1.00
H663   H     0.29114   0.23232   0.89881   0.00000  Uiso   1.00
H664   H     0.32901   0.28061   0.97529   0.00000  Uiso   1.00
H665   H     0.01237   0.12660   0.50655   0.00000  Uiso   1.00
H666   H     0.18436   0.29549   0.56223   0.00000  Uiso   1.00
H667   H     0.18962   0.16947   0.90069   0.00000  Uiso   1.00
H668   H     0.16234   0.12500   0.71504   0.00000  Uiso   1.00
N669   N     0.14695   0.15216   0.73739   0.00000  Uiso   1.00
N670   N     0.18638   0.18117   0.76260   0.00000  Uiso   1.00
O671   O     0.29719   0.24631   0.75309   0.00000  Uiso   1.00
O672   O     0.03614   0.08702   0.74690   0.00000  Uiso   1.00
O673   O     0.05822   0.23702   0.74501   0.00000  Uiso   1.00
O674   O     0.27512   0.09632   0.75498   0.00000  Uiso   1.00
O675   O     0.30328   0.17397   0.82247   0.00000  Uiso   1.00
O676   O     0.03005   0.15937   0.67753   0.00000  Uiso   1.00
O677   O     0.06431   0.16467   0.81439   0.00000  Uiso   1.00
O678   O     0.26902   0.16866   0.68561   0.00000  Uiso   1.00
Zn679  Zn    0.27033   0.17287   0.75539   0.00000  Uiso   1.00
Zn680  Zn    0.06300   0.16046   0.74460   0.00000  Uiso   1.00
C681   C     0.34786   0.26478   0.74888   0.00000  Uiso   1.00
C682   C     0.64370   0.16621   0.65916   0.00000  Uiso   1.00
C683   C     0.37536   0.21027   0.88359   0.00000  Uiso   1.00
C684   C     0.62973   0.17247   0.60719   0.00000  Uiso   1.00
C685   C     0.35806   0.26086   0.95448   0.00000  Uiso   1.00
C686   C     0.65242   0.14812   0.52843   0.00000  Uiso   1.00
C687   C     0.33663   0.23362   0.91127   0.00000  Uiso   1.00
C688   C     0.66616   0.15002   0.57736   0.00000  Uiso   1.00
C689   C     0.43388   0.22457   0.89507   0.00000  Uiso   1.00
C690   C     0.58085   0.19938   0.58694   0.00000  Uiso   1.00
C691   C     0.45278   0.23258   0.94316   0.00000  Uiso   1.00
C692   C     0.65231   0.06864   0.75181   0.00000  Uiso   1.00
C693   C     0.57086   0.20280   0.53604   0.00000  Uiso   1.00
C694   C     0.41672   0.25853   0.97154   0.00000  Uiso   1.00
C695   C     0.60372   0.17141   0.50786   0.00000  Uiso   1.00
C696   C     0.50598   0.21578   0.96327   0.00000  Uiso   1.00
C697   C     0.52557   0.23060   0.51135   0.00000  Uiso   1.00
C698   C     0.53762   0.21947   0.61898   0.00000  Uiso   1.00
C699   C     0.56195   0.27021   0.64705   0.00000  Uiso   1.00
C700   C     0.51686   0.29496   0.67378   0.00000  Uiso   1.00
C701   C     0.46190   0.26184   0.86280   0.00000  Uiso   1.00
C702   C     0.44292   0.31796   0.87000   0.00000  Uiso   1.00
C703   C     0.49811   0.27263   0.53156   0.00000  Uiso   1.00
C704   C     0.46973   0.02251   0.83741   0.00000  Uiso   1.00
C705   C     0.53689   0.18132   0.93766   0.00000  Uiso   1.00
C706   C     0.44152   0.28267   0.51453   0.00000  Uiso   1.00
C707   C     0.58624   0.16101   0.95935   0.00000  Uiso   1.00
C708   C     0.35076   0.31789   0.73971   0.00000  Uiso   1.00
C709   C     0.64920   0.01551   0.76105   0.00000  Uiso   1.00
C710   C     0.35739   0.18025   0.83864   0.00000  Uiso   1.00
Cl711  Cl    0.38486   0.00147   0.68910   0.00000  Uiso   1.00
Cl712  Cl    0.61270   0.33152   0.81033   0.00000  Uiso   1.00
H713   H     0.41776   0.30906   0.53460   0.00000  Uiso   1.00
H714   H     0.50482   0.20869   0.78448   0.00000  Uiso   1.00
H715   H     0.48132   0.30672   0.64766   0.00000  Uiso   1.00
H716   H     0.49967   0.26696   0.69835   0.00000  Uiso   1.00
H717   H     0.53632   0.33031   0.69492   0.00000  Uiso   1.00
H718   H     0.59907   0.26213   0.67239   0.00000  Uiso   1.00
H719   H     0.57943   0.29916   0.62357   0.00000  Uiso   1.00
H720   H     0.49454   0.22380   0.60002   0.00000  Uiso   1.00
H721   H     0.52341   0.18929   0.64250   0.00000  Uiso   1.00
H722   H     0.51630   0.02980   0.84960   0.00000  Uiso   1.00
H723   H     0.46358   0.00679   0.79982   0.00000  Uiso   1.00
H724   H     0.60982   0.13537   0.93831   0.00000  Uiso   1.00
H725   H     0.44909   0.06041   0.83914   0.00000  Uiso   1.00
H726   H     0.39533   0.31800   0.86226   0.00000  Uiso   1.00
H727   H     0.45545   0.33254   0.90757   0.00000  Uiso   1.00
H728   H     0.50961   0.26165   0.86971   0.00000  Uiso   1.00
H729   H     0.44891   0.24978   0.82518   0.00000  Uiso   1.00
H730   H     0.37026   0.13037   0.59203   0.00000  Uiso   1.00
H731   H     0.62448   0.23232   0.89881   0.00000  Uiso   1.00
H732   H     0.66234   0.28061   0.97529   0.00000  Uiso   1.00
H733   H     0.34570   0.12660   0.50655   0.00000  Uiso   1.00
H734   H     0.51769   0.29549   0.56223   0.00000  Uiso   1.00
H735   H     0.52295   0.16947   0.90069   0.00000  Uiso   1.00
H736   H     0.49567   0.12500   0.71504   0.00000  Uiso   1.00
N737   N     0.48029   0.15216   0.73739   0.00000  Uiso   1.00
N738   N     0.51971   0.18117   0.76260   0.00000  Uiso   1.00
O739   O     0.63052   0.24631   0.75309   0.00000  Uiso   1.00
O740   O     0.36948   0.08702   0.74690   0.00000  Uiso   1.00
O741   O     0.39155   0.23702   0.74501   0.00000  Uiso   1.00
O742   O     0.60845   0.09632   0.75498   0.00000  Uiso   1.00
O743   O     0.63662   0.17397   0.82247   0.00000  Uiso   1.00
O744   O     0.36338   0.15937   0.67753   0.00000  Uiso   1.00
O745   O     0.39764   0.16467   0.81439   0.00000  Uiso   1.00
O746   O     0.60236   0.16866   0.68561   0.00000  Uiso   1.00
Zn747  Zn    0.60366   0.17287   0.75539   0.00000  Uiso   1.00
Zn748  Zn    0.39634   0.16046   0.74460   0.00000  Uiso   1.00
C749   C     0.68120   0.26478   0.74888   0.00000  Uiso   1.00
C750   C     0.97703   0.16621   0.65916   0.00000  Uiso   1.00
C751   C     0.70869   0.21027   0.88359   0.00000  Uiso   1.00
C752   C     0.96306   0.17247   0.60719   0.00000  Uiso   1.00
C753   C     0.69139   0.26086   0.95448   0.00000  Uiso   1.00
C754   C     0.98575   0.14812   0.52843   0.00000  Uiso   1.00
C755   C     0.66996   0.23362   0.91127   0.00000  Uiso   1.00
C756   C     0.99949   0.15002   0.57736   0.00000  Uiso   1.00
C757   C     0.76721   0.22457   0.89507   0.00000  Uiso   1.00
C758   C     0.91419   0.19938   0.58694   0.00000  Uiso   1.00
C759   C     0.78612   0.23258   0.94316   0.00000  Uiso   1.00
C760   C     0.98564   0.06864   0.75181   0.00000  Uiso   1.00
C761   C     0.90420   0.20280   0.53604   0.00000  Uiso   1.00
C762   C     0.75005   0.25853   0.97154   0.00000  Uiso   1.00
C763   C     0.93705   0.17141   0.50786   0.00000  Uiso   1.00
C764   C     0.83931   0.21578   0.96327   0.00000  Uiso   1.00
C765   C     0.85890   0.23060   0.51135   0.00000  Uiso   1.00
C766   C     0.87096   0.21947   0.61898   0.00000  Uiso   1.00
C767   C     0.89528   0.27021   0.64705   0.00000  Uiso   1.00
C768   C     0.85020   0.29496   0.67378   0.00000  Uiso   1.00
C769   C     0.79524   0.26184   0.86280   0.00000  Uiso   1.00
C770   C     0.77626   0.31796   0.87000   0.00000  Uiso   1.00
C771   C     0.83145   0.27263   0.53156   0.00000  Uiso   1.00
C772   C     0.80306   0.02251   0.83741   0.00000  Uiso   1.00
C773   C     0.87023   0.18132   0.93766   0.00000  Uiso   1.00
C774   C     0.77486   0.28267   0.51453   0.00000  Uiso   1.00
C775   C     0.91958   0.16101   0.95935   0.00000  Uiso   1.00
C776   C     0.68409   0.31789   0.73971   0.00000  Uiso   1.00
C777   C     0.98254   0.01551   0.76105   0.00000  Uiso   1.00
C778   C     0.69073   0.18025   0.83864   0.00000  Uiso   1.00
Cl779  Cl    0.71820   0.00147   0.68910   0.00000  Uiso   1.00
Cl780  Cl    0.94603   0.33152   0.81033   0.00000  Uiso   1.00
H781   H     0.75109   0.30906   0.53460   0.00000  Uiso   1.00
H782   H     0.83815   0.20869   0.78448   0.00000  Uiso   1.00
H783   H     0.81465   0.30672   0.64766   0.00000  Uiso   1.00
H784   H     0.83301   0.26696   0.69835   0.00000  Uiso   1.00
H785   H     0.86965   0.33031   0.69492   0.00000  Uiso   1.00
H786   H     0.93240   0.26213   0.67239   0.00000  Uiso   1.00
H787   H     0.91276   0.29916   0.62357   0.00000  Uiso   1.00
H788   H     0.82787   0.22380   0.60002   0.00000  Uiso   1.00
H789   H     0.85674   0.18929   0.64250   0.00000  Uiso   1.00
H790   H     0.84963   0.02980   0.84960   0.00000  Uiso   1.00
H791   H     0.79691   0.00679   0.79982   0.00000  Uiso   1.00
H792   H     0.94315   0.13537   0.93831   0.00000  Uiso   1.00
H793   H     0.78242   0.06041   0.83914   0.00000  Uiso   1.00
H794   H     0.72866   0.31800   0.86226   0.00000  Uiso   1.00
H795   H     0.78879   0.33254   0.90757   0.00000  Uiso   1.00
H796   H     0.84295   0.26165   0.86971   0.00000  Uiso   1.00
H797   H     0.78224   0.24978   0.82518   0.00000  Uiso   1.00
H798   H     0.70359   0.13037   0.59203   0.00000  Uiso   1.00
H799   H     0.95781   0.23232   0.89881   0.00000  Uiso   1.00
H800   H     0.99567   0.28061   0.97529   0.00000  Uiso   1.00
H801   H     0.67903   0.12660   0.50655   0.00000  Uiso   1.00
H802   H     0.85102   0.29549   0.56223   0.00000  Uiso   1.00
H803   H     0.85628   0.16947   0.90069   0.00000  Uiso   1.00
H804   H     0.82901   0.12500   0.71504   0.00000  Uiso   1.00
N805   N     0.81362   0.15216   0.73739   0.00000  Uiso   1.00
N806   N     0.85305   0.18117   0.76260   0.00000  Uiso   1.00
O807   O     0.96386   0.24631   0.75309   0.00000  Uiso   1.00
O808   O     0.70281   0.08702   0.74690   0.00000  Uiso   1.00
O809   O     0.72488   0.23702   0.74501   0.00000  Uiso   1.00
O810   O     0.94178   0.09632   0.75498   0.00000  Uiso   1.00
O811   O     0.96995   0.17397   0.82247   0.00000  Uiso   1.00
O812   O     0.69672   0.15937   0.67753   0.00000  Uiso   1.00
O813   O     0.73098   0.16467   0.81439   0.00000  Uiso   1.00
O814   O     0.93569   0.16866   0.68561   0.00000  Uiso   1.00
Zn815  Zn    0.93700   0.17287   0.75539   0.00000  Uiso   1.00
Zn816  Zn    0.72967   0.16046   0.74460   0.00000  Uiso   1.00
C817   C     0.01453   0.59811   0.74888   0.00000  Uiso   1.00
C818   C     0.31036   0.49954   0.65916   0.00000  Uiso   1.00
C819   C     0.04202   0.54361   0.88359   0.00000  Uiso   1.00
C820   C     0.29639   0.50580   0.60719   0.00000  Uiso   1.00
C821   C     0.02472   0.59419   0.95448   0.00000  Uiso   1.00
C822   C     0.31908   0.48145   0.52843   0.00000  Uiso   1.00
C823   C     0.00329   0.56696   0.91127   0.00000  Uiso   1.00
C824   C     0.33283   0.48335   0.57736   0.00000  Uiso   1.00
C825   C     0.10055   0.55791   0.89507   0.00000  Uiso   1.00
C826   C     0.24752   0.53272   0.58694   0.00000  Uiso   1.00
C827   C     0.11945   0.56591   0.94316   0.00000  Uiso   1.00
C828   C     0.31897   0.40197   0.75181   0.00000  Uiso   1.00
C829   C     0.23753   0.53613   0.53604   0.00000  Uiso   1.00
C830   C     0.08339   0.59186   0.97154   0.00000  Uiso   1.00
C831   C     0.27038   0.50474   0.50786   0.00000  Uiso   1.00
C832   C     0.17264   0.54912   0.96327   0.00000  Uiso   1.00
C833   C     0.19224   0.56394   0.51135   0.00000  Uiso   1.00
C834   C     0.20429   0.55280   0.61898   0.00000  Uiso   1.00
C835   C     0.22862   0.60354   0.64705   0.00000  Uiso   1.00
C836   C     0.18353   0.62829   0.67378   0.00000  Uiso   1.00
C837   C     0.12857   0.59518   0.86280   0.00000  Uiso   1.00
C838   C     0.10959   0.65129   0.87000   0.00000  Uiso   1.00
C839   C     0.16478   0.60596   0.53156   0.00000  Uiso   1.00
C840   C     0.13639   0.35585   0.83741   0.00000  Uiso   1.00
C841   C     0.20356   0.51466   0.93766   0.00000  Uiso   1.00
C842   C     0.10819   0.61601   0.51453   0.00000  Uiso   1.00
C843   C     0.25291   0.49435   0.95935   0.00000  Uiso   1.00
C844   C     0.01743   0.65123   0.73971   0.00000  Uiso   1.00
C845   C     0.31587   0.34884   0.76105   0.00000  Uiso   1.00
C846   C     0.02406   0.51358   0.83864   0.00000  Uiso   1.00
Cl847  Cl    0.05153   0.33480   0.68910   0.00000  Uiso   1.00
Cl848  Cl    0.27937   0.66485   0.81033   0.00000  Uiso   1.00
H849   H     0.08443   0.64239   0.53460   0.00000  Uiso   1.00
H850   H     0.17148   0.54202   0.78448   0.00000  Uiso   1.00
H851   H     0.14798   0.64005   0.64766   0.00000  Uiso   1.00
H852   H     0.16634   0.60029   0.69835   0.00000  Uiso   1.00
H853   H     0.20299   0.66364   0.69492   0.00000  Uiso   1.00
H854   H     0.26573   0.59547   0.67239   0.00000  Uiso   1.00
H855   H     0.24609   0.63250   0.62357   0.00000  Uiso   1.00
H856   H     0.16120   0.55713   0.60002   0.00000  Uiso   1.00
H857   H     0.19007   0.52262   0.64250   0.00000  Uiso   1.00
H858   H     0.18296   0.36314   0.84960   0.00000  Uiso   1.00
H859   H     0.13025   0.34012   0.79982   0.00000  Uiso   1.00
H860   H     0.27649   0.46870   0.93831   0.00000  Uiso   1.00
H861   H     0.11575   0.39374   0.83914   0.00000  Uiso   1.00
H862   H     0.06199   0.65133   0.86226   0.00000  Uiso   1.00
H863   H     0.12212   0.66588   0.90757   0.00000  Uiso   1.00
H864   H     0.17628   0.59499   0.86971   0.00000  Uiso   1.00
H865   H     0.11557   0.58311   0.82518   0.00000  Uiso   1.00
H866   H     0.03693   0.46370   0.59203   0.00000  Uiso   1.00
H867   H     0.29114   0.56565   0.89881   0.00000  Uiso   1.00
H868   H     0.32901   0.61395   0.97529   0.00000  Uiso   1.00
H869   H     0.01237   0.45993   0.50655   0.00000  Uiso   1.00
H870   H     0.18436   0.62882   0.56223   0.00000  Uiso   1.00
H871   H     0.18962   0.50281   0.90069   0.00000  Uiso   1.00
H872   H     0.16234   0.45834   0.71504   0.00000  Uiso   1.00
N873   N     0.14695   0.48550   0.73739   0.00000  Uiso   1.00
N874   N     0.18638   0.51450   0.76260   0.00000  Uiso   1.00
O875   O     0.29719   0.57964   0.75309   0.00000  Uiso   1.00
O876   O     0.03614   0.42036   0.74690   0.00000  Uiso   1.00
O877   O     0.05822   0.57035   0.74501   0.00000  Uiso   1.00
O878   O     0.27512   0.42965   0.75498   0.00000  Uiso   1.00
O879   O     0.30328   0.50730   0.82247   0.00000  Uiso   1.00
O880   O     0.03005   0.49270   0.67753   0.00000  Uiso   1.00
O881   O     0.06431   0.49801   0.81439   0.00000  Uiso   1.00
O882   O     0.26902   0.50199   0.68561   0.00000  Uiso   1.00
Zn883  Zn    0.27033   0.50621   0.75539   0.00000  Uiso   1.00
Zn884  Zn    0.06300   0.49379   0.74460   0.00000  Uiso   1.00
C885   C     0.34786   0.59811   0.74888   0.00000  Uiso   1.00
C886   C     0.64370   0.49954   0.65916   0.00000  Uiso   1.00
C887   C     0.37536   0.54361   0.88359   0.00000  Uiso   1.00
C888   C     0.62973   0.50580   0.60719   0.00000  Uiso   1.00
C889   C     0.35806   0.59419   0.95448   0.00000  Uiso   1.00
C890   C     0.65242   0.48145   0.52843   0.00000  Uiso   1.00
C891   C     0.33663   0.56696   0.91127   0.00000  Uiso   1.00
C892   C     0.66616   0.48335   0.57736   0.00000  Uiso   1.00
C893   C     0.43388   0.55791   0.89507   0.00000  Uiso   1.00
C894   C     0.58085   0.53272   0.58694   0.00000  Uiso   1.00
C895   C     0.45278   0.56591   0.94316   0.00000  Uiso   1.00
C896   C     0.65231   0.40197   0.75181   0.00000  Uiso   1.00
C897   C     0.57086   0.53613   0.53604   0.00000  Uiso   1.00
C898   C     0.41672   0.59186   0.97154   0.00000  Uiso   1.00
C899   C     0.60372   0.50474   0.50786   0.00000  Uiso   1.00
C900   C     0.50598   0.54912   0.96327   0.00000  Uiso   1.00
C901   C     0.52557   0.56394   0.51135   0.00000  Uiso   1.00
C902   C     0.53762   0.55280   0.61898   0.00000  Uiso   1.00
C903   C     0.56195   0.60354   0.64705   0.00000  Uiso   1.00
C904   C     0.51686   0.62829   0.67378   0.00000  Uiso   1.00
C905   C     0.46190   0.59518   0.86280   0.00000  Uiso   1.00
C906   C     0.44292   0.65129   0.87000   0.00000  Uiso   1.00
C907   C     0.49811   0.60596   0.53156   0.00000  Uiso   1.00
C908   C     0.46973   0.35585   0.83741   0.00000  Uiso   1.00
C909   C     0.53689   0.51466   0.93766   0.00000  Uiso   1.00
C910   C     0.44152   0.61601   0.51453   0.00000  Uiso   1.00
C911   C     0.58624   0.49435   0.95935   0.00000  Uiso   1.00
C912   C     0.35076   0.65123   0.73971   0.00000  Uiso   1.00
C913   C     0.64920   0.34884   0.76105   0.00000  Uiso   1.00
C914   C     0.35739   0.51358   0.83864   0.00000  Uiso   1.00
Cl915  Cl    0.38486   0.33480   0.68910   0.00000  Uiso   1.00
Cl916  Cl    0.61270   0.66485   0.81033   0.00000  Uiso   1.00
H917   H     0.41776   0.64239   0.53460   0.00000  Uiso   1.00
H918   H     0.50482   0.54202   0.78448   0.00000  Uiso   1.00
H919   H     0.48132   0.64005   0.64766   0.00000  Uiso   1.00
H920   H     0.49967   0.60029   0.69835   0.00000  Uiso   1.00
H921   H     0.53632   0.66364   0.69492   0.00000  Uiso   1.00
H922   H     0.59907   0.59547   0.67239   0.00000  Uiso   1.00
H923   H     0.57943   0.63250   0.62357   0.00000  Uiso   1.00
H924   H     0.49454   0.55713   0.60002   0.00000  Uiso   1.00
H925   H     0.52341   0.52262   0.64250   0.00000  Uiso   1.00
H926   H     0.51630   0.36314   0.84960   0.00000  Uiso   1.00
H927   H     0.46358   0.34012   0.79982   0.00000  Uiso   1.00
H928   H     0.60982   0.46870   0.93831   0.00000  Uiso   1.00
H929   H     0.44909   0.39374   0.83914   0.00000  Uiso   1.00
H930   H     0.39533   0.65133   0.86226   0.00000  Uiso   1.00
H931   H     0.45545   0.66588   0.90757   0.00000  Uiso   1.00
H932   H     0.50961   0.59499   0.86971   0.00000  Uiso   1.00
H933   H     0.44891   0.58311   0.82518   0.00000  Uiso   1.00
H934   H     0.37026   0.46370   0.59203   0.00000  Uiso   1.00
H935   H     0.62448   0.56565   0.89881   0.00000  Uiso   1.00
H936   H     0.66234   0.61395   0.97529   0.00000  Uiso   1.00
H937   H     0.34570   0.45993   0.50655   0.00000  Uiso   1.00
H938   H     0.51769   0.62882   0.56223   0.00000  Uiso   1.00
H939   H     0.52295   0.50281   0.90069   0.00000  Uiso   1.00
H940   H     0.49567   0.45834   0.71504   0.00000  Uiso   1.00
N941   N     0.48029   0.48550   0.73739   0.00000  Uiso   1.00
N942   N     0.51971   0.51450   0.76260   0.00000  Uiso   1.00
O943   O     0.63052   0.57964   0.75309   0.00000  Uiso   1.00
O944   O     0.36948   0.42036   0.74690   0.00000  Uiso   1.00
O945   O     0.39155   0.57035   0.74501   0.00000  Uiso   1.00
O946   O     0.60845   0.42965   0.75498   0.00000  Uiso   1.00
O947   O     0.63662   0.50730   0.82247   0.00000  Uiso   1.00
O948   O     0.36338   0.49270   0.67753   0.00000  Uiso   1.00
O949   O     0.39764   0.49801   0.81439   0.00000  Uiso   1.00
O950   O     0.60236   0.50199   0.68561   0.00000  Uiso   1.00
Zn951  Zn    0.60366   0.50621   0.75539   0.00000  Uiso   1.00
Zn952  Zn    0.39634   0.49379   0.74460   0.00000  Uiso   1.00
C953   C     0.68120   0.59811   0.74888   0.00000  Uiso   1.00
C954   C     0.97703   0.49954   0.65916   0.00000  Uiso   1.00
C955   C     0.70869   0.54361   0.88359   0.00000  Uiso   1.00
C956   C     0.96306   0.50580   0.60719   0.00000  Uiso   1.00
C957   C     0.69139   0.59419   0.95448   0.00000  Uiso   1.00
C958   C     0.98575   0.48145   0.52843   0.00000  Uiso   1.00
C959   C     0.66996   0.56696   0.91127   0.00000  Uiso   1.00
C960   C     0.99949   0.48335   0.57736   0.00000  Uiso   1.00
C961   C     0.76721   0.55791   0.89507   0.00000  Uiso   1.00
C962   C     0.91419   0.53272   0.58694   0.00000  Uiso   1.00
C963   C     0.78612   0.56591   0.94316   0.00000  Uiso   1.00
C964   C     0.98564   0.40197   0.75181   0.00000  Uiso   1.00
C965   C     0.90420   0.53613   0.53604   0.00000  Uiso   1.00
C966   C     0.75005   0.59186   0.97154   0.00000  Uiso   1.00
C967   C     0.93705   0.50474   0.50786   0.00000  Uiso   1.00
C968   C     0.83931   0.54912   0.96327   0.00000  Uiso   1.00
C969   C     0.85890   0.56394   0.51135   0.00000  Uiso   1.00
C970   C     0.87096   0.55280   0.61898   0.00000  Uiso   1.00
C971   C     0.89528   0.60354   0.64705   0.00000  Uiso   1.00
C972   C     0.85020   0.62829   0.67378   0.00000  Uiso   1.00
C973   C     0.79524   0.59518   0.86280   0.00000  Uiso   1.00
C974   C     0.77626   0.65129   0.87000   0.00000  Uiso   1.00
C975   C     0.83145   0.60596   0.53156   0.00000  Uiso   1.00
C976   C     0.80306   0.35585   0.83741   0.00000  Uiso   1.00
C977   C     0.87023   0.51466   0.93766   0.00000  Uiso   1.00
C978   C     0.77486   0.61601   0.51453   0.00000  Uiso   1.00
C979   C     0.91958   0.49435   0.95935   0.00000  Uiso   1.00
C980   C     0.68409   0.65123   0.73971   0.00000  Uiso   1.00
C981   C     0.98254   0.34884   0.76105   0.00000  Uiso   1.00
C982   C     0.69073   0.51358   0.83864   0.00000  Uiso   1.00
Cl983  Cl    0.71820   0.33480   0.68910   0.00000  Uiso   1.00
Cl984  Cl    0.94603   0.66485   0.81033   0.00000  Uiso   1.00
H985   H     0.75109   0.64239   0.53460   0.00000  Uiso   1.00
H986   H     0.83815   0.54202   0.78448   0.00000  Uiso   1.00
H987   H     0.81465   0.64005   0.64766   0.00000  Uiso   1.00
H988   H     0.83301   0.60029   0.69835   0.00000  Uiso   1.00
H989   H     0.86965   0.66364   0.69492   0.00000  Uiso   1.00
H990   H     0.93240   0.59547   0.67239   0.00000  Uiso   1.00
H991   H     0.91276   0.63250   0.62357   0.00000  Uiso   1.00
H992   H     0.82787   0.55713   0.60002   0.00000  Uiso   1.00
H993   H     0.85674   0.52262   0.64250   0.00000  Uiso   1.00
H994   H     0.84963   0.36314   0.84960   0.00000  Uiso   1.00
H995   H     0.79691   0.34012   0.79982   0.00000  Uiso   1.00
H996   H     0.94315   0.46870   0.93831   0.00000  Uiso   1.00
H997   H     0.78242   0.39374   0.83914   0.00000  Uiso   1.00
H998   H     0.72866   0.65133   0.86226   0.00000  Uiso   1.00
H999   H     0.78879   0.66588   0.90757   0.00000  Uiso   1.00
H1000  H     0.84295   0.59499   0.86971   0.00000  Uiso   1.00
H1001  H     0.78224   0.58311   0.82518   0.00000  Uiso   1.00
H1002  H     0.70359   0.46370   0.59203   0.00000  Uiso   1.00
H1003  H     0.95781   0.56565   0.89881   0.00000  Uiso   1.00
H1004  H     0.99567   0.61395   0.97529   0.00000  Uiso   1.00
H1005  H     0.67903   0.45993   0.50655   0.00000  Uiso   1.00
H1006  H     0.85102   0.62882   0.56223   0.00000  Uiso   1.00
H1007  H     0.85628   0.50281   0.90069   0.00000  Uiso   1.00
H1008  H     0.82901   0.45834   0.71504   0.00000  Uiso   1.00
N1009  N     0.81362   0.48550   0.73739   0.00000  Uiso   1.00
N1010  N     0.85305   0.51450   0.76260   0.00000  Uiso   1.00
O1011  O     0.96386   0.57964   0.75309   0.00000  Uiso   1.00
O1012  O     0.70281   0.42036   0.74690   0.00000  Uiso   1.00
O1013  O     0.72488   0.57035   0.74501   0.00000  Uiso   1.00
O1014  O     0.94178   0.42965   0.75498   0.00000  Uiso   1.00
O1015  O     0.96995   0.50730   0.82247   0.00000  Uiso   1.00
O1016  O     0.69672   0.49270   0.67753   0.00000  Uiso   1.00
O1017  O     0.73098   0.49801   0.81439   0.00000  Uiso   1.00
O1018  O     0.93569   0.50199   0.68561   0.00000  Uiso   1.00
Zn1019 Zn    0.93700   0.50621   0.75539   0.00000  Uiso   1.00
Zn1020 Zn    0.72967   0.49379   0.74460   0.00000  Uiso   1.00
C1021  C     0.01453   0.93144   0.74888   0.00000  Uiso   1.00
C1022  C     0.31036   0.83288   0.65916   0.00000  Uiso   1.00
C1023  C     0.04202   0.87694   0.88359   0.00000  Uiso   1.00
C1024  C     0.29639   0.83914   0.60719   0.00000  Uiso   1.00
C1025  C     0.02472   0.92753   0.95448   0.00000  Uiso   1.00
C1026  C     0.31908   0.81478   0.52843   0.00000  Uiso   1.00
C1027  C     0.00329   0.90029   0.91127   0.00000  Uiso   1.00
C1028  C     0.33283   0.81668   0.57736   0.00000  Uiso   1.00
C1029  C     0.10055   0.89124   0.89507   0.00000  Uiso   1.00
C1030  C     0.24752   0.86605   0.58694   0.00000  Uiso   1.00
C1031  C     0.11945   0.89925   0.94316   0.00000  Uiso   1.00
C1032  C     0.31897   0.73530   0.75181   0.00000  Uiso   1.00
C1033  C     0.23753   0.86946   0.53604   0.00000  Uiso   1.00
C1034  C     0.08339   0.92519   0.97154   0.00000  Uiso   1.00
C1035  C     0.27038   0.83808   0.50786   0.00000  Uiso   1.00
C1036  C     0.17264   0.88245   0.96327   0.00000  Uiso   1.00
C1037  C     0.19224   0.89727   0.51135   0.00000  Uiso   1.00
C1038  C     0.20429   0.88614   0.61898   0.00000  Uiso   1.00
C1039  C     0.22862   0.93687   0.64705   0.00000  Uiso   1.00
C1040  C     0.18353   0.96163   0.67378   0.00000  Uiso   1.00
C1041  C     0.12857   0.92851   0.86280   0.00000  Uiso   1.00
C1042  C     0.10959   0.98463   0.87000   0.00000  Uiso   1.00
C1043  C     0.16478   0.93930   0.53156   0.00000  Uiso   1.00
C1044  C     0.13639   0.68918   0.83741   0.00000  Uiso   1.00
C1045  C     0.20356   0.84799   0.93766   0.00000  Uiso   1.00
C1046  C     0.10819   0.94934   0.51453   0.00000  Uiso   1.00
C1047  C     0.25291   0.82768   0.95935   0.00000  Uiso   1.00
C1048  C     0.01743   0.98456   0.73971   0.00000  Uiso   1.00
C1049  C     0.31587   0.68217   0.76105   0.00000  Uiso   1.00
C1050  C     0.02406   0.84692   0.83864   0.00000  Uiso   1.00
Cl1051 Cl    0.05153   0.66813   0.68910   0.00000  Uiso   1.00
Cl1052 Cl    0.27937   0.99819   0.81033   0.00000  Uiso   1.00
H1053  H     0.08443   0.97573   0.53460   0.00000  Uiso   1.00
H1054  H     0.17148   0.87536   0.78448   0.00000  Uiso   1.00
H1055  H     0.14798   0.97338   0.64766   0.00000  Uiso   1.00
H1056  H     0.16634   0.93363   0.69835   0.00000  Uiso   1.00
H1057  H     0.20299   0.99697   0.69492   0.00000  Uiso   1.00
H1058  H     0.26573   0.92880   0.67239   0.00000  Uiso   1.00
H1059  H     0.24609   0.96583   0.62357   0.00000  Uiso   1.00
H1060  H     0.16120   0.89046   0.60002   0.00000  Uiso   1.00
H1061  H     0.19007   0.85595   0.64250   0.00000  Uiso   1.00
H1062  H     0.18296   0.69647   0.84960   0.00000  Uiso   1.00
H1063  H     0.13025   0.67346   0.79982   0.00000  Uiso   1.00
H1064  H     0.27649   0.80204   0.93831   0.00000  Uiso   1.00
H1065  H     0.11575   0.72708   0.83914   0.00000  Uiso   1.00
H1066  H     0.06199   0.98467   0.86226   0.00000  Uiso   1.00
H1067  H     0.12212   0.99921   0.90757   0.00000  Uiso   1.00
H1068  H     0.17628   0.92832   0.86971   0.00000  Uiso   1.00
H1069  H     0.11557   0.91645   0.82518   0.00000  Uiso   1.00
H1070  H     0.03693   0.79704   0.59203   0.00000  Uiso   1.00
H1071  H     0.29114   0.89899   0.89881   0.00000  Uiso   1.00
H1072  H     0.32901   0.94728   0.97529   0.00000  Uiso   1.00
H1073  H     0.01237   0.79327   0.50655   0.00000  Uiso   1.00
H1074  H     0.18436   0.96216   0.56223   0.00000  Uiso   1.00
H1075  H     0.18962   0.83614   0.90069   0.00000  Uiso   1.00
H1076  H     0.16234   0.79167   0.71504   0.00000  Uiso   1.00
N1077  N     0.14695   0.81883   0.73739   0.00000  Uiso   1.00
N1078  N     0.18638   0.84784   0.76260   0.00000  Uiso   1.00
O1079  O     0.29719   0.91298   0.75309   0.00000  Uiso   1.00
O1080  O     0.03614   0.75369   0.74690   0.00000  Uiso   1.00
O1081  O     0.05822   0.90368   0.74501   0.00000  Uiso   1.00
O1082  O     0.27512   0.76298   0.75498   0.00000  Uiso   1.00
O1083  O     0.30328   0.84063   0.82247   0.00000  Uiso   1.00
O1084  O     0.03005   0.82603   0.67753   0.00000  Uiso   1.00
O1085  O     0.06431   0.83134   0.81439   0.00000  Uiso   1.00
O1086  O     0.26902   0.83533   0.68561   0.00000  Uiso   1.00
Zn1087 Zn    0.27033   0.83954   0.75539   0.00000  Uiso   1.00
Zn1088 Zn    0.06300   0.82713   0.74460   0.00000  Uiso   1.00
C1089  C     0.34786   0.93144   0.74888   0.00000  Uiso   1.00
C1090  C     0.64370   0.83288   0.65916   0.00000  Uiso   1.00
C1091  C     0.37536   0.87694   0.88359   0.00000  Uiso   1.00
C1092  C     0.62973   0.83914   0.60719   0.00000  Uiso   1.00
C1093  C     0.35806   0.92753   0.95448   0.00000  Uiso   1.00
C1094  C     0.65242   0.81478   0.52843   0.00000  Uiso   1.00
C1095  C     0.33663   0.90029   0.91127   0.00000  Uiso   1.00
C1096  C     0.66616   0.81668   0.57736   0.00000  Uiso   1.00
C1097  C     0.43388   0.89124   0.89507   0.00000  Uiso   1.00
C1098  C     0.58085   0.86605   0.58694   0.00000  Uiso   1.00
C1099  C     0.45278   0.89925   0.94316   0.00000  Uiso   1.00
C1100  C     0.65231   0.73530   0.75181   0.00000  Uiso   1.00
C1101  C     0.57086   0.86946   0.53604   0.00000  Uiso   1.00
C1102  C     0.41672   0.92519   0.97154   0.00000  Uiso   1.00
C1103  C     0.60372   0.83808   0.50786   0.00000  Uiso   1.00
C1104  C     0.50598   0.88245   0.96327   0.00000  Uiso   1.00
C1105  C     0.52557   0.89727   0.51135   0.00000  Uiso   1.00
C1106  C     0.53762   0.88614   0.61898   0.00000  Uiso   1.00
C1107  C     0.56195   0.93687   0.64705   0.00000  Uiso   1.00
C1108  C     0.51686   0.96163   0.67378   0.00000  Uiso   1.00
C1109  C     0.46190   0.92851   0.86280   0.00000  Uiso   1.00
C1110  C     0.44292   0.98463   0.87000   0.00000  Uiso   1.00
C1111  C     0.49811   0.93930   0.53156   0.00000  Uiso   1.00
C1112  C     0.46973   0.68918   0.83741   0.00000  Uiso   1.00
C1113  C     0.53689   0.84799   0.93766   0.00000  Uiso   1.00
C1114  C     0.44152   0.94934   0.51453   0.00000  Uiso   1.00
C1115  C     0.58624   0.82768   0.95935   0.00000  Uiso   1.00
C1116  C     0.35076   0.98456   0.73971   0.00000  Uiso   1.00
C1117  C     0.64920   0.68217   0.76105   0.00000  Uiso   1.00
C1118  C     0.35739   0.84692   0.83864   0.00000  Uiso   1.00
Cl1119 Cl    0.38486   0.66813   0.68910   0.00000  Uiso   1.00
Cl1120 Cl    0.61270   0.99819   0.81033   0.00000  Uiso   1.00
H1121  H     0.41776   0.97573   0.53460   0.00000  Uiso   1.00
H1122  H     0.50482   0.87536   0.78448   0.00000  Uiso   1.00
H1123  H     0.48132   0.97338   0.64766   0.00000  Uiso   1.00
H1124  H     0.49967   0.93363   0.69835   0.00000  Uiso   1.00
H1125  H     0.53632   0.99697   0.69492   0.00000  Uiso   1.00
H1126  H     0.59907   0.92880   0.67239   0.00000  Uiso   1.00
H1127  H     0.57943   0.96583   0.62357   0.00000  Uiso   1.00
H1128  H     0.49454   0.89046   0.60002   0.00000  Uiso   1.00
H1129  H     0.52341   0.85595   0.64250   0.00000  Uiso   1.00
H1130  H     0.51630   0.69647   0.84960   0.00000  Uiso   1.00
H1131  H     0.46358   0.67346   0.79982   0.00000  Uiso   1.00
H1132  H     0.60982   0.80204   0.93831   0.00000  Uiso   1.00
H1133  H     0.44909   0.72708   0.83914   0.00000  Uiso   1.00
H1134  H     0.39533   0.98467   0.86226   0.00000  Uiso   1.00
H1135  H     0.45545   0.99921   0.90757   0.00000  Uiso   1.00
H1136  H     0.50961   0.92832   0.86971   0.00000  Uiso   1.00
H1137  H     0.44891   0.91645   0.82518   0.00000  Uiso   1.00
H1138  H     0.37026   0.79704   0.59203   0.00000  Uiso   1.00
H1139  H     0.62448   0.89899   0.89881   0.00000  Uiso   1.00
H1140  H     0.66234   0.94728   0.97529   0.00000  Uiso   1.00
H1141  H     0.34570   0.79327   0.50655   0.00000  Uiso   1.00
H1142  H     0.51769   0.96216   0.56223   0.00000  Uiso   1.00
H1143  H     0.52295   0.83614   0.90069   0.00000  Uiso   1.00
H1144  H     0.49567   0.79167   0.71504   0.00000  Uiso   1.00
N1145  N     0.48029   0.81883   0.73739   0.00000  Uiso   1.00
N1146  N     0.51971   0.84784   0.76260   0.00000  Uiso   1.00
O1147  O     0.63052   0.91298   0.75309   0.00000  Uiso   1.00
O1148  O     0.36948   0.75369   0.74690   0.00000  Uiso   1.00
O1149  O     0.39155   0.90368   0.74501   0.00000  Uiso   1.00
O1150  O     0.60845   0.76298   0.75498   0.00000  Uiso   1.00
O1151  O     0.63662   0.84063   0.82247   0.00000  Uiso   1.00
O1152  O     0.36338   0.82603   0.67753   0.00000  Uiso   1.00
O1153  O     0.39764   0.83134   0.81439   0.00000  Uiso   1.00
O1154  O     0.60236   0.83533   0.68561   0.00000  Uiso   1.00
Zn1155 Zn    0.60366   0.83954   0.75539   0.00000  Uiso   1.00
Zn1156 Zn    0.39634   0.82713   0.74460   0.00000  Uiso   1.00
C1157  C     0.68120   0.93144   0.74888   0.00000  Uiso   1.00
C1158  C     0.97703   0.83288   0.65916   0.00000  Uiso   1.00
C1159  C     0.70869   0.87694   0.88359   0.00000  Uiso   1.00
C1160  C     0.96306   0.83914   0.60719   0.00000  Uiso   1.00
C1161  C     0.69139   0.92753   0.95448   0.00000  Uiso   1.00
C1162  C     0.98575   0.81478   0.52843   0.00000  Uiso   1.00
C1163  C     0.66996   0.90029   0.91127   0.00000  Uiso   1.00
C1164  C     0.99949   0.81668   0.57736   0.00000  Uiso   1.00
C1165  C     0.76721   0.89124   0.89507   0.00000  Uiso   1.00
C1166  C     0.91419   0.86605   0.58694   0.00000  Uiso   1.00
C1167  C     0.78612   0.89925   0.94316   0.00000  Uiso   1.00
C1168  C     0.98564   0.73530   0.75181   0.00000  Uiso   1.00
C1169  C     0.90420   0.86946   0.53604   0.00000  Uiso   1.00
C1170  C     0.75005   0.92519   0.97154   0.00000  Uiso   1.00
C1171  C     0.93705   0.83808   0.50786   0.00000  Uiso   1.00
C1172  C     0.83931   0.88245   0.96327   0.00000  Uiso   1.00
C1173  C     0.85890   0.89727   0.51135   0.00000  Uiso   1.00
C1174  C     0.87096   0.88614   0.61898   0.00000  Uiso   1.00
C1175  C     0.89528   0.93687   0.64705   0.00000  Uiso   1.00
C1176  C     0.85020   0.96163   0.67378   0.00000  Uiso   1.00
C1177  C     0.79524   0.92851   0.86280   0.00000  Uiso   1.00
C1178  C     0.77626   0.98463   0.87000   0.00000  Uiso   1.00
C1179  C     0.83145   0.93930   0.53156   0.00000  Uiso   1.00
C1180  C     0.80306   0.68918   0.83741   0.00000  Uiso   1.00
C1181  C     0.87023   0.84799   0.93766   0.00000  Uiso   1.00
C1182  C     0.77486   0.94934   0.51453   0.00000  Uiso   1.00
C1183  C     0.91958   0.82768   0.95935   0.00000  Uiso   1.00
C1184  C     0.68409   0.98456   0.73971   0.00000  Uiso   1.00
C1185  C     0.98254   0.68217   0.76105   0.00000  Uiso   1.00
C1186  C     0.69073   0.84692   0.83864   0.00000  Uiso   1.00
Cl1187 Cl    0.71820   0.66813   0.68910   0.00000  Uiso   1.00
Cl1188 Cl    0.94603   0.99819   0.81033   0.00000  Uiso   1.00
H1189  H     0.75109   0.97573   0.53460   0.00000  Uiso   1.00
H1190  H     0.83815   0.87536   0.78448   0.00000  Uiso   1.00
H1191  H     0.81465   0.97338   0.64766   0.00000  Uiso   1.00
H1192  H     0.83301   0.93363   0.69835   0.00000  Uiso   1.00
H1193  H     0.86965   0.99697   0.69492   0.00000  Uiso   1.00
H1194  H     0.93240   0.92880   0.67239   0.00000  Uiso   1.00
H1195  H     0.91276   0.96583   0.62357   0.00000  Uiso   1.00
H1196  H     0.82787   0.89046   0.60002   0.00000  Uiso   1.00
H1197  H     0.85674   0.85595   0.64250   0.00000  Uiso   1.00
H1198  H     0.84963   0.69647   0.84960   0.00000  Uiso   1.00
H1199  H     0.79691   0.67346   0.79982   0.00000  Uiso   1.00
H1200  H     0.94315   0.80204   0.93831   0.00000  Uiso   1.00
H1201  H     0.78242   0.72708   0.83914   0.00000  Uiso   1.00
H1202  H     0.72866   0.98467   0.86226   0.00000  Uiso   1.00
H1203  H     0.78879   0.99921   0.90757   0.00000  Uiso   1.00
H1204  H     0.84295   0.92832   0.86971   0.00000  Uiso   1.00
H1205  H     0.78224   0.91645   0.82518   0.00000  Uiso   1.00
H1206  H     0.70359   0.79704   0.59203   0.00000  Uiso   1.00
H1207  H     0.95781   0.89899   0.89881   0.00000  Uiso   1.00
H1208  H     0.99567   0.94728   0.97529   0.00000  Uiso   1.00
H1209  H     0.67903   0.79327   0.50655   0.00000  Uiso   1.00
H1210  H     0.85102   0.96216   0.56223   0.00000  Uiso   1.00
H1211  H     0.85628   0.83614   0.90069   0.00000  Uiso   1.00
H1212  H     0.82901   0.79167   0.71504   0.00000  Uiso   1.00
N1213  N     0.81362   0.81883   0.73739   0.00000  Uiso   1.00
N1214  N     0.85305   0.84784   0.76260   0.00000  Uiso   1.00
O1215  O     0.96386   0.91298   0.75309   0.00000  Uiso   1.00
O1216  O     0.70281   0.75369   0.74690   0.00000  Uiso   1.00
O1217  O     0.72488   0.90368   0.74501   0.00000  Uiso   1.00
O1218  O     0.94178   0.76298   0.75498   0.00000  Uiso   1.00
O1219  O     0.96995   0.84063   0.82247   0.00000  Uiso   1.00
O1220  O     0.69672   0.82603   0.67753   0.00000  Uiso   1.00
O1221  O     0.73098   0.83134   0.81439   0.00000  Uiso   1.00
O1222  O     0.93569   0.83533   0.68561   0.00000  Uiso   1.00
Zn1223 Zn    0.93700   0.83954   0.75539   0.00000  Uiso   1.00
Zn1224 Zn    0.72967   0.82713   0.74460   0.00000  Uiso   1.00
loop_
_geom_bond_atom_site_label_1
_geom_bond_atom_site_label_2
_geom_bond_distance
_geom_bond_site_symmetry_2
_ccdc_geom_bond_type
C1     C28     1.396   .     S
C1     O61     1.291   .     A
C1     O195    1.274   1_455 S
C2     C4      1.483   .     S
C2     O66     1.293   .     A
C2     O132    1.312   .     S
C3     C30     1.464   .     S
C3     C9      1.396   .     A
C3     C7      1.408   .     A
C4     C8      1.398   .     A
C4     C10     1.442   .     A
C5     C14     1.407   .     A
C5     C7      1.407   .     A
C5     H188    1.083   1_455 S
C6     C8      1.380   .     A
C6     C15     1.394   .     A
C6     H121    1.085   .     S
C7     H187    1.080   1_455 S
C8     H118    1.084   .     S
C9     C11     1.382   .     A
C9     C21     1.522   .     S
C10    C18     1.531   .     S
C10    C13     1.437   .     A
C11    C16     1.405   .     A
C11    C14     1.406   .     A
C12    C29     1.397   .     S
C12    O62     1.290   .     A
C12    O128    1.274   .     S
C13    C15     1.426   .     A
C13    C17     1.439   .     A
C14    C638    1.389   .     S
C15    C639    1.394   1_554 S
C16    C25     1.404   .     A
C16    C629    1.412   .     S
C17    C23     1.419   .     A
C17    C628    1.412   1_554 S
C18    C19     1.541   .     S
C18    H41     1.103   .     S
C18    H40     1.099   .     S
C19    H38     1.094   .     S
C19    C20     1.520   .     S
C19    H39     1.109   .     S
C20    H37     1.110   .     S
C20    H35     1.109   .     S
C20    H36     1.111   .     S
C21    H48     1.112   .     S
C21    H49     1.098   .     S
C21    C22     1.542   .     S
C22    H47     1.111   .     S
C22    H46     1.111   .     S
C22    C228    1.525   .     S
C23    C26     1.397   .     A
C23    H54     1.068   .     S
C24    H42     1.108   .     S
C24    H45     1.111   .     S
C24    H43     1.111   .     S
C24    C430    1.525   1_545 S
C25    C27     1.382   .     A
C25    H55     1.083   .     S
C26    H33     1.083   .     S
C26    C626    1.389   1_554 S
C27    H44     1.085   .     S
C27    C627    1.394   .     S
C28    C369    1.345   1_455 S
C28    Cl235   1.775   .     S
C29    C504    1.345   1_545 S
C29    Cl440   1.776   1_545 S
C30    O65     1.299   .     A
C30    O199    1.295   1_455 S
Cl31   C436    1.775   1_545 S
Cl32   C233    1.776   .     S
H34    N58     1.022   .     S
H50    C144    1.084   1_455 S
H51    C75     1.080   .     S
H52    C73     1.083   .     S
H53    C142    1.085   1_455 S
H56    N57     1.029   .     S
N57    N58     1.281   .     D
N57    Zn68    2.022   .     S
N58    Zn67    2.022   .     S
O59    Zn67    1.958   .     S
O59    C69     1.274   .     S
O60    Zn68    1.958   .     S
O60    C148    1.274   1_455 S
O61    Zn68    1.972   .     S
O62    Zn67    1.972   .     S
O63    Zn67    1.959   .     S
O63    C98     1.295   .     S
O64    Zn68    1.959   .     S
O64    C138    1.312   1_455 S
O65    Zn68    1.967   .     S
O66    Zn67    1.967   .     S
C69    C96     1.396   .     S
C69    O129    1.291   .     A
C70    C72     1.483   .     S
C70    O134    1.293   .     A
C70    O200    1.312   .     S
C71    C98     1.464   .     S
C71    C77     1.396   .     A
C71    C75     1.408   .     A
C72    C76     1.398   .     A
C72    C78     1.442   .     A
C73    C82     1.407   .     A
C73    C75     1.407   .     A
C74    C76     1.380   .     A
C74    C83     1.394   .     A
C74    H189    1.085   .     S
C76    H186    1.084   .     S
C77    C79     1.382   .     A
C77    C89     1.522   .     S
C78    C86     1.531   .     S
C78    C81     1.437   .     A
C79    C84     1.405   .     A
C79    C82     1.406   .     A
C80    C97     1.397   .     S
C80    O130    1.290   .     A
C80    O196    1.274   .     S
C81    C83     1.426   .     A
C81    C85     1.439   .     A
C82    C706    1.389   .     S
C83    C707    1.394   1_554 S
C84    C93     1.404   .     A
C84    C697    1.412   .     S
C85    C91     1.419   .     A
C85    C696    1.412   1_554 S
C86    C87     1.541   .     S
C86    H109    1.103   .     S
C86    H108    1.099   .     S
C87    H106    1.094   .     S
C87    C88     1.520   .     S
C87    H107    1.109   .     S
C88    H105    1.110   .     S
C88    H103    1.109   .     S
C88    H104    1.111   .     S
C89    H116    1.112   .     S
C89    H117    1.098   .     S
C89    C90     1.542   .     S
C90    H115    1.111   .     S
C90    H114    1.111   .     S
C90    C296    1.525   .     S
C91    C94     1.397   .     A
C91    H122    1.068   .     S
C92    H110    1.108   .     S
C92    H113    1.111   .     S
C92    H111    1.111   .     S
C92    C498    1.525   1_545 S
C93    C95     1.382   .     A
C93    H123    1.083   .     S
C94    H101    1.083   .     S
C94    C694    1.389   1_554 S
C95    H112    1.085   .     S
C95    C695    1.394   .     S
C96    C233    1.345   .     S
C96    Cl303   1.775   .     S
C97    C572    1.345   1_545 S
C97    Cl508   1.776   1_545 S
C98    O133    1.299   .     A
Cl99   C504    1.775   1_545 S
Cl100  C301    1.776   .     S
H102   N126    1.022   .     S
H119   C143    1.080   .     S
H120   C141    1.083   .     S
H124   N125    1.029   .     S
N125   N126    1.281   .     D
N125   Zn136   2.022   .     S
N126   Zn135   2.022   .     S
O127   Zn135   1.958   .     S
O127   C137    1.274   .     S
O128   Zn136   1.958   .     S
O129   Zn136   1.972   .     S
O130   Zn135   1.972   .     S
O131   Zn135   1.959   .     S
O131   C166    1.295   .     S
O132   Zn136   1.959   .     S
O133   Zn136   1.967   .     S
O134   Zn135   1.967   .     S
C137   C164    1.396   .     S
C137   O197    1.291   .     A
C138   C140    1.483   .     S
C138   O202    1.293   .     A
C138   O64     1.312   1_655 S
C139   C166    1.464   .     S
C139   C145    1.396   .     A
C139   C143    1.408   .     A
C140   C144    1.398   .     A
C140   C146    1.442   .     A
C141   C150    1.407   .     A
C141   C143    1.407   .     A
C142   C144    1.380   .     A
C142   C151    1.394   .     A
C142   H53     1.085   1_655 S
C144   H50     1.084   1_655 S
C145   C147    1.382   .     A
C145   C157    1.522   .     S
C146   C154    1.531   .     S
C146   C149    1.437   .     A
C147   C152    1.405   .     A
C147   C150    1.406   .     A
C148   C165    1.397   .     S
C148   O198    1.290   .     A
C148   O60     1.274   1_655 S
C149   C151    1.426   .     A
C149   C153    1.439   .     A
C150   C774    1.389   .     S
C151   C775    1.394   1_554 S
C152   C161    1.404   .     A
C152   C765    1.412   .     S
C153   C159    1.419   .     A
C153   C764    1.412   1_554 S
C154   C155    1.541   .     S
C154   H177    1.103   .     S
C154   H176    1.099   .     S
C155   H174    1.094   .     S
C155   C156    1.520   .     S
C155   H175    1.109   .     S
C156   H173    1.110   .     S
C156   H171    1.109   .     S
C156   H172    1.111   .     S
C157   H184    1.112   .     S
C157   H185    1.098   .     S
C157   C158    1.542   .     S
C158   H183    1.111   .     S
C158   H182    1.111   .     S
C158   C364    1.525   .     S
C159   C162    1.397   .     A
C159   H190    1.068   .     S
C160   H178    1.108   .     S
C160   H181    1.111   .     S
C160   H179    1.111   .     S
C160   C566    1.525   1_545 S
C161   C163    1.382   .     A
C161   H191    1.083   .     S
C162   H169    1.083   .     S
C162   C762    1.389   1_554 S
C163   H180    1.085   .     S
C163   C763    1.394   .     S
C164   C301    1.345   .     S
C164   Cl371   1.775   .     S
C165   C436    1.345   1_645 S
C165   Cl576   1.776   1_545 S
C166   O201    1.299   .     A
Cl167  C572    1.775   1_545 S
Cl168  C369    1.776   .     S
H170   N194    1.022   .     S
H187   C7      1.080   1_655 S
H188   C5      1.083   1_655 S
H192   N193    1.029   .     S
N193   N194    1.281   .     D
N193   Zn204   2.022   .     S
N194   Zn203   2.022   .     S
O195   Zn203   1.958   .     S
O195   C1      1.274   1_655 S
O196   Zn204   1.958   .     S
O197   Zn204   1.972   .     S
O198   Zn203   1.972   .     S
O199   Zn203   1.959   .     S
O199   C30     1.295   1_655 S
O200   Zn204   1.959   .     S
O201   Zn204   1.967   .     S
O202   Zn203   1.967   .     S
C205   C232    1.396   .     S
C205   O265    1.291   .     A
C205   O399    1.274   1_455 S
C206   C208    1.483   .     S
C206   O270    1.293   .     A
C206   O336    1.312   .     S
C207   C234    1.464   .     S
C207   C213    1.396   .     A
C207   C211    1.408   .     A
C208   C212    1.398   .     A
C208   C214    1.442   .     A
C209   C218    1.407   .     A
C209   C211    1.407   .     A
C209   H392    1.083   1_455 S
C210   C212    1.380   .     A
C210   C219    1.394   .     A
C210   H325    1.085   .     S
C211   H391    1.080   1_455 S
C212   H322    1.084   .     S
C213   C215    1.382   .     A
C213   C225    1.522   .     S
C214   C222    1.531   .     S
C214   C217    1.437   .     A
C215   C220    1.405   .     A
C215   C218    1.406   .     A
C216   C233    1.397   .     S
C216   O266    1.290   .     A
C216   O332    1.274   .     S
C217   C219    1.426   .     A
C217   C221    1.439   .     A
C218   C842    1.389   .     S
C219   C843    1.394   1_554 S
C220   C229    1.404   .     A
C220   C833    1.412   .     S
C221   C227    1.419   .     A
C221   C832    1.412   1_554 S
C222   C223    1.541   .     S
C222   H245    1.103   .     S
C222   H244    1.099   .     S
C223   H242    1.094   .     S
C223   C224    1.520   .     S
C223   H243    1.109   .     S
C224   H241    1.110   .     S
C224   H239    1.109   .     S
C224   H240    1.111   .     S
C225   H252    1.112   .     S
C225   H253    1.098   .     S
C225   C226    1.542   .     S
C226   H251    1.111   .     S
C226   H250    1.111   .     S
C226   C432    1.525   .     S
C227   C230    1.397   .     A
C227   H258    1.068   .     S
C228   H246    1.108   .     S
C228   H249    1.111   .     S
C228   H247    1.111   .     S
C229   C231    1.382   .     A
C229   H259    1.083   .     S
C230   H237    1.083   .     S
C230   C830    1.389   1_554 S
C231   H248    1.085   .     S
C231   C831    1.394   .     S
C232   C573    1.345   1_455 S
C232   Cl439   1.775   .     S
C234   O269    1.299   .     A
C234   O403    1.295   1_455 S
Cl236  C437    1.776   .     S
H238   N262    1.022   .     S
H254   C348    1.084   1_455 S
H255   C279    1.080   .     S
H256   C277    1.083   .     S
H257   C346    1.085   1_455 S
H260   N261    1.029   .     S
N261   N262    1.281   .     D
N261   Zn272   2.022   .     S
N262   Zn271   2.022   .     S
O263   Zn271   1.958   .     S
O263   C273    1.274   .     S
O264   Zn272   1.958   .     S
O264   C352    1.274   1_455 S
O265   Zn272   1.972   .     S
O266   Zn271   1.972   .     S
O267   Zn271   1.959   .     S
O267   C302    1.295   .     S
O268   Zn272   1.959   .     S
O268   C342    1.312   1_455 S
O269   Zn272   1.967   .     S
O270   Zn271   1.967   .     S
C273   C300    1.396   .     S
C273   O333    1.291   .     A
C274   C276    1.483   .     S
C274   O338    1.293   .     A
C274   O404    1.312   .     S
C275   C302    1.464   .     S
C275   C281    1.396   .     A
C275   C279    1.408   .     A
C276   C280    1.398   .     A
C276   C282    1.442   .     A
C277   C286    1.407   .     A
C277   C279    1.407   .     A
C278   C280    1.380   .     A
C278   C287    1.394   .     A
C278   H393    1.085   .     S
C280   H390    1.084   .     S
C281   C283    1.382   .     A
C281   C293    1.522   .     S
C282   C290    1.531   .     S
C282   C285    1.437   .     A
C283   C288    1.405   .     A
C283   C286    1.406   .     A
C284   C301    1.397   .     S
C284   O334    1.290   .     A
C284   O400    1.274   .     S
C285   C287    1.426   .     A
C285   C289    1.439   .     A
C286   C910    1.389   .     S
C287   C911    1.394   1_554 S
C288   C297    1.404   .     A
C288   C901    1.412   .     S
C289   C295    1.419   .     A
C289   C900    1.412   1_554 S
C290   C291    1.541   .     S
C290   H313    1.103   .     S
C290   H312    1.099   .     S
C291   H310    1.094   .     S
C291   C292    1.520   .     S
C291   H311    1.109   .     S
C292   H309    1.110   .     S
C292   H307    1.109   .     S
C292   H308    1.111   .     S
C293   H320    1.112   .     S
C293   H321    1.098   .     S
C293   C294    1.542   .     S
C294   H319    1.111   .     S
C294   H318    1.111   .     S
C294   C500    1.525   .     S
C295   C298    1.397   .     A
C295   H326    1.068   .     S
C296   H314    1.108   .     S
C296   H317    1.111   .     S
C296   H315    1.111   .     S
C297   C299    1.382   .     A
C297   H327    1.083   .     S
C298   H305    1.083   .     S
C298   C898    1.389   1_554 S
C299   H316    1.085   .     S
C299   C899    1.394   .     S
C300   C437    1.345   .     S
C300   Cl507   1.775   .     S
C302   O337    1.299   .     A
Cl304  C505    1.776   .     S
H306   N330    1.022   .     S
H323   C347    1.080   .     S
H324   C345    1.083   .     S
H328   N329    1.029   .     S
N329   N330    1.281   .     D
N329   Zn340   2.022   .     S
N330   Zn339   2.022   .     S
O331   Zn339   1.958   .     S
O331   C341    1.274   .     S
O332   Zn340   1.958   .     S
O333   Zn340   1.972   .     S
O334   Zn339   1.972   .     S
O335   Zn339   1.959   .     S
O335   C370    1.295   .     S
O336   Zn340   1.959   .     S
O337   Zn340   1.967   .     S
O338   Zn339   1.967   .     S
C341   C368    1.396   .     S
C341   O401    1.291   .     A
C342   C344    1.483   .     S
C342   O406    1.293   .     A
C342   O268    1.312   1_655 S
C343   C370    1.464   .     S
C343   C349    1.396   .     A
C343   C347    1.408   .     A
C344   C348    1.398   .     A
C344   C350    1.442   .     A
C345   C354    1.407   .     A
C345   C347    1.407   .     A
C346   C348    1.380   .     A
C346   C355    1.394   .     A
C346   H257    1.085   1_655 S
C348   H254    1.084   1_655 S
C349   C351    1.382   .     A
C349   C361    1.522   .     S
C350   C358    1.531   .     S
C350   C353    1.437   .     A
C351   C356    1.405   .     A
C351   C354    1.406   .     A
C352   C369    1.397   .     S
C352   O402    1.290   .     A
C352   O264    1.274   1_655 S
C353   C355    1.426   .     A
C353   C357    1.439   .     A
C354   C978    1.389   .     S
C355   C979    1.394   1_554 S
C356   C365    1.404   .     A
C356   C969    1.412   .     S
C357   C363    1.419   .     A
C357   C968    1.412   1_554 S
C358   C359    1.541   .     S
C358   H381    1.103   .     S
C358   H380    1.099   .     S
C359   H378    1.094   .     S
C359   C360    1.520   .     S
C359   H379    1.109   .     S
C360   H377    1.110   .     S
C360   H375    1.109   .     S
C360   H376    1.111   .     S
C361   H388    1.112   .     S
C361   H389    1.098   .     S
C361   C362    1.542   .     S
C362   H387    1.111   .     S
C362   H386    1.111   .     S
C362   C568    1.525   .     S
C363   C366    1.397   .     A
C363   H394    1.068   .     S
C364   H382    1.108   .     S
C364   H385    1.111   .     S
C364   H383    1.111   .     S
C365   C367    1.382   .     A
C365   H395    1.083   .     S
C366   H373    1.083   .     S
C366   C966    1.389   1_554 S
C367   H384    1.085   .     S
C367   C967    1.394   .     S
C368   C505    1.345   .     S
C368   Cl575   1.775   .     S
C369   C28     1.345   1_655 S
C370   O405    1.299   .     A
Cl372  C573    1.776   .     S
H374   N398    1.022   .     S
H391   C211    1.080   1_655 S
H392   C209    1.083   1_655 S
H396   N397    1.029   .     S
N397   N398    1.281   .     D
N397   Zn408   2.022   .     S
N398   Zn407   2.022   .     S
O399   Zn407   1.958   .     S
O399   C205    1.274   1_655 S
O400   Zn408   1.958   .     S
O401   Zn408   1.972   .     S
O402   Zn407   1.972   .     S
O403   Zn407   1.959   .     S
O403   C234    1.295   1_655 S
O404   Zn408   1.959   .     S
O405   Zn408   1.967   .     S
O406   Zn407   1.967   .     S
C409   C436    1.396   .     S
C409   O469    1.291   .     A
C409   O603    1.274   1_455 S
C410   C412    1.483   .     S
C410   O474    1.293   .     A
C410   O540    1.312   .     S
C411   C438    1.464   .     S
C411   C417    1.396   .     A
C411   C415    1.408   .     A
C412   C416    1.398   .     A
C412   C418    1.442   .     A
C413   C422    1.407   .     A
C413   C415    1.407   .     A
C413   H596    1.083   1_455 S
C414   C416    1.380   .     A
C414   C423    1.394   .     A
C414   H529    1.085   .     S
C415   H595    1.080   1_455 S
C416   H526    1.084   .     S
C417   C419    1.382   .     A
C417   C429    1.522   .     S
C418   C426    1.531   .     S
C418   C421    1.437   .     A
C419   C424    1.405   .     A
C419   C422    1.406   .     A
C420   C437    1.397   .     S
C420   O470    1.290   .     A
C420   O536    1.274   .     S
C421   C423    1.426   .     A
C421   C425    1.439   .     A
C422   C1046   1.389   .     S
C423   C1047   1.394   1_554 S
C424   C433    1.404   .     A
C424   C1037   1.412   .     S
C425   C431    1.419   .     A
C425   C1036   1.412   1_554 S
C426   C427    1.541   .     S
C426   H449    1.103   .     S
C426   H448    1.099   .     S
C427   H446    1.094   .     S
C427   C428    1.520   .     S
C427   H447    1.109   .     S
C428   H445    1.110   .     S
C428   H443    1.109   .     S
C428   H444    1.111   .     S
C429   H456    1.112   .     S
C429   H457    1.098   .     S
C429   C430    1.542   .     S
C430   H455    1.111   .     S
C430   H454    1.111   .     S
C430   C24     1.525   1_565 S
C431   C434    1.397   .     A
C431   H462    1.068   .     S
C432   H450    1.108   .     S
C432   H453    1.111   .     S
C432   H451    1.111   .     S
C433   C435    1.382   .     A
C433   H463    1.083   .     S
C434   H441    1.083   .     S
C434   C1034   1.389   1_554 S
C435   H452    1.085   .     S
C435   C1035   1.394   .     S
C436   C165    1.345   1_465 S
C436   Cl31    1.775   1_565 S
C438   O473    1.299   .     A
C438   O607    1.295   1_455 S
Cl440  C29     1.776   1_565 S
H442   N466    1.022   .     S
H458   C552    1.084   1_455 S
H459   C483    1.080   .     S
H460   C481    1.083   .     S
H461   C550    1.085   1_455 S
H464   N465    1.029   .     S
N465   N466    1.281   .     D
N465   Zn476   2.022   .     S
N466   Zn475   2.022   .     S
O467   Zn475   1.958   .     S
O467   C477    1.274   .     S
O468   Zn476   1.958   .     S
O468   C556    1.274   1_455 S
O469   Zn476   1.972   .     S
O470   Zn475   1.972   .     S
O471   Zn475   1.959   .     S
O471   C506    1.295   .     S
O472   Zn476   1.959   .     S
O472   C546    1.312   1_455 S
O473   Zn476   1.967   .     S
O474   Zn475   1.967   .     S
C477   C504    1.396   .     S
C477   O537    1.291   .     A
C478   C480    1.483   .     S
C478   O542    1.293   .     A
C478   O608    1.312   .     S
C479   C506    1.464   .     S
C479   C485    1.396   .     A
C479   C483    1.408   .     A
C480   C484    1.398   .     A
C480   C486    1.442   .     A
C481   C490    1.407   .     A
C481   C483    1.407   .     A
C482   C484    1.380   .     A
C482   C491    1.394   .     A
C482   H597    1.085   .     S
C484   H594    1.084   .     S
C485   C487    1.382   .     A
C485   C497    1.522   .     S
C486   C494    1.531   .     S
C486   C489    1.437   .     A
C487   C492    1.405   .     A
C487   C490    1.406   .     A
C488   C505    1.397   .     S
C488   O538    1.290   .     A
C488   O604    1.274   .     S
C489   C491    1.426   .     A
C489   C493    1.439   .     A
C490   C1114   1.389   .     S
C491   C1115   1.394   1_554 S
C492   C501    1.404   .     A
C492   C1105   1.412   .     S
C493   C499    1.419   .     A
C493   C1104   1.412   1_554 S
C494   C495    1.541   .     S
C494   H517    1.103   .     S
C494   H516    1.099   .     S
C495   H514    1.094   .     S
C495   C496    1.520   .     S
C495   H515    1.109   .     S
C496   H513    1.110   .     S
C496   H511    1.109   .     S
C496   H512    1.111   .     S
C497   H524    1.112   .     S
C497   H525    1.098   .     S
C497   C498    1.542   .     S
C498   H523    1.111   .     S
C498   H522    1.111   .     S
C498   C92     1.525   1_565 S
C499   C502    1.397   .     A
C499   H530    1.068   .     S
C500   H518    1.108   .     S
C500   H521    1.111   .     S
C500   H519    1.111   .     S
C501   C503    1.382   .     A
C501   H531    1.083   .     S
C502   H509    1.083   .     S
C502   C1102   1.389   1_554 S
C503   H520    1.085   .     S
C503   C1103   1.394   .     S
C504   C29     1.345   1_565 S
C504   Cl99    1.775   1_565 S
C506   O541    1.299   .     A
Cl508  C97     1.776   1_565 S
H510   N534    1.022   .     S
H527   C551    1.080   .     S
H528   C549    1.083   .     S
H532   N533    1.029   .     S
N533   N534    1.281   .     D
N533   Zn544   2.022   .     S
N534   Zn543   2.022   .     S
O535   Zn543   1.958   .     S
O535   C545    1.274   .     S
O536   Zn544   1.958   .     S
O537   Zn544   1.972   .     S
O538   Zn543   1.972   .     S
O539   Zn543   1.959   .     S
O539   C574    1.295   .     S
O540   Zn544   1.959   .     S
O541   Zn544   1.967   .     S
O542   Zn543   1.967   .     S
C545   C572    1.396   .     S
C545   O605    1.291   .     A
C546   C548    1.483   .     S
C546   O610    1.293   .     A
C546   O472    1.312   1_655 S
C547   C574    1.464   .     S
C547   C553    1.396   .     A
C547   C551    1.408   .     A
C548   C552    1.398   .     A
C548   C554    1.442   .     A
C549   C558    1.407   .     A
C549   C551    1.407   .     A
C550   C552    1.380   .     A
C550   C559    1.394   .     A
C550   H461    1.085   1_655 S
C552   H458    1.084   1_655 S
C553   C555    1.382   .     A
C553   C565    1.522   .     S
C554   C562    1.531   .     S
C554   C557    1.437   .     A
C555   C560    1.405   .     A
C555   C558    1.406   .     A
C556   C573    1.397   .     S
C556   O606    1.290   .     A
C556   O468    1.274   1_655 S
C557   C559    1.426   .     A
C557   C561    1.439   .     A
C558   C1182   1.389   .     S
C559   C1183   1.394   1_554 S
C560   C569    1.404   .     A
C560   C1173   1.412   .     S
C561   C567    1.419   .     A
C561   C1172   1.412   1_554 S
C562   C563    1.541   .     S
C562   H585    1.103   .     S
C562   H584    1.099   .     S
C563   H582    1.094   .     S
C563   C564    1.520   .     S
C563   H583    1.109   .     S
C564   H581    1.110   .     S
C564   H579    1.109   .     S
C564   H580    1.111   .     S
C565   H592    1.112   .     S
C565   H593    1.098   .     S
C565   C566    1.542   .     S
C566   H591    1.111   .     S
C566   H590    1.111   .     S
C566   C160    1.525   1_565 S
C567   C570    1.397   .     A
C567   H598    1.068   .     S
C568   H586    1.108   .     S
C568   H589    1.111   .     S
C568   H587    1.111   .     S
C569   C571    1.382   .     A
C569   H599    1.083   .     S
C570   H577    1.083   .     S
C570   C1170   1.389   1_554 S
C571   H588    1.085   .     S
C571   C1171   1.394   .     S
C572   C97     1.345   1_565 S
C572   Cl167   1.775   1_565 S
C573   C232    1.345   1_655 S
C574   O609    1.299   .     A
Cl576  C165    1.776   1_565 S
H578   N602    1.022   .     S
H595   C415    1.080   1_655 S
H596   C413    1.083   1_655 S
H600   N601    1.029   .     S
N601   N602    1.281   .     D
N601   Zn612   2.022   .     S
N602   Zn611   2.022   .     S
O603   Zn611   1.958   .     S
O603   C409    1.274   1_655 S
O604   Zn612   1.958   .     S
O605   Zn612   1.972   .     S
O606   Zn611   1.972   .     S
O607   Zn611   1.959   .     S
O607   C438    1.295   1_655 S
O608   Zn612   1.959   .     S
O609   Zn612   1.967   .     S
O610   Zn611   1.967   .     S
C613   C640    1.396   .     S
C613   O673    1.291   .     A
C613   O807    1.274   1_455 S
C614   C616    1.483   .     S
C614   O678    1.293   .     A
C614   O744    1.312   .     S
C615   C642    1.464   .     S
C615   C621    1.396   .     A
C615   C619    1.408   .     A
C616   C620    1.398   .     A
C616   C622    1.442   .     A
C617   C626    1.407   .     A
C617   C619    1.407   .     A
C617   H800    1.083   1_455 S
C618   C620    1.380   .     A
C618   C627    1.394   .     A
C618   H733    1.085   .     S
C619   H799    1.080   1_455 S
C620   H730    1.084   .     S
C621   C623    1.382   .     A
C621   C633    1.522   .     S
C622   C630    1.531   .     S
C622   C625    1.437   .     A
C623   C628    1.405   .     A
C623   C626    1.406   .     A
C624   C641    1.397   .     S
C624   O674    1.290   .     A
C624   O740    1.274   .     S
C625   C627    1.426   .     A
C625   C629    1.439   .     A
C626   C26     1.389   1_556 S
C628   C637    1.404   .     A
C628   C17     1.412   1_556 S
C629   C635    1.419   .     A
C630   C631    1.541   .     S
C630   H653    1.103   .     S
C630   H652    1.099   .     S
C631   H650    1.094   .     S
C631   C632    1.520   .     S
C631   H651    1.109   .     S
C632   H649    1.110   .     S
C632   H647    1.109   .     S
C632   H648    1.111   .     S
C633   H660    1.112   .     S
C633   H661    1.098   .     S
C633   C634    1.542   .     S
C634   H659    1.111   .     S
C634   H658    1.111   .     S
C634   C840    1.525   .     S
C635   C638    1.397   .     A
C635   H666    1.068   .     S
C636   H654    1.108   .     S
C636   H657    1.111   .     S
C636   H655    1.111   .     S
C636   C1042   1.525   1_545 S
C637   C639    1.382   .     A
C637   H667    1.083   .     S
C638   H645    1.083   .     S
C639   H656    1.085   .     S
C639   C15     1.394   1_556 S
C640   C981    1.345   1_455 S
C640   Cl847   1.775   .     S
C641   C1116   1.345   1_545 S
C641   Cl1052  1.776   1_545 S
C642   O677    1.299   .     A
C642   O811    1.295   1_455 S
Cl643  C1048   1.775   1_545 S
Cl644  C845    1.776   .     S
H646   N670    1.022   .     S
H662   C756    1.084   1_455 S
H663   C687    1.080   .     S
H664   C685    1.083   .     S
H665   C754    1.085   1_455 S
H668   N669    1.029   .     S
N669   N670    1.281   .     D
N669   Zn680   2.022   .     S
N670   Zn679   2.022   .     S
O671   Zn679   1.958   .     S
O671   C681    1.274   .     S
O672   Zn680   1.958   .     S
O672   C760    1.274   1_455 S
O673   Zn680   1.972   .     S
O674   Zn679   1.972   .     S
O675   Zn679   1.959   .     S
O675   C710    1.295   .     S
O676   Zn680   1.959   .     S
O676   C750    1.312   1_455 S
O677   Zn680   1.967   .     S
O678   Zn679   1.967   .     S
C681   C708    1.396   .     S
C681   O741    1.291   .     A
C682   C684    1.483   .     S
C682   O746    1.293   .     A
C682   O812    1.312   .     S
C683   C710    1.464   .     S
C683   C689    1.396   .     A
C683   C687    1.408   .     A
C684   C688    1.398   .     A
C684   C690    1.442   .     A
C685   C694    1.407   .     A
C685   C687    1.407   .     A
C686   C688    1.380   .     A
C686   C695    1.394   .     A
C686   H801    1.085   .     S
C688   H798    1.084   .     S
C689   C691    1.382   .     A
C689   C701    1.522   .     S
C690   C698    1.531   .     S
C690   C693    1.437   .     A
C691   C696    1.405   .     A
C691   C694    1.406   .     A
C692   C709    1.397   .     S
C692   O742    1.290   .     A
C692   O808    1.274   .     S
C693   C695    1.426   .     A
C693   C697    1.439   .     A
C694   C94     1.389   1_556 S
C696   C705    1.404   .     A
C696   C85     1.412   1_556 S
C697   C703    1.419   .     A
C698   C699    1.541   .     S
C698   H721    1.103   .     S
C698   H720    1.099   .     S
C699   H718    1.094   .     S
C699   C700    1.520   .     S
C699   H719    1.109   .     S
C700   H717    1.110   .     S
C700   H715    1.109   .     S
C700   H716    1.111   .     S
C701   H728    1.112   .     S
C701   H729    1.098   .     S
C701   C702    1.542   .     S
C702   H727    1.111   .     S
C702   H726    1.111   .     S
C702   C908    1.525   .     S
C703   C706    1.397   .     A
C703   H734    1.068   .     S
C704   H722    1.108   .     S
C704   H725    1.111   .     S
C704   H723    1.111   .     S
C704   C1110   1.525   1_545 S
C705   C707    1.382   .     A
C705   H735    1.083   .     S
C706   H713    1.083   .     S
C707   H724    1.085   .     S
C707   C83     1.394   1_556 S
C708   C845    1.345   .     S
C708   Cl915   1.775   .     S
C709   C1184   1.345   1_545 S
C709   Cl1120  1.776   1_545 S
C710   O745    1.299   .     A
Cl711  C1116   1.775   1_545 S
Cl712  C913    1.776   .     S
H714   N738    1.022   .     S
H731   C755    1.080   .     S
H732   C753    1.083   .     S
H736   N737    1.029   .     S
N737   N738    1.281   .     D
N737   Zn748   2.022   .     S
N738   Zn747   2.022   .     S
O739   Zn747   1.958   .     S
O739   C749    1.274   .     S
O740   Zn748   1.958   .     S
O741   Zn748   1.972   .     S
O742   Zn747   1.972   .     S
O743   Zn747   1.959   .     S
O743   C778    1.295   .     S
O744   Zn748   1.959   .     S
O745   Zn748   1.967   .     S
O746   Zn747   1.967   .     S
C749   C776    1.396   .     S
C749   O809    1.291   .     A
C750   C752    1.483   .     S
C750   O814    1.293   .     A
C750   O676    1.312   1_655 S
C751   C778    1.464   .     S
C751   C757    1.396   .     A
C751   C755    1.408   .     A
C752   C756    1.398   .     A
C752   C758    1.442   .     A
C753   C762    1.407   .     A
C753   C755    1.407   .     A
C754   C756    1.380   .     A
C754   C763    1.394   .     A
C754   H665    1.085   1_655 S
C756   H662    1.084   1_655 S
C757   C759    1.382   .     A
C757   C769    1.522   .     S
C758   C766    1.531   .     S
C758   C761    1.437   .     A
C759   C764    1.405   .     A
C759   C762    1.406   .     A
C760   C777    1.397   .     S
C760   O810    1.290   .     A
C760   O672    1.274   1_655 S
C761   C763    1.426   .     A
C761   C765    1.439   .     A
C762   C162    1.389   1_556 S
C764   C773    1.404   .     A
C764   C153    1.412   1_556 S
C765   C771    1.419   .     A
C766   C767    1.541   .     S
C766   H789    1.103   .     S
C766   H788    1.099   .     S
C767   H786    1.094   .     S
C767   C768    1.520   .     S
C767   H787    1.109   .     S
C768   H785    1.110   .     S
C768   H783    1.109   .     S
C768   H784    1.111   .     S
C769   H796    1.112   .     S
C769   H797    1.098   .     S
C769   C770    1.542   .     S
C770   H795    1.111   .     S
C770   H794    1.111   .     S
C770   C976    1.525   .     S
C771   C774    1.397   .     A
C771   H802    1.068   .     S
C772   H790    1.108   .     S
C772   H793    1.111   .     S
C772   H791    1.111   .     S
C772   C1178   1.525   1_545 S
C773   C775    1.382   .     A
C773   H803    1.083   .     S
C774   H781    1.083   .     S
C775   H792    1.085   .     S
C775   C151    1.394   1_556 S
C776   C913    1.345   .     S
C776   Cl983   1.775   .     S
C777   C1048   1.345   1_645 S
C777   Cl1188  1.776   1_545 S
C778   O813    1.299   .     A
Cl779  C1184   1.775   1_545 S
Cl780  C981    1.776   .     S
H782   N806    1.022   .     S
H799   C619    1.080   1_655 S
H800   C617    1.083   1_655 S
H804   N805    1.029   .     S
N805   N806    1.281   .     D
N805   Zn816   2.022   .     S
N806   Zn815   2.022   .     S
O807   Zn815   1.958   .     S
O807   C613    1.274   1_655 S
O808   Zn816   1.958   .     S
O809   Zn816   1.972   .     S
O810   Zn815   1.972   .     S
O811   Zn815   1.959   .     S
O811   C642    1.295   1_655 S
O812   Zn816   1.959   .     S
O813   Zn816   1.967   .     S
O814   Zn815   1.967   .     S
C817   C844    1.396   .     S
C817   O877    1.291   .     A
C817   O1011   1.274   1_455 S
C818   C820    1.483   .     S
C818   O882    1.293   .     A
C818   O948    1.312   .     S
C819   C846    1.464   .     S
C819   C825    1.396   .     A
C819   C823    1.408   .     A
C820   C824    1.398   .     A
C820   C826    1.442   .     A
C821   C830    1.407   .     A
C821   C823    1.407   .     A
C821   H1004   1.083   1_455 S
C822   C824    1.380   .     A
C822   C831    1.394   .     A
C822   H937    1.085   .     S
C823   H1003   1.080   1_455 S
C824   H934    1.084   .     S
C825   C827    1.382   .     A
C825   C837    1.522   .     S
C826   C834    1.531   .     S
C826   C829    1.437   .     A
C827   C832    1.405   .     A
C827   C830    1.406   .     A
C828   C845    1.397   .     S
C828   O878    1.290   .     A
C828   O944    1.274   .     S
C829   C831    1.426   .     A
C829   C833    1.439   .     A
C830   C230    1.389   1_556 S
C832   C841    1.404   .     A
C832   C221    1.412   1_556 S
C833   C839    1.419   .     A
C834   C835    1.541   .     S
C834   H857    1.103   .     S
C834   H856    1.099   .     S
C835   H854    1.094   .     S
C835   C836    1.520   .     S
C835   H855    1.109   .     S
C836   H853    1.110   .     S
C836   H851    1.109   .     S
C836   H852    1.111   .     S
C837   H864    1.112   .     S
C837   H865    1.098   .     S
C837   C838    1.542   .     S
C838   H863    1.111   .     S
C838   H862    1.111   .     S
C838   C1044   1.525   .     S
C839   C842    1.397   .     A
C839   H870    1.068   .     S
C840   H858    1.108   .     S
C840   H861    1.111   .     S
C840   H859    1.111   .     S
C841   C843    1.382   .     A
C841   H871    1.083   .     S
C842   H849    1.083   .     S
C843   H860    1.085   .     S
C843   C219    1.394   1_556 S
C844   C1185   1.345   1_455 S
C844   Cl1051  1.775   .     S
C846   O881    1.299   .     A
C846   O1015   1.295   1_455 S
Cl848  C1049   1.776   .     S
H850   N874    1.022   .     S
H866   C960    1.084   1_455 S
H867   C891    1.080   .     S
H868   C889    1.083   .     S
H869   C958    1.085   1_455 S
H872   N873    1.029   .     S
N873   N874    1.281   .     D
N873   Zn884   2.022   .     S
N874   Zn883   2.022   .     S
O875   Zn883   1.958   .     S
O875   C885    1.274   .     S
O876   Zn884   1.958   .     S
O876   C964    1.274   1_455 S
O877   Zn884   1.972   .     S
O878   Zn883   1.972   .     S
O879   Zn883   1.959   .     S
O879   C914    1.295   .     S
O880   Zn884   1.959   .     S
O880   C954    1.312   1_455 S
O881   Zn884   1.967   .     S
O882   Zn883   1.967   .     S
C885   C912    1.396   .     S
C885   O945    1.291   .     A
C886   C888    1.483   .     S
C886   O950    1.293   .     A
C886   O1016   1.312   .     S
C887   C914    1.464   .     S
C887   C893    1.396   .     A
C887   C891    1.408   .     A
C888   C892    1.398   .     A
C888   C894    1.442   .     A
C889   C898    1.407   .     A
C889   C891    1.407   .     A
C890   C892    1.380   .     A
C890   C899    1.394   .     A
C890   H1005   1.085   .     S
C892   H1002   1.084   .     S
C893   C895    1.382   .     A
C893   C905    1.522   .     S
C894   C902    1.531   .     S
C894   C897    1.437   .     A
C895   C900    1.405   .     A
C895   C898    1.406   .     A
C896   C913    1.397   .     S
C896   O946    1.290   .     A
C896   O1012   1.274   .     S
C897   C899    1.426   .     A
C897   C901    1.439   .     A
C898   C298    1.389   1_556 S
C900   C909    1.404   .     A
C900   C289    1.412   1_556 S
C901   C907    1.419   .     A
C902   C903    1.541   .     S
C902   H925    1.103   .     S
C902   H924    1.099   .     S
C903   H922    1.094   .     S
C903   C904    1.520   .     S
C903   H923    1.109   .     S
C904   H921    1.110   .     S
C904   H919    1.109   .     S
C904   H920    1.111   .     S
C905   H932    1.112   .     S
C905   H933    1.098   .     S
C905   C906    1.542   .     S
C906   H931    1.111   .     S
C906   H930    1.111   .     S
C906   C1112   1.525   .     S
C907   C910    1.397   .     A
C907   H938    1.068   .     S
C908   H926    1.108   .     S
C908   H929    1.111   .     S
C908   H927    1.111   .     S
C909   C911    1.382   .     A
C909   H939    1.083   .     S
C910   H917    1.083   .     S
C911   H928    1.085   .     S
C911   C287    1.394   1_556 S
C912   C1049   1.345   .     S
C912   Cl1119  1.775   .     S
C914   O949    1.299   .     A
Cl916  C1117   1.776   .     S
H918   N942    1.022   .     S
H935   C959    1.080   .     S
H936   C957    1.083   .     S
H940   N941    1.029   .     S
N941   N942    1.281   .     D
N941   Zn952   2.022   .     S
N942   Zn951   2.022   .     S
O943   Zn951   1.958   .     S
O943   C953    1.274   .     S
O944   Zn952   1.958   .     S
O945   Zn952   1.972   .     S
O946   Zn951   1.972   .     S
O947   Zn951   1.959   .     S
O947   C982    1.295   .     S
O948   Zn952   1.959   .     S
O949   Zn952   1.967   .     S
O950   Zn951   1.967   .     S
C953   C980    1.396   .     S
C953   O1013   1.291   .     A
C954   C956    1.483   .     S
C954   O1018   1.293   .     A
C954   O880    1.312   1_655 S
C955   C982    1.464   .     S
C955   C961    1.396   .     A
C955   C959    1.408   .     A
C956   C960    1.398   .     A
C956   C962    1.442   .     A
C957   C966    1.407   .     A
C957   C959    1.407   .     A
C958   C960    1.380   .     A
C958   C967    1.394   .     A
C958   H869    1.085   1_655 S
C960   H866    1.084   1_655 S
C961   C963    1.382   .     A
C961   C973    1.522   .     S
C962   C970    1.531   .     S
C962   C965    1.437   .     A
C963   C968    1.405   .     A
C963   C966    1.406   .     A
C964   C981    1.397   .     S
C964   O1014   1.290   .     A
C964   O876    1.274   1_655 S
C965   C967    1.426   .     A
C965   C969    1.439   .     A
C966   C366    1.389   1_556 S
C968   C977    1.404   .     A
C968   C357    1.412   1_556 S
C969   C975    1.419   .     A
C970   C971    1.541   .     S
C970   H993    1.103   .     S
C970   H992    1.099   .     S
C971   H990    1.094   .     S
C971   C972    1.520   .     S
C971   H991    1.109   .     S
C972   H989    1.110   .     S
C972   H987    1.109   .     S
C972   H988    1.111   .     S
C973   H1000   1.112   .     S
C973   H1001   1.098   .     S
C973   C974    1.542   .     S
C974   H999    1.111   .     S
C974   H998    1.111   .     S
C974   C1180   1.525   .     S
C975   C978    1.397   .     A
C975   H1006   1.068   .     S
C976   H994    1.108   .     S
C976   H997    1.111   .     S
C976   H995    1.111   .     S
C977   C979    1.382   .     A
C977   H1007   1.083   .     S
C978   H985    1.083   .     S
C979   H996    1.085   .     S
C979   C355    1.394   1_556 S
C980   C1117   1.345   .     S
C980   Cl1187  1.775   .     S
C981   C640    1.345   1_655 S
C982   O1017   1.299   .     A
Cl984  C1185   1.776   .     S
H986   N1010   1.022   .     S
H1003  C823    1.080   1_655 S
H1004  C821    1.083   1_655 S
H1008  N1009   1.029   .     S
N1009  N1010   1.281   .     D
N1009  Zn1020  2.022   .     S
N1010  Zn1019  2.022   .     S
O1011  Zn1019  1.958   .     S
O1011  C817    1.274   1_655 S
O1012  Zn1020  1.958   .     S
O1013  Zn1020  1.972   .     S
O1014  Zn1019  1.972   .     S
O1015  Zn1019  1.959   .     S
O1015  C846    1.295   1_655 S
O1016  Zn1020  1.959   .     S
O1017  Zn1020  1.967   .     S
O1018  Zn1019  1.967   .     S
C1021  C1048   1.396   .     S
C1021  O1081   1.291   .     A
C1021  O1215   1.274   1_455 S
C1022  C1024   1.483   .     S
C1022  O1086   1.293   .     A
C1022  O1152   1.312   .     S
C1023  C1050   1.464   .     S
C1023  C1029   1.396   .     A
C1023  C1027   1.408   .     A
C1024  C1028   1.398   .     A
C1024  C1030   1.442   .     A
C1025  C1034   1.407   .     A
C1025  C1027   1.407   .     A
C1025  H1208   1.083   1_455 S
C1026  C1028   1.380   .     A
C1026  C1035   1.394   .     A
C1026  H1141   1.085   .     S
C1027  H1207   1.080   1_455 S
C1028  H1138   1.084   .     S
C1029  C1031   1.382   .     A
C1029  C1041   1.522   .     S
C1030  C1038   1.531   .     S
C1030  C1033   1.437   .     A
C1031  C1036   1.405   .     A
C1031  C1034   1.406   .     A
C1032  C1049   1.397   .     S
C1032  O1082   1.290   .     A
C1032  O1148   1.274   .     S
C1033  C1035   1.426   .     A
C1033  C1037   1.439   .     A
C1034  C434    1.389   1_556 S
C1036  C1045   1.404   .     A
C1036  C425    1.412   1_556 S
C1037  C1043   1.419   .     A
C1038  C1039   1.541   .     S
C1038  H1061   1.103   .     S
C1038  H1060   1.099   .     S
C1039  H1058   1.094   .     S
C1039  C1040   1.520   .     S
C1039  H1059   1.109   .     S
C1040  H1057   1.110   .     S
C1040  H1055   1.109   .     S
C1040  H1056   1.111   .     S
C1041  H1068   1.112   .     S
C1041  H1069   1.098   .     S
C1041  C1042   1.542   .     S
C1042  H1067   1.111   .     S
C1042  H1066   1.111   .     S
C1042  C636    1.525   1_565 S
C1043  C1046   1.397   .     A
C1043  H1074   1.068   .     S
C1044  H1062   1.108   .     S
C1044  H1065   1.111   .     S
C1044  H1063   1.111   .     S
C1045  C1047   1.382   .     A
C1045  H1075   1.083   .     S
C1046  H1053   1.083   .     S
C1047  H1064   1.085   .     S
C1047  C423    1.394   1_556 S
C1048  C777    1.345   1_465 S
C1048  Cl643   1.775   1_565 S
C1050  O1085   1.299   .     A
C1050  O1219   1.295   1_455 S
Cl1052 C641    1.776   1_565 S
H1054  N1078   1.022   .     S
H1070  C1164   1.084   1_455 S
H1071  C1095   1.080   .     S
H1072  C1093   1.083   .     S
H1073  C1162   1.085   1_455 S
H1076  N1077   1.029   .     S
N1077  N1078   1.281   .     D
N1077  Zn1088  2.022   .     S
N1078  Zn1087  2.022   .     S
O1079  Zn1087  1.958   .     S
O1079  C1089   1.274   .     S
O1080  Zn1088  1.958   .     S
O1080  C1168   1.274   1_455 S
O1081  Zn1088  1.972   .     S
O1082  Zn1087  1.972   .     S
O1083  Zn1087  1.959   .     S
O1083  C1118   1.295   .     S
O1084  Zn1088  1.959   .     S
O1084  C1158   1.312   1_455 S
O1085  Zn1088  1.967   .     S
O1086  Zn1087  1.967   .     S
C1089  C1116   1.396   .     S
C1089  O1149   1.291   .     A
C1090  C1092   1.483   .     S
C1090  O1154   1.293   .     A
C1090  O1220   1.312   .     S
C1091  C1118   1.464   .     S
C1091  C1097   1.396   .     A
C1091  C1095   1.408   .     A
C1092  C1096   1.398   .     A
C1092  C1098   1.442   .     A
C1093  C1102   1.407   .     A
C1093  C1095   1.407   .     A
C1094  C1096   1.380   .     A
C1094  C1103   1.394   .     A
C1094  H1209   1.085   .     S
C1096  H1206   1.084   .     S
C1097  C1099   1.382   .     A
C1097  C1109   1.522   .     S
C1098  C1106   1.531   .     S
C1098  C1101   1.437   .     A
C1099  C1104   1.405   .     A
C1099  C1102   1.406   .     A
C1100  C1117   1.397   .     S
C1100  O1150   1.290   .     A
C1100  O1216   1.274   .     S
C1101  C1103   1.426   .     A
C1101  C1105   1.439   .     A
C1102  C502    1.389   1_556 S
C1104  C1113   1.404   .     A
C1104  C493    1.412   1_556 S
C1105  C1111   1.419   .     A
C1106  C1107   1.541   .     S
C1106  H1129   1.103   .     S
C1106  H1128   1.099   .     S
C1107  H1126   1.094   .     S
C1107  C1108   1.520   .     S
C1107  H1127   1.109   .     S
C1108  H1125   1.110   .     S
C1108  H1123   1.109   .     S
C1108  H1124   1.111   .     S
C1109  H1136   1.112   .     S
C1109  H1137   1.098   .     S
C1109  C1110   1.542   .     S
C1110  H1135   1.111   .     S
C1110  H1134   1.111   .     S
C1110  C704    1.525   1_565 S
C1111  C1114   1.397   .     A
C1111  H1142   1.068   .     S
C1112  H1130   1.108   .     S
C1112  H1133   1.111   .     S
C1112  H1131   1.111   .     S
C1113  C1115   1.382   .     A
C1113  H1143   1.083   .     S
C1114  H1121   1.083   .     S
C1115  H1132   1.085   .     S
C1115  C491    1.394   1_556 S
C1116  C641    1.345   1_565 S
C1116  Cl711   1.775   1_565 S
C1118  O1153   1.299   .     A
Cl1120 C709    1.776   1_565 S
H1122  N1146   1.022   .     S
H1139  C1163   1.080   .     S
H1140  C1161   1.083   .     S
H1144  N1145   1.029   .     S
N1145  N1146   1.281   .     D
N1145  Zn1156  2.022   .     S
N1146  Zn1155  2.022   .     S
O1147  Zn1155  1.958   .     S
O1147  C1157   1.274   .     S
O1148  Zn1156  1.958   .     S
O1149  Zn1156  1.972   .     S
O1150  Zn1155  1.972   .     S
O1151  Zn1155  1.959   .     S
O1151  C1186   1.295   .     S
O1152  Zn1156  1.959   .     S
O1153  Zn1156  1.967   .     S
O1154  Zn1155  1.967   .     S
C1157  C1184   1.396   .     S
C1157  O1217   1.291   .     A
C1158  C1160   1.483   .     S
C1158  O1222   1.293   .     A
C1158  O1084   1.312   1_655 S
C1159  C1186   1.464   .     S
C1159  C1165   1.396   .     A
C1159  C1163   1.408   .     A
C1160  C1164   1.398   .     A
C1160  C1166   1.442   .     A
C1161  C1170   1.407   .     A
C1161  C1163   1.407   .     A
C1162  C1164   1.380   .     A
C1162  C1171   1.394   .     A
C1162  H1073   1.085   1_655 S
C1164  H1070   1.084   1_655 S
C1165  C1167   1.382   .     A
C1165  C1177   1.522   .     S
C1166  C1174   1.531   .     S
C1166  C1169   1.437   .     A
C1167  C1172   1.405   .     A
C1167  C1170   1.406   .     A
C1168  C1185   1.397   .     S
C1168  O1218   1.290   .     A
C1168  O1080   1.274   1_655 S
C1169  C1171   1.426   .     A
C1169  C1173   1.439   .     A
C1170  C570    1.389   1_556 S
C1172  C1181   1.404   .     A
C1172  C561    1.412   1_556 S
C1173  C1179   1.419   .     A
C1174  C1175   1.541   .     S
C1174  H1197   1.103   .     S
C1174  H1196   1.099   .     S
C1175  H1194   1.094   .     S
C1175  C1176   1.520   .     S
C1175  H1195   1.109   .     S
C1176  H1193   1.110   .     S
C1176  H1191   1.109   .     S
C1176  H1192   1.111   .     S
C1177  H1204   1.112   .     S
C1177  H1205   1.098   .     S
C1177  C1178   1.542   .     S
C1178  H1203   1.111   .     S
C1178  H1202   1.111   .     S
C1178  C772    1.525   1_565 S
C1179  C1182   1.397   .     A
C1179  H1210   1.068   .     S
C1180  H1198   1.108   .     S
C1180  H1201   1.111   .     S
C1180  H1199   1.111   .     S
C1181  C1183   1.382   .     A
C1181  H1211   1.083   .     S
C1182  H1189   1.083   .     S
C1183  H1200   1.085   .     S
C1183  C559    1.394   1_556 S
C1184  C709    1.345   1_565 S
C1184  Cl779   1.775   1_565 S
C1185  C844    1.345   1_655 S
C1186  O1221   1.299   .     A
Cl1188 C777    1.776   1_565 S
H1190  N1214   1.022   .     S
H1207  C1027   1.080   1_655 S
H1208  C1025   1.083   1_655 S
H1212  N1213   1.029   .     S
N1213  N1214   1.281   .     D
N1213  Zn1224  2.022   .     S
N1214  Zn1223  2.022   .     S
O1215  Zn1223  1.958   .     S
O1215  C1021   1.274   1_655 S
O1216  Zn1224  1.958   .     S
O1217  Zn1224  1.972   .     S
O1218  Zn1223  1.972   .     S
O1219  Zn1223  1.959   .     S
O1219  C1050   1.295   1_655 S
O1220  Zn1224  1.959   .     S
O1221  Zn1224  1.967   .     S
O1222  Zn1223  1.967   .     S
