data_str_m2_o1_o10_pcu_sym.41
_audit_creation_date              2020-01-03
_audit_creation_method            'Materials Studio'
_symmetry_space_group_name_H-M    'P1'
_symmetry_Int_Tables_number       1
_symmetry_cell_setting            triclinic
loop_
_symmetry_equiv_pos_as_xyz
  x,y,z
_cell_length_a                    26.7281
_cell_length_b                    32.6988
_cell_length_c                    28.9218
_cell_angle_alpha                 90.8187
_cell_angle_beta                  98.1896
_cell_angle_gamma                 95.3248
loop_
_atom_site_label
_atom_site_type_symbol
_atom_site_fract_x
_atom_site_fract_y
_atom_site_fract_z
_atom_site_U_iso_or_equiv
_atom_site_adp_type
_atom_site_occupancy
C1     C     0.16844   0.08762   0.16647   0.00000  Uiso   1.00
C2     C     0.15514   0.02182   0.20455   0.00000  Uiso   1.00
C3     C     0.16402   0.29035   0.16733   0.00000  Uiso   1.00
C4     C     0.16932   0.04298   0.16600   0.00000  Uiso   1.00
C5     C     0.13494   0.13871   0.01999   0.00000  Uiso   1.00
C6     C     0.19839   0.19463   0.31335   0.00000  Uiso   1.00
C7     C     0.13446   0.13901   0.30390   0.00000  Uiso   1.00
C8     C     0.19887   0.19432   0.02943   0.00000  Uiso   1.00
C9     C     0.16490   0.24572   0.16687   0.00000  Uiso   1.00
C10    C     0.06815   0.16645   0.15479   0.00000  Uiso   1.00
C11    C     0.26518   0.16688   0.17855   0.00000  Uiso   1.00
C12    C     0.01297   0.16263   0.14865   0.00000  Uiso   1.00
C13    C     0.32036   0.17070   0.18468   0.00000  Uiso   1.00
C14    C     0.18216   0.02064   0.12800   0.00000  Uiso   1.00
C15    C     0.15118   0.31269   0.20533   0.00000  Uiso   1.00
C16    C     0.17819   0.31152   0.12879   0.00000  Uiso   1.00
Cu17   Cu    0.16667   0.16667   0.21355   0.00000  Uiso   1.00
Cu18   Cu    0.16667   0.16666   0.11978   0.00000  Uiso   1.00
H19    H     0.18712   0.29515   0.09890   0.00000  Uiso   1.00
H20    H     0.14621   0.03818   0.23444   0.00000  Uiso   1.00
I21    I     0.31278   0.13797   0.08081   0.00000  Uiso   1.00
I22    I     0.02055   0.19536   0.25253   0.00000  Uiso   1.00
I23    I     0.21288   0.04560   0.06945   0.00000  Uiso   1.00
I24    I     0.12045   0.28773   0.26389   0.00000  Uiso   1.00
I25    I     0.08640   0.09207   0.04714   0.00000  Uiso   1.00
I26    I     0.24693   0.24126   0.28619   0.00000  Uiso   1.00
I27    I     0.08043   0.09601   0.26148   0.00000  Uiso   1.00
I28    I     0.25291   0.23732   0.07185   0.00000  Uiso   1.00
N29    N     0.16668   0.16668   0.28403   0.00000  Uiso   1.00
N30    N     0.16665   0.16666   0.04931   0.00000  Uiso   1.00
O31    O     0.16666   0.10655   0.20625   0.00000  Uiso   1.00
O32    O     0.16667   0.22678   0.12709   0.00000  Uiso   1.00
O33    O     0.16666   0.10654   0.12706   0.00000  Uiso   1.00
O34    O     0.16667   0.22679   0.20628   0.00000  Uiso   1.00
O35    O     0.09161   0.16667   0.19712   0.00000  Uiso   1.00
O36    O     0.24172   0.16666   0.13621   0.00000  Uiso   1.00
O37    O     0.09161   0.16666   0.11793   0.00000  Uiso   1.00
O38    O     0.24172   0.16667   0.21540   0.00000  Uiso   1.00
C39    C     0.50177   0.08762   0.16647   0.00000  Uiso   1.00
C40    C     0.48848   0.02182   0.20455   0.00000  Uiso   1.00
C41    C     0.49735   0.29035   0.16733   0.00000  Uiso   1.00
C42    C     0.50265   0.04298   0.16600   0.00000  Uiso   1.00
C43    C     0.46827   0.13871   0.01999   0.00000  Uiso   1.00
C44    C     0.53173   0.19463   0.31335   0.00000  Uiso   1.00
C45    C     0.46779   0.13901   0.30390   0.00000  Uiso   1.00
C46    C     0.53221   0.19432   0.02943   0.00000  Uiso   1.00
C47    C     0.49823   0.24572   0.16687   0.00000  Uiso   1.00
C48    C     0.40148   0.16645   0.15479   0.00000  Uiso   1.00
C49    C     0.59852   0.16688   0.17855   0.00000  Uiso   1.00
C50    C     0.34631   0.16263   0.14865   0.00000  Uiso   1.00
C51    C     0.65369   0.17070   0.18468   0.00000  Uiso   1.00
C52    C     0.51549   0.02064   0.12800   0.00000  Uiso   1.00
C53    C     0.48451   0.31269   0.20533   0.00000  Uiso   1.00
C54    C     0.51152   0.31152   0.12879   0.00000  Uiso   1.00
Cu55   Cu    0.50000   0.16667   0.21355   0.00000  Uiso   1.00
Cu56   Cu    0.50000   0.16666   0.11978   0.00000  Uiso   1.00
H57    H     0.52045   0.29515   0.09890   0.00000  Uiso   1.00
H58    H     0.47955   0.03818   0.23444   0.00000  Uiso   1.00
I59    I     0.64611   0.13797   0.08081   0.00000  Uiso   1.00
I60    I     0.35389   0.19536   0.25253   0.00000  Uiso   1.00
I61    I     0.54622   0.04560   0.06945   0.00000  Uiso   1.00
I62    I     0.45378   0.28773   0.26389   0.00000  Uiso   1.00
I63    I     0.41973   0.09207   0.04714   0.00000  Uiso   1.00
I64    I     0.58027   0.24126   0.28619   0.00000  Uiso   1.00
I65    I     0.41376   0.09601   0.26148   0.00000  Uiso   1.00
I66    I     0.58624   0.23732   0.07185   0.00000  Uiso   1.00
N67    N     0.50001   0.16668   0.28403   0.00000  Uiso   1.00
N68    N     0.49999   0.16666   0.04931   0.00000  Uiso   1.00
O69    O     0.50000   0.10655   0.20625   0.00000  Uiso   1.00
O70    O     0.50000   0.22678   0.12709   0.00000  Uiso   1.00
O71    O     0.50000   0.10654   0.12706   0.00000  Uiso   1.00
O72    O     0.50000   0.22679   0.20628   0.00000  Uiso   1.00
O73    O     0.42495   0.16667   0.19712   0.00000  Uiso   1.00
O74    O     0.57505   0.16666   0.13621   0.00000  Uiso   1.00
O75    O     0.42494   0.16666   0.11793   0.00000  Uiso   1.00
O76    O     0.57506   0.16667   0.21540   0.00000  Uiso   1.00
C77    C     0.83510   0.08762   0.16647   0.00000  Uiso   1.00
C78    C     0.82181   0.02182   0.20455   0.00000  Uiso   1.00
C79    C     0.83068   0.29035   0.16733   0.00000  Uiso   1.00
C80    C     0.83598   0.04298   0.16600   0.00000  Uiso   1.00
C81    C     0.80161   0.13871   0.01999   0.00000  Uiso   1.00
C82    C     0.86506   0.19463   0.31335   0.00000  Uiso   1.00
C83    C     0.80113   0.13901   0.30390   0.00000  Uiso   1.00
C84    C     0.86554   0.19432   0.02943   0.00000  Uiso   1.00
C85    C     0.83156   0.24572   0.16687   0.00000  Uiso   1.00
C86    C     0.73482   0.16645   0.15479   0.00000  Uiso   1.00
C87    C     0.93185   0.16688   0.17855   0.00000  Uiso   1.00
C88    C     0.67964   0.16263   0.14865   0.00000  Uiso   1.00
C89    C     0.98703   0.17070   0.18468   0.00000  Uiso   1.00
C90    C     0.84882   0.02064   0.12800   0.00000  Uiso   1.00
C91    C     0.81784   0.31269   0.20533   0.00000  Uiso   1.00
C92    C     0.84486   0.31152   0.12879   0.00000  Uiso   1.00
Cu93   Cu    0.83333   0.16667   0.21355   0.00000  Uiso   1.00
Cu94   Cu    0.83333   0.16666   0.11978   0.00000  Uiso   1.00
H95    H     0.85379   0.29515   0.09890   0.00000  Uiso   1.00
H96    H     0.81288   0.03818   0.23444   0.00000  Uiso   1.00
I97    I     0.97945   0.13797   0.08081   0.00000  Uiso   1.00
I98    I     0.68722   0.19536   0.25253   0.00000  Uiso   1.00
I99    I     0.87955   0.04560   0.06945   0.00000  Uiso   1.00
I100   I     0.78712   0.28773   0.26389   0.00000  Uiso   1.00
I101   I     0.75307   0.09207   0.04714   0.00000  Uiso   1.00
I102   I     0.91360   0.24126   0.28619   0.00000  Uiso   1.00
I103   I     0.74709   0.09601   0.26148   0.00000  Uiso   1.00
I104   I     0.91957   0.23732   0.07185   0.00000  Uiso   1.00
N105   N     0.83335   0.16668   0.28403   0.00000  Uiso   1.00
N106   N     0.83332   0.16666   0.04931   0.00000  Uiso   1.00
O107   O     0.83333   0.10655   0.20625   0.00000  Uiso   1.00
O108   O     0.83334   0.22678   0.12709   0.00000  Uiso   1.00
O109   O     0.83333   0.10654   0.12706   0.00000  Uiso   1.00
O110   O     0.83334   0.22679   0.20628   0.00000  Uiso   1.00
O111   O     0.75828   0.16667   0.19712   0.00000  Uiso   1.00
O112   O     0.90839   0.16666   0.13621   0.00000  Uiso   1.00
O113   O     0.75828   0.16666   0.11793   0.00000  Uiso   1.00
O114   O     0.90839   0.16667   0.21540   0.00000  Uiso   1.00
C115   C     0.16844   0.42095   0.16647   0.00000  Uiso   1.00
C116   C     0.15514   0.35515   0.20455   0.00000  Uiso   1.00
C117   C     0.16402   0.62368   0.16733   0.00000  Uiso   1.00
C118   C     0.16932   0.37632   0.16600   0.00000  Uiso   1.00
C119   C     0.13494   0.47204   0.01999   0.00000  Uiso   1.00
C120   C     0.19839   0.52796   0.31335   0.00000  Uiso   1.00
C121   C     0.13446   0.47234   0.30390   0.00000  Uiso   1.00
C122   C     0.19887   0.52766   0.02943   0.00000  Uiso   1.00
C123   C     0.16490   0.57905   0.16687   0.00000  Uiso   1.00
C124   C     0.06815   0.49979   0.15479   0.00000  Uiso   1.00
C125   C     0.26518   0.50021   0.17855   0.00000  Uiso   1.00
C126   C     0.01297   0.49597   0.14865   0.00000  Uiso   1.00
C127   C     0.32036   0.50403   0.18468   0.00000  Uiso   1.00
C128   C     0.18216   0.35397   0.12800   0.00000  Uiso   1.00
C129   C     0.15118   0.64603   0.20533   0.00000  Uiso   1.00
C130   C     0.17819   0.64485   0.12879   0.00000  Uiso   1.00
Cu131  Cu    0.16667   0.50001   0.21355   0.00000  Uiso   1.00
Cu132  Cu    0.16667   0.49999   0.11978   0.00000  Uiso   1.00
H133   H     0.18712   0.62849   0.09890   0.00000  Uiso   1.00
H134   H     0.14621   0.37151   0.23444   0.00000  Uiso   1.00
I135   I     0.31278   0.47130   0.08081   0.00000  Uiso   1.00
I136   I     0.02055   0.52870   0.25253   0.00000  Uiso   1.00
I137   I     0.21288   0.37894   0.06945   0.00000  Uiso   1.00
I138   I     0.12045   0.62106   0.26389   0.00000  Uiso   1.00
I139   I     0.08640   0.42541   0.04714   0.00000  Uiso   1.00
I140   I     0.24693   0.57459   0.28619   0.00000  Uiso   1.00
I141   I     0.08043   0.42934   0.26148   0.00000  Uiso   1.00
I142   I     0.25291   0.57066   0.07185   0.00000  Uiso   1.00
N143   N     0.16668   0.50001   0.28403   0.00000  Uiso   1.00
N144   N     0.16665   0.49999   0.04931   0.00000  Uiso   1.00
O145   O     0.16666   0.43989   0.20625   0.00000  Uiso   1.00
O146   O     0.16667   0.56011   0.12709   0.00000  Uiso   1.00
O147   O     0.16666   0.43988   0.12706   0.00000  Uiso   1.00
O148   O     0.16667   0.56012   0.20628   0.00000  Uiso   1.00
O149   O     0.09161   0.50000   0.19712   0.00000  Uiso   1.00
O150   O     0.24172   0.50000   0.13621   0.00000  Uiso   1.00
O151   O     0.09161   0.49999   0.11793   0.00000  Uiso   1.00
O152   O     0.24172   0.50001   0.21540   0.00000  Uiso   1.00
C153   C     0.50177   0.42095   0.16647   0.00000  Uiso   1.00
C154   C     0.48848   0.35515   0.20455   0.00000  Uiso   1.00
C155   C     0.49735   0.62368   0.16733   0.00000  Uiso   1.00
C156   C     0.50265   0.37632   0.16600   0.00000  Uiso   1.00
C157   C     0.46827   0.47204   0.01999   0.00000  Uiso   1.00
C158   C     0.53173   0.52796   0.31335   0.00000  Uiso   1.00
C159   C     0.46779   0.47234   0.30390   0.00000  Uiso   1.00
C160   C     0.53221   0.52766   0.02943   0.00000  Uiso   1.00
C161   C     0.49823   0.57905   0.16687   0.00000  Uiso   1.00
C162   C     0.40148   0.49979   0.15479   0.00000  Uiso   1.00
C163   C     0.59852   0.50021   0.17855   0.00000  Uiso   1.00
C164   C     0.34631   0.49597   0.14865   0.00000  Uiso   1.00
C165   C     0.65369   0.50403   0.18468   0.00000  Uiso   1.00
C166   C     0.51549   0.35397   0.12800   0.00000  Uiso   1.00
C167   C     0.48451   0.64603   0.20533   0.00000  Uiso   1.00
C168   C     0.51152   0.64485   0.12879   0.00000  Uiso   1.00
Cu169  Cu    0.50000   0.50001   0.21355   0.00000  Uiso   1.00
Cu170  Cu    0.50000   0.49999   0.11978   0.00000  Uiso   1.00
H171   H     0.52045   0.62849   0.09890   0.00000  Uiso   1.00
H172   H     0.47955   0.37151   0.23444   0.00000  Uiso   1.00
I173   I     0.64611   0.47130   0.08081   0.00000  Uiso   1.00
I174   I     0.35389   0.52870   0.25253   0.00000  Uiso   1.00
I175   I     0.54622   0.37894   0.06945   0.00000  Uiso   1.00
I176   I     0.45378   0.62106   0.26389   0.00000  Uiso   1.00
I177   I     0.41973   0.42541   0.04714   0.00000  Uiso   1.00
I178   I     0.58027   0.57459   0.28619   0.00000  Uiso   1.00
I179   I     0.41376   0.42934   0.26148   0.00000  Uiso   1.00
I180   I     0.58624   0.57066   0.07185   0.00000  Uiso   1.00
N181   N     0.50001   0.50001   0.28403   0.00000  Uiso   1.00
N182   N     0.49999   0.49999   0.04931   0.00000  Uiso   1.00
O183   O     0.50000   0.43989   0.20625   0.00000  Uiso   1.00
O184   O     0.50000   0.56011   0.12709   0.00000  Uiso   1.00
O185   O     0.50000   0.43988   0.12706   0.00000  Uiso   1.00
O186   O     0.50000   0.56012   0.20628   0.00000  Uiso   1.00
O187   O     0.42495   0.50000   0.19712   0.00000  Uiso   1.00
O188   O     0.57505   0.50000   0.13621   0.00000  Uiso   1.00
O189   O     0.42494   0.49999   0.11793   0.00000  Uiso   1.00
O190   O     0.57506   0.50001   0.21540   0.00000  Uiso   1.00
C191   C     0.83510   0.42095   0.16647   0.00000  Uiso   1.00
C192   C     0.82181   0.35515   0.20455   0.00000  Uiso   1.00
C193   C     0.83068   0.62368   0.16733   0.00000  Uiso   1.00
C194   C     0.83598   0.37632   0.16600   0.00000  Uiso   1.00
C195   C     0.80161   0.47204   0.01999   0.00000  Uiso   1.00
C196   C     0.86506   0.52796   0.31335   0.00000  Uiso   1.00
C197   C     0.80113   0.47234   0.30390   0.00000  Uiso   1.00
C198   C     0.86554   0.52766   0.02943   0.00000  Uiso   1.00
C199   C     0.83156   0.57905   0.16687   0.00000  Uiso   1.00
C200   C     0.73482   0.49979   0.15479   0.00000  Uiso   1.00
C201   C     0.93185   0.50021   0.17855   0.00000  Uiso   1.00
C202   C     0.67964   0.49597   0.14865   0.00000  Uiso   1.00
C203   C     0.98703   0.50403   0.18468   0.00000  Uiso   1.00
C204   C     0.84882   0.35397   0.12800   0.00000  Uiso   1.00
C205   C     0.81784   0.64603   0.20533   0.00000  Uiso   1.00
C206   C     0.84486   0.64485   0.12879   0.00000  Uiso   1.00
Cu207  Cu    0.83333   0.50001   0.21355   0.00000  Uiso   1.00
Cu208  Cu    0.83333   0.49999   0.11978   0.00000  Uiso   1.00
H209   H     0.85379   0.62849   0.09890   0.00000  Uiso   1.00
H210   H     0.81288   0.37151   0.23444   0.00000  Uiso   1.00
I211   I     0.97945   0.47130   0.08081   0.00000  Uiso   1.00
I212   I     0.68722   0.52870   0.25253   0.00000  Uiso   1.00
I213   I     0.87955   0.37894   0.06945   0.00000  Uiso   1.00
I214   I     0.78712   0.62106   0.26389   0.00000  Uiso   1.00
I215   I     0.75307   0.42541   0.04714   0.00000  Uiso   1.00
I216   I     0.91360   0.57459   0.28619   0.00000  Uiso   1.00
I217   I     0.74709   0.42934   0.26148   0.00000  Uiso   1.00
I218   I     0.91957   0.57066   0.07185   0.00000  Uiso   1.00
N219   N     0.83335   0.50001   0.28403   0.00000  Uiso   1.00
N220   N     0.83332   0.49999   0.04931   0.00000  Uiso   1.00
O221   O     0.83333   0.43989   0.20625   0.00000  Uiso   1.00
O222   O     0.83334   0.56011   0.12709   0.00000  Uiso   1.00
O223   O     0.83333   0.43988   0.12706   0.00000  Uiso   1.00
O224   O     0.83334   0.56012   0.20628   0.00000  Uiso   1.00
O225   O     0.75828   0.50000   0.19712   0.00000  Uiso   1.00
O226   O     0.90839   0.50000   0.13621   0.00000  Uiso   1.00
O227   O     0.75828   0.49999   0.11793   0.00000  Uiso   1.00
O228   O     0.90839   0.50001   0.21540   0.00000  Uiso   1.00
C229   C     0.16844   0.75428   0.16647   0.00000  Uiso   1.00
C230   C     0.15514   0.68848   0.20455   0.00000  Uiso   1.00
C231   C     0.16402   0.95702   0.16733   0.00000  Uiso   1.00
C232   C     0.16932   0.70965   0.16600   0.00000  Uiso   1.00
C233   C     0.13494   0.80537   0.01999   0.00000  Uiso   1.00
C234   C     0.19839   0.86129   0.31335   0.00000  Uiso   1.00
C235   C     0.13446   0.80568   0.30390   0.00000  Uiso   1.00
C236   C     0.19887   0.86099   0.02943   0.00000  Uiso   1.00
C237   C     0.16490   0.91238   0.16687   0.00000  Uiso   1.00
C238   C     0.06815   0.83312   0.15479   0.00000  Uiso   1.00
C239   C     0.26518   0.83355   0.17855   0.00000  Uiso   1.00
C240   C     0.01297   0.82930   0.14865   0.00000  Uiso   1.00
C241   C     0.32036   0.83737   0.18468   0.00000  Uiso   1.00
C242   C     0.18216   0.68731   0.12800   0.00000  Uiso   1.00
C243   C     0.15118   0.97936   0.20533   0.00000  Uiso   1.00
C244   C     0.17819   0.97818   0.12879   0.00000  Uiso   1.00
Cu245  Cu    0.16667   0.83334   0.21355   0.00000  Uiso   1.00
Cu246  Cu    0.16667   0.83333   0.11978   0.00000  Uiso   1.00
H247   H     0.18712   0.96182   0.09890   0.00000  Uiso   1.00
H248   H     0.14621   0.70485   0.23444   0.00000  Uiso   1.00
I249   I     0.31278   0.80464   0.08081   0.00000  Uiso   1.00
I250   I     0.02055   0.86203   0.25253   0.00000  Uiso   1.00
I251   I     0.21288   0.71227   0.06945   0.00000  Uiso   1.00
I252   I     0.12045   0.95440   0.26389   0.00000  Uiso   1.00
I253   I     0.08640   0.75874   0.04714   0.00000  Uiso   1.00
I254   I     0.24693   0.90793   0.28619   0.00000  Uiso   1.00
I255   I     0.08043   0.76268   0.26148   0.00000  Uiso   1.00
I256   I     0.25291   0.90399   0.07185   0.00000  Uiso   1.00
N257   N     0.16668   0.83334   0.28403   0.00000  Uiso   1.00
N258   N     0.16665   0.83332   0.04931   0.00000  Uiso   1.00
O259   O     0.16666   0.77322   0.20625   0.00000  Uiso   1.00
O260   O     0.16667   0.89345   0.12709   0.00000  Uiso   1.00
O261   O     0.16666   0.77321   0.12706   0.00000  Uiso   1.00
O262   O     0.16667   0.89346   0.20628   0.00000  Uiso   1.00
O263   O     0.09161   0.83334   0.19712   0.00000  Uiso   1.00
O264   O     0.24172   0.83333   0.13621   0.00000  Uiso   1.00
O265   O     0.09161   0.83333   0.11793   0.00000  Uiso   1.00
O266   O     0.24172   0.83334   0.21540   0.00000  Uiso   1.00
C267   C     0.50177   0.75428   0.16647   0.00000  Uiso   1.00
C268   C     0.48848   0.68848   0.20455   0.00000  Uiso   1.00
C269   C     0.49735   0.95702   0.16733   0.00000  Uiso   1.00
C270   C     0.50265   0.70965   0.16600   0.00000  Uiso   1.00
C271   C     0.46827   0.80537   0.01999   0.00000  Uiso   1.00
C272   C     0.53173   0.86129   0.31335   0.00000  Uiso   1.00
C273   C     0.46779   0.80568   0.30390   0.00000  Uiso   1.00
C274   C     0.53221   0.86099   0.02943   0.00000  Uiso   1.00
C275   C     0.49823   0.91238   0.16687   0.00000  Uiso   1.00
C276   C     0.40148   0.83312   0.15479   0.00000  Uiso   1.00
C277   C     0.59852   0.83355   0.17855   0.00000  Uiso   1.00
C278   C     0.34631   0.82930   0.14865   0.00000  Uiso   1.00
C279   C     0.65369   0.83737   0.18468   0.00000  Uiso   1.00
C280   C     0.51549   0.68731   0.12800   0.00000  Uiso   1.00
C281   C     0.48451   0.97936   0.20533   0.00000  Uiso   1.00
C282   C     0.51152   0.97818   0.12879   0.00000  Uiso   1.00
Cu283  Cu    0.50000   0.83334   0.21355   0.00000  Uiso   1.00
Cu284  Cu    0.50000   0.83333   0.11978   0.00000  Uiso   1.00
H285   H     0.52045   0.96182   0.09890   0.00000  Uiso   1.00
H286   H     0.47955   0.70485   0.23444   0.00000  Uiso   1.00
I287   I     0.64611   0.80464   0.08081   0.00000  Uiso   1.00
I288   I     0.35389   0.86203   0.25253   0.00000  Uiso   1.00
I289   I     0.54622   0.71227   0.06945   0.00000  Uiso   1.00
I290   I     0.45378   0.95440   0.26389   0.00000  Uiso   1.00
I291   I     0.41973   0.75874   0.04714   0.00000  Uiso   1.00
I292   I     0.58027   0.90793   0.28619   0.00000  Uiso   1.00
I293   I     0.41376   0.76268   0.26148   0.00000  Uiso   1.00
I294   I     0.58624   0.90399   0.07185   0.00000  Uiso   1.00
N295   N     0.50001   0.83334   0.28403   0.00000  Uiso   1.00
N296   N     0.49999   0.83332   0.04931   0.00000  Uiso   1.00
O297   O     0.50000   0.77322   0.20625   0.00000  Uiso   1.00
O298   O     0.50000   0.89345   0.12709   0.00000  Uiso   1.00
O299   O     0.50000   0.77321   0.12706   0.00000  Uiso   1.00
O300   O     0.50000   0.89346   0.20628   0.00000  Uiso   1.00
O301   O     0.42495   0.83334   0.19712   0.00000  Uiso   1.00
O302   O     0.57505   0.83333   0.13621   0.00000  Uiso   1.00
O303   O     0.42494   0.83333   0.11793   0.00000  Uiso   1.00
O304   O     0.57506   0.83334   0.21540   0.00000  Uiso   1.00
C305   C     0.83510   0.75428   0.16647   0.00000  Uiso   1.00
C306   C     0.82181   0.68848   0.20455   0.00000  Uiso   1.00
C307   C     0.83068   0.95702   0.16733   0.00000  Uiso   1.00
C308   C     0.83598   0.70965   0.16600   0.00000  Uiso   1.00
C309   C     0.80161   0.80537   0.01999   0.00000  Uiso   1.00
C310   C     0.86506   0.86129   0.31335   0.00000  Uiso   1.00
C311   C     0.80113   0.80568   0.30390   0.00000  Uiso   1.00
C312   C     0.86554   0.86099   0.02943   0.00000  Uiso   1.00
C313   C     0.83156   0.91238   0.16687   0.00000  Uiso   1.00
C314   C     0.73482   0.83312   0.15479   0.00000  Uiso   1.00
C315   C     0.93185   0.83355   0.17855   0.00000  Uiso   1.00
C316   C     0.67964   0.82930   0.14865   0.00000  Uiso   1.00
C317   C     0.98703   0.83737   0.18468   0.00000  Uiso   1.00
C318   C     0.84882   0.68731   0.12800   0.00000  Uiso   1.00
C319   C     0.81784   0.97936   0.20533   0.00000  Uiso   1.00
C320   C     0.84486   0.97818   0.12879   0.00000  Uiso   1.00
Cu321  Cu    0.83333   0.83334   0.21355   0.00000  Uiso   1.00
Cu322  Cu    0.83333   0.83333   0.11978   0.00000  Uiso   1.00
H323   H     0.85379   0.96182   0.09890   0.00000  Uiso   1.00
H324   H     0.81288   0.70485   0.23444   0.00000  Uiso   1.00
I325   I     0.97945   0.80464   0.08081   0.00000  Uiso   1.00
I326   I     0.68722   0.86203   0.25253   0.00000  Uiso   1.00
I327   I     0.87955   0.71227   0.06945   0.00000  Uiso   1.00
I328   I     0.78712   0.95440   0.26389   0.00000  Uiso   1.00
I329   I     0.75307   0.75874   0.04714   0.00000  Uiso   1.00
I330   I     0.91360   0.90793   0.28619   0.00000  Uiso   1.00
I331   I     0.74709   0.76268   0.26148   0.00000  Uiso   1.00
I332   I     0.91957   0.90399   0.07185   0.00000  Uiso   1.00
N333   N     0.83335   0.83334   0.28403   0.00000  Uiso   1.00
N334   N     0.83332   0.83332   0.04931   0.00000  Uiso   1.00
O335   O     0.83333   0.77322   0.20625   0.00000  Uiso   1.00
O336   O     0.83334   0.89345   0.12709   0.00000  Uiso   1.00
O337   O     0.83333   0.77321   0.12706   0.00000  Uiso   1.00
O338   O     0.83334   0.89346   0.20628   0.00000  Uiso   1.00
O339   O     0.75828   0.83334   0.19712   0.00000  Uiso   1.00
O340   O     0.90839   0.83333   0.13621   0.00000  Uiso   1.00
O341   O     0.75828   0.83333   0.11793   0.00000  Uiso   1.00
O342   O     0.90839   0.83334   0.21540   0.00000  Uiso   1.00
C343   C     0.16844   0.08762   0.49980   0.00000  Uiso   1.00
C344   C     0.15514   0.02182   0.53788   0.00000  Uiso   1.00
C345   C     0.16402   0.29035   0.50067   0.00000  Uiso   1.00
C346   C     0.16932   0.04298   0.49933   0.00000  Uiso   1.00
C347   C     0.13494   0.13871   0.35332   0.00000  Uiso   1.00
C348   C     0.19839   0.19463   0.64668   0.00000  Uiso   1.00
C349   C     0.13446   0.13901   0.63724   0.00000  Uiso   1.00
C350   C     0.19887   0.19432   0.36276   0.00000  Uiso   1.00
C351   C     0.16490   0.24572   0.50020   0.00000  Uiso   1.00
C352   C     0.06815   0.16645   0.48812   0.00000  Uiso   1.00
C353   C     0.26518   0.16688   0.51188   0.00000  Uiso   1.00
C354   C     0.01297   0.16263   0.48198   0.00000  Uiso   1.00
C355   C     0.32036   0.17070   0.51802   0.00000  Uiso   1.00
C356   C     0.18216   0.02064   0.46134   0.00000  Uiso   1.00
C357   C     0.15118   0.31269   0.53866   0.00000  Uiso   1.00
C358   C     0.17819   0.31152   0.46212   0.00000  Uiso   1.00
Cu359  Cu    0.16667   0.16667   0.54689   0.00000  Uiso   1.00
Cu360  Cu    0.16667   0.16666   0.45311   0.00000  Uiso   1.00
H361   H     0.18712   0.29515   0.43223   0.00000  Uiso   1.00
H362   H     0.14621   0.03818   0.56777   0.00000  Uiso   1.00
I363   I     0.31278   0.13797   0.41414   0.00000  Uiso   1.00
I364   I     0.02055   0.19536   0.58586   0.00000  Uiso   1.00
I365   I     0.21288   0.04560   0.40278   0.00000  Uiso   1.00
I366   I     0.12045   0.28773   0.59722   0.00000  Uiso   1.00
I367   I     0.08640   0.09207   0.38047   0.00000  Uiso   1.00
I368   I     0.24693   0.24126   0.61953   0.00000  Uiso   1.00
I369   I     0.08043   0.09601   0.59482   0.00000  Uiso   1.00
I370   I     0.25291   0.23732   0.40518   0.00000  Uiso   1.00
N371   N     0.16668   0.16668   0.61736   0.00000  Uiso   1.00
N372   N     0.16665   0.16666   0.38264   0.00000  Uiso   1.00
O373   O     0.16666   0.10655   0.53958   0.00000  Uiso   1.00
O374   O     0.16667   0.22678   0.46042   0.00000  Uiso   1.00
O375   O     0.16666   0.10654   0.46039   0.00000  Uiso   1.00
O376   O     0.16667   0.22679   0.53961   0.00000  Uiso   1.00
O377   O     0.09161   0.16667   0.53046   0.00000  Uiso   1.00
O378   O     0.24172   0.16666   0.46954   0.00000  Uiso   1.00
O379   O     0.09161   0.16666   0.45127   0.00000  Uiso   1.00
O380   O     0.24172   0.16667   0.54873   0.00000  Uiso   1.00
C381   C     0.50177   0.08762   0.49980   0.00000  Uiso   1.00
C382   C     0.48848   0.02182   0.53788   0.00000  Uiso   1.00
C383   C     0.49735   0.29035   0.50067   0.00000  Uiso   1.00
C384   C     0.50265   0.04298   0.49933   0.00000  Uiso   1.00
C385   C     0.46827   0.13871   0.35332   0.00000  Uiso   1.00
C386   C     0.53173   0.19463   0.64668   0.00000  Uiso   1.00
C387   C     0.46779   0.13901   0.63724   0.00000  Uiso   1.00
C388   C     0.53221   0.19432   0.36276   0.00000  Uiso   1.00
C389   C     0.49823   0.24572   0.50020   0.00000  Uiso   1.00
C390   C     0.40148   0.16645   0.48812   0.00000  Uiso   1.00
C391   C     0.59852   0.16688   0.51188   0.00000  Uiso   1.00
C392   C     0.34631   0.16263   0.48198   0.00000  Uiso   1.00
C393   C     0.65369   0.17070   0.51802   0.00000  Uiso   1.00
C394   C     0.51549   0.02064   0.46134   0.00000  Uiso   1.00
C395   C     0.48451   0.31269   0.53866   0.00000  Uiso   1.00
C396   C     0.51152   0.31152   0.46212   0.00000  Uiso   1.00
Cu397  Cu    0.50000   0.16667   0.54689   0.00000  Uiso   1.00
Cu398  Cu    0.50000   0.16666   0.45311   0.00000  Uiso   1.00
H399   H     0.52045   0.29515   0.43223   0.00000  Uiso   1.00
H400   H     0.47955   0.03818   0.56777   0.00000  Uiso   1.00
I401   I     0.64611   0.13797   0.41414   0.00000  Uiso   1.00
I402   I     0.35389   0.19536   0.58586   0.00000  Uiso   1.00
I403   I     0.54622   0.04560   0.40278   0.00000  Uiso   1.00
I404   I     0.45378   0.28773   0.59722   0.00000  Uiso   1.00
I405   I     0.41973   0.09207   0.38047   0.00000  Uiso   1.00
I406   I     0.58027   0.24126   0.61953   0.00000  Uiso   1.00
I407   I     0.41376   0.09601   0.59482   0.00000  Uiso   1.00
I408   I     0.58624   0.23732   0.40518   0.00000  Uiso   1.00
N409   N     0.50001   0.16668   0.61736   0.00000  Uiso   1.00
N410   N     0.49999   0.16666   0.38264   0.00000  Uiso   1.00
O411   O     0.50000   0.10655   0.53958   0.00000  Uiso   1.00
O412   O     0.50000   0.22678   0.46042   0.00000  Uiso   1.00
O413   O     0.50000   0.10654   0.46039   0.00000  Uiso   1.00
O414   O     0.50000   0.22679   0.53961   0.00000  Uiso   1.00
O415   O     0.42495   0.16667   0.53046   0.00000  Uiso   1.00
O416   O     0.57505   0.16666   0.46954   0.00000  Uiso   1.00
O417   O     0.42494   0.16666   0.45127   0.00000  Uiso   1.00
O418   O     0.57506   0.16667   0.54873   0.00000  Uiso   1.00
C419   C     0.83510   0.08762   0.49980   0.00000  Uiso   1.00
C420   C     0.82181   0.02182   0.53788   0.00000  Uiso   1.00
C421   C     0.83068   0.29035   0.50067   0.00000  Uiso   1.00
C422   C     0.83598   0.04298   0.49933   0.00000  Uiso   1.00
C423   C     0.80161   0.13871   0.35332   0.00000  Uiso   1.00
C424   C     0.86506   0.19463   0.64668   0.00000  Uiso   1.00
C425   C     0.80113   0.13901   0.63724   0.00000  Uiso   1.00
C426   C     0.86554   0.19432   0.36276   0.00000  Uiso   1.00
C427   C     0.83156   0.24572   0.50020   0.00000  Uiso   1.00
C428   C     0.73482   0.16645   0.48812   0.00000  Uiso   1.00
C429   C     0.93185   0.16688   0.51188   0.00000  Uiso   1.00
C430   C     0.67964   0.16263   0.48198   0.00000  Uiso   1.00
C431   C     0.98703   0.17070   0.51802   0.00000  Uiso   1.00
C432   C     0.84882   0.02064   0.46134   0.00000  Uiso   1.00
C433   C     0.81784   0.31269   0.53866   0.00000  Uiso   1.00
C434   C     0.84486   0.31152   0.46212   0.00000  Uiso   1.00
Cu435  Cu    0.83333   0.16667   0.54689   0.00000  Uiso   1.00
Cu436  Cu    0.83333   0.16666   0.45311   0.00000  Uiso   1.00
H437   H     0.85379   0.29515   0.43223   0.00000  Uiso   1.00
H438   H     0.81288   0.03818   0.56777   0.00000  Uiso   1.00
I439   I     0.97945   0.13797   0.41414   0.00000  Uiso   1.00
I440   I     0.68722   0.19536   0.58586   0.00000  Uiso   1.00
I441   I     0.87955   0.04560   0.40278   0.00000  Uiso   1.00
I442   I     0.78712   0.28773   0.59722   0.00000  Uiso   1.00
I443   I     0.75307   0.09207   0.38047   0.00000  Uiso   1.00
I444   I     0.91360   0.24126   0.61953   0.00000  Uiso   1.00
I445   I     0.74709   0.09601   0.59482   0.00000  Uiso   1.00
I446   I     0.91957   0.23732   0.40518   0.00000  Uiso   1.00
N447   N     0.83335   0.16668   0.61736   0.00000  Uiso   1.00
N448   N     0.83332   0.16666   0.38264   0.00000  Uiso   1.00
O449   O     0.83333   0.10655   0.53958   0.00000  Uiso   1.00
O450   O     0.83334   0.22678   0.46042   0.00000  Uiso   1.00
O451   O     0.83333   0.10654   0.46039   0.00000  Uiso   1.00
O452   O     0.83334   0.22679   0.53961   0.00000  Uiso   1.00
O453   O     0.75828   0.16667   0.53046   0.00000  Uiso   1.00
O454   O     0.90839   0.16666   0.46954   0.00000  Uiso   1.00
O455   O     0.75828   0.16666   0.45127   0.00000  Uiso   1.00
O456   O     0.90839   0.16667   0.54873   0.00000  Uiso   1.00
C457   C     0.16844   0.42095   0.49980   0.00000  Uiso   1.00
C458   C     0.15514   0.35515   0.53788   0.00000  Uiso   1.00
C459   C     0.16402   0.62368   0.50067   0.00000  Uiso   1.00
C460   C     0.16932   0.37632   0.49933   0.00000  Uiso   1.00
C461   C     0.13494   0.47204   0.35332   0.00000  Uiso   1.00
C462   C     0.19839   0.52796   0.64668   0.00000  Uiso   1.00
C463   C     0.13446   0.47234   0.63724   0.00000  Uiso   1.00
C464   C     0.19887   0.52766   0.36276   0.00000  Uiso   1.00
C465   C     0.16490   0.57905   0.50020   0.00000  Uiso   1.00
C466   C     0.06815   0.49979   0.48812   0.00000  Uiso   1.00
C467   C     0.26518   0.50021   0.51188   0.00000  Uiso   1.00
C468   C     0.01297   0.49597   0.48198   0.00000  Uiso   1.00
C469   C     0.32036   0.50403   0.51802   0.00000  Uiso   1.00
C470   C     0.18216   0.35397   0.46134   0.00000  Uiso   1.00
C471   C     0.15118   0.64603   0.53866   0.00000  Uiso   1.00
C472   C     0.17819   0.64485   0.46212   0.00000  Uiso   1.00
Cu473  Cu    0.16667   0.50001   0.54689   0.00000  Uiso   1.00
Cu474  Cu    0.16667   0.49999   0.45311   0.00000  Uiso   1.00
H475   H     0.18712   0.62849   0.43223   0.00000  Uiso   1.00
H476   H     0.14621   0.37151   0.56777   0.00000  Uiso   1.00
I477   I     0.31278   0.47130   0.41414   0.00000  Uiso   1.00
I478   I     0.02055   0.52870   0.58586   0.00000  Uiso   1.00
I479   I     0.21288   0.37894   0.40278   0.00000  Uiso   1.00
I480   I     0.12045   0.62106   0.59722   0.00000  Uiso   1.00
I481   I     0.08640   0.42541   0.38047   0.00000  Uiso   1.00
I482   I     0.24693   0.57459   0.61953   0.00000  Uiso   1.00
I483   I     0.08043   0.42934   0.59482   0.00000  Uiso   1.00
I484   I     0.25291   0.57066   0.40518   0.00000  Uiso   1.00
N485   N     0.16668   0.50001   0.61736   0.00000  Uiso   1.00
N486   N     0.16665   0.49999   0.38264   0.00000  Uiso   1.00
O487   O     0.16666   0.43989   0.53958   0.00000  Uiso   1.00
O488   O     0.16667   0.56011   0.46042   0.00000  Uiso   1.00
O489   O     0.16666   0.43988   0.46039   0.00000  Uiso   1.00
O490   O     0.16667   0.56012   0.53961   0.00000  Uiso   1.00
O491   O     0.09161   0.50000   0.53046   0.00000  Uiso   1.00
O492   O     0.24172   0.50000   0.46954   0.00000  Uiso   1.00
O493   O     0.09161   0.49999   0.45127   0.00000  Uiso   1.00
O494   O     0.24172   0.50001   0.54873   0.00000  Uiso   1.00
C495   C     0.50177   0.42095   0.49980   0.00000  Uiso   1.00
C496   C     0.48848   0.35515   0.53788   0.00000  Uiso   1.00
C497   C     0.49735   0.62368   0.50067   0.00000  Uiso   1.00
C498   C     0.50265   0.37632   0.49933   0.00000  Uiso   1.00
C499   C     0.46827   0.47204   0.35332   0.00000  Uiso   1.00
C500   C     0.53173   0.52796   0.64668   0.00000  Uiso   1.00
C501   C     0.46779   0.47234   0.63724   0.00000  Uiso   1.00
C502   C     0.53221   0.52766   0.36276   0.00000  Uiso   1.00
C503   C     0.49823   0.57905   0.50020   0.00000  Uiso   1.00
C504   C     0.40148   0.49979   0.48812   0.00000  Uiso   1.00
C505   C     0.59852   0.50021   0.51188   0.00000  Uiso   1.00
C506   C     0.34631   0.49597   0.48198   0.00000  Uiso   1.00
C507   C     0.65369   0.50403   0.51802   0.00000  Uiso   1.00
C508   C     0.51549   0.35397   0.46134   0.00000  Uiso   1.00
C509   C     0.48451   0.64603   0.53866   0.00000  Uiso   1.00
C510   C     0.51152   0.64485   0.46212   0.00000  Uiso   1.00
Cu511  Cu    0.50000   0.50001   0.54689   0.00000  Uiso   1.00
Cu512  Cu    0.50000   0.49999   0.45311   0.00000  Uiso   1.00
H513   H     0.52045   0.62849   0.43223   0.00000  Uiso   1.00
H514   H     0.47955   0.37151   0.56777   0.00000  Uiso   1.00
I515   I     0.64611   0.47130   0.41414   0.00000  Uiso   1.00
I516   I     0.35389   0.52870   0.58586   0.00000  Uiso   1.00
I517   I     0.54622   0.37894   0.40278   0.00000  Uiso   1.00
I518   I     0.45378   0.62106   0.59722   0.00000  Uiso   1.00
I519   I     0.41973   0.42541   0.38047   0.00000  Uiso   1.00
I520   I     0.58027   0.57459   0.61953   0.00000  Uiso   1.00
I521   I     0.41376   0.42934   0.59482   0.00000  Uiso   1.00
I522   I     0.58624   0.57066   0.40518   0.00000  Uiso   1.00
N523   N     0.50001   0.50001   0.61736   0.00000  Uiso   1.00
N524   N     0.49999   0.49999   0.38264   0.00000  Uiso   1.00
O525   O     0.50000   0.43989   0.53958   0.00000  Uiso   1.00
O526   O     0.50000   0.56011   0.46042   0.00000  Uiso   1.00
O527   O     0.50000   0.43988   0.46039   0.00000  Uiso   1.00
O528   O     0.50000   0.56012   0.53961   0.00000  Uiso   1.00
O529   O     0.42495   0.50000   0.53046   0.00000  Uiso   1.00
O530   O     0.57505   0.50000   0.46954   0.00000  Uiso   1.00
O531   O     0.42494   0.49999   0.45127   0.00000  Uiso   1.00
O532   O     0.57506   0.50001   0.54873   0.00000  Uiso   1.00
C533   C     0.83510   0.42095   0.49980   0.00000  Uiso   1.00
C534   C     0.82181   0.35515   0.53788   0.00000  Uiso   1.00
C535   C     0.83068   0.62368   0.50067   0.00000  Uiso   1.00
C536   C     0.83598   0.37632   0.49933   0.00000  Uiso   1.00
C537   C     0.80161   0.47204   0.35332   0.00000  Uiso   1.00
C538   C     0.86506   0.52796   0.64668   0.00000  Uiso   1.00
C539   C     0.80113   0.47234   0.63724   0.00000  Uiso   1.00
C540   C     0.86554   0.52766   0.36276   0.00000  Uiso   1.00
C541   C     0.83156   0.57905   0.50020   0.00000  Uiso   1.00
C542   C     0.73482   0.49979   0.48812   0.00000  Uiso   1.00
C543   C     0.93185   0.50021   0.51188   0.00000  Uiso   1.00
C544   C     0.67964   0.49597   0.48198   0.00000  Uiso   1.00
C545   C     0.98703   0.50403   0.51802   0.00000  Uiso   1.00
C546   C     0.84882   0.35397   0.46134   0.00000  Uiso   1.00
C547   C     0.81784   0.64603   0.53866   0.00000  Uiso   1.00
C548   C     0.84486   0.64485   0.46212   0.00000  Uiso   1.00
Cu549  Cu    0.83333   0.50001   0.54689   0.00000  Uiso   1.00
Cu550  Cu    0.83333   0.49999   0.45311   0.00000  Uiso   1.00
H551   H     0.85379   0.62849   0.43223   0.00000  Uiso   1.00
H552   H     0.81288   0.37151   0.56777   0.00000  Uiso   1.00
I553   I     0.97945   0.47130   0.41414   0.00000  Uiso   1.00
I554   I     0.68722   0.52870   0.58586   0.00000  Uiso   1.00
I555   I     0.87955   0.37894   0.40278   0.00000  Uiso   1.00
I556   I     0.78712   0.62106   0.59722   0.00000  Uiso   1.00
I557   I     0.75307   0.42541   0.38047   0.00000  Uiso   1.00
I558   I     0.91360   0.57459   0.61953   0.00000  Uiso   1.00
I559   I     0.74709   0.42934   0.59482   0.00000  Uiso   1.00
I560   I     0.91957   0.57066   0.40518   0.00000  Uiso   1.00
N561   N     0.83335   0.50001   0.61736   0.00000  Uiso   1.00
N562   N     0.83332   0.49999   0.38264   0.00000  Uiso   1.00
O563   O     0.83333   0.43989   0.53958   0.00000  Uiso   1.00
O564   O     0.83334   0.56011   0.46042   0.00000  Uiso   1.00
O565   O     0.83333   0.43988   0.46039   0.00000  Uiso   1.00
O566   O     0.83334   0.56012   0.53961   0.00000  Uiso   1.00
O567   O     0.75828   0.50000   0.53046   0.00000  Uiso   1.00
O568   O     0.90839   0.50000   0.46954   0.00000  Uiso   1.00
O569   O     0.75828   0.49999   0.45127   0.00000  Uiso   1.00
O570   O     0.90839   0.50001   0.54873   0.00000  Uiso   1.00
C571   C     0.16844   0.75428   0.49980   0.00000  Uiso   1.00
C572   C     0.15514   0.68848   0.53788   0.00000  Uiso   1.00
C573   C     0.16402   0.95702   0.50067   0.00000  Uiso   1.00
C574   C     0.16932   0.70965   0.49933   0.00000  Uiso   1.00
C575   C     0.13494   0.80537   0.35332   0.00000  Uiso   1.00
C576   C     0.19839   0.86129   0.64668   0.00000  Uiso   1.00
C577   C     0.13446   0.80568   0.63724   0.00000  Uiso   1.00
C578   C     0.19887   0.86099   0.36276   0.00000  Uiso   1.00
C579   C     0.16490   0.91238   0.50020   0.00000  Uiso   1.00
C580   C     0.06815   0.83312   0.48812   0.00000  Uiso   1.00
C581   C     0.26518   0.83355   0.51188   0.00000  Uiso   1.00
C582   C     0.01297   0.82930   0.48198   0.00000  Uiso   1.00
C583   C     0.32036   0.83737   0.51802   0.00000  Uiso   1.00
C584   C     0.18216   0.68731   0.46134   0.00000  Uiso   1.00
C585   C     0.15118   0.97936   0.53866   0.00000  Uiso   1.00
C586   C     0.17819   0.97818   0.46212   0.00000  Uiso   1.00
Cu587  Cu    0.16667   0.83334   0.54689   0.00000  Uiso   1.00
Cu588  Cu    0.16667   0.83333   0.45311   0.00000  Uiso   1.00
H589   H     0.18712   0.96182   0.43223   0.00000  Uiso   1.00
H590   H     0.14621   0.70485   0.56777   0.00000  Uiso   1.00
I591   I     0.31278   0.80464   0.41414   0.00000  Uiso   1.00
I592   I     0.02055   0.86203   0.58586   0.00000  Uiso   1.00
I593   I     0.21288   0.71227   0.40278   0.00000  Uiso   1.00
I594   I     0.12045   0.95440   0.59722   0.00000  Uiso   1.00
I595   I     0.08640   0.75874   0.38047   0.00000  Uiso   1.00
I596   I     0.24693   0.90793   0.61953   0.00000  Uiso   1.00
I597   I     0.08043   0.76268   0.59482   0.00000  Uiso   1.00
I598   I     0.25291   0.90399   0.40518   0.00000  Uiso   1.00
N599   N     0.16668   0.83334   0.61736   0.00000  Uiso   1.00
N600   N     0.16665   0.83332   0.38264   0.00000  Uiso   1.00
O601   O     0.16666   0.77322   0.53958   0.00000  Uiso   1.00
O602   O     0.16667   0.89345   0.46042   0.00000  Uiso   1.00
O603   O     0.16666   0.77321   0.46039   0.00000  Uiso   1.00
O604   O     0.16667   0.89346   0.53961   0.00000  Uiso   1.00
O605   O     0.09161   0.83334   0.53046   0.00000  Uiso   1.00
O606   O     0.24172   0.83333   0.46954   0.00000  Uiso   1.00
O607   O     0.09161   0.83333   0.45127   0.00000  Uiso   1.00
O608   O     0.24172   0.83334   0.54873   0.00000  Uiso   1.00
C609   C     0.50177   0.75428   0.49980   0.00000  Uiso   1.00
C610   C     0.48848   0.68848   0.53788   0.00000  Uiso   1.00
C611   C     0.49735   0.95702   0.50067   0.00000  Uiso   1.00
C612   C     0.50265   0.70965   0.49933   0.00000  Uiso   1.00
C613   C     0.46827   0.80537   0.35332   0.00000  Uiso   1.00
C614   C     0.53173   0.86129   0.64668   0.00000  Uiso   1.00
C615   C     0.46779   0.80568   0.63724   0.00000  Uiso   1.00
C616   C     0.53221   0.86099   0.36276   0.00000  Uiso   1.00
C617   C     0.49823   0.91238   0.50020   0.00000  Uiso   1.00
C618   C     0.40148   0.83312   0.48812   0.00000  Uiso   1.00
C619   C     0.59852   0.83355   0.51188   0.00000  Uiso   1.00
C620   C     0.34631   0.82930   0.48198   0.00000  Uiso   1.00
C621   C     0.65369   0.83737   0.51802   0.00000  Uiso   1.00
C622   C     0.51549   0.68731   0.46134   0.00000  Uiso   1.00
C623   C     0.48451   0.97936   0.53866   0.00000  Uiso   1.00
C624   C     0.51152   0.97818   0.46212   0.00000  Uiso   1.00
Cu625  Cu    0.50000   0.83334   0.54689   0.00000  Uiso   1.00
Cu626  Cu    0.50000   0.83333   0.45311   0.00000  Uiso   1.00
H627   H     0.52045   0.96182   0.43223   0.00000  Uiso   1.00
H628   H     0.47955   0.70485   0.56777   0.00000  Uiso   1.00
I629   I     0.64611   0.80464   0.41414   0.00000  Uiso   1.00
I630   I     0.35389   0.86203   0.58586   0.00000  Uiso   1.00
I631   I     0.54622   0.71227   0.40278   0.00000  Uiso   1.00
I632   I     0.45378   0.95440   0.59722   0.00000  Uiso   1.00
I633   I     0.41973   0.75874   0.38047   0.00000  Uiso   1.00
I634   I     0.58027   0.90793   0.61953   0.00000  Uiso   1.00
I635   I     0.41376   0.76268   0.59482   0.00000  Uiso   1.00
I636   I     0.58624   0.90399   0.40518   0.00000  Uiso   1.00
N637   N     0.50001   0.83334   0.61736   0.00000  Uiso   1.00
N638   N     0.49999   0.83332   0.38264   0.00000  Uiso   1.00
O639   O     0.50000   0.77322   0.53958   0.00000  Uiso   1.00
O640   O     0.50000   0.89345   0.46042   0.00000  Uiso   1.00
O641   O     0.50000   0.77321   0.46039   0.00000  Uiso   1.00
O642   O     0.50000   0.89346   0.53961   0.00000  Uiso   1.00
O643   O     0.42495   0.83334   0.53046   0.00000  Uiso   1.00
O644   O     0.57505   0.83333   0.46954   0.00000  Uiso   1.00
O645   O     0.42494   0.83333   0.45127   0.00000  Uiso   1.00
O646   O     0.57506   0.83334   0.54873   0.00000  Uiso   1.00
C647   C     0.83510   0.75428   0.49980   0.00000  Uiso   1.00
C648   C     0.82181   0.68848   0.53788   0.00000  Uiso   1.00
C649   C     0.83068   0.95702   0.50067   0.00000  Uiso   1.00
C650   C     0.83598   0.70965   0.49933   0.00000  Uiso   1.00
C651   C     0.80161   0.80537   0.35332   0.00000  Uiso   1.00
C652   C     0.86506   0.86129   0.64668   0.00000  Uiso   1.00
C653   C     0.80113   0.80568   0.63724   0.00000  Uiso   1.00
C654   C     0.86554   0.86099   0.36276   0.00000  Uiso   1.00
C655   C     0.83156   0.91238   0.50020   0.00000  Uiso   1.00
C656   C     0.73482   0.83312   0.48812   0.00000  Uiso   1.00
C657   C     0.93185   0.83355   0.51188   0.00000  Uiso   1.00
C658   C     0.67964   0.82930   0.48198   0.00000  Uiso   1.00
C659   C     0.98703   0.83737   0.51802   0.00000  Uiso   1.00
C660   C     0.84882   0.68731   0.46134   0.00000  Uiso   1.00
C661   C     0.81784   0.97936   0.53866   0.00000  Uiso   1.00
C662   C     0.84486   0.97818   0.46212   0.00000  Uiso   1.00
Cu663  Cu    0.83333   0.83334   0.54689   0.00000  Uiso   1.00
Cu664  Cu    0.83333   0.83333   0.45311   0.00000  Uiso   1.00
H665   H     0.85379   0.96182   0.43223   0.00000  Uiso   1.00
H666   H     0.81288   0.70485   0.56777   0.00000  Uiso   1.00
I667   I     0.97945   0.80464   0.41414   0.00000  Uiso   1.00
I668   I     0.68722   0.86203   0.58586   0.00000  Uiso   1.00
I669   I     0.87955   0.71227   0.40278   0.00000  Uiso   1.00
I670   I     0.78712   0.95440   0.59722   0.00000  Uiso   1.00
I671   I     0.75307   0.75874   0.38047   0.00000  Uiso   1.00
I672   I     0.91360   0.90793   0.61953   0.00000  Uiso   1.00
I673   I     0.74709   0.76268   0.59482   0.00000  Uiso   1.00
I674   I     0.91957   0.90399   0.40518   0.00000  Uiso   1.00
N675   N     0.83335   0.83334   0.61736   0.00000  Uiso   1.00
N676   N     0.83332   0.83332   0.38264   0.00000  Uiso   1.00
O677   O     0.83333   0.77322   0.53958   0.00000  Uiso   1.00
O678   O     0.83334   0.89345   0.46042   0.00000  Uiso   1.00
O679   O     0.83333   0.77321   0.46039   0.00000  Uiso   1.00
O680   O     0.83334   0.89346   0.53961   0.00000  Uiso   1.00
O681   O     0.75828   0.83334   0.53046   0.00000  Uiso   1.00
O682   O     0.90839   0.83333   0.46954   0.00000  Uiso   1.00
O683   O     0.75828   0.83333   0.45127   0.00000  Uiso   1.00
O684   O     0.90839   0.83334   0.54873   0.00000  Uiso   1.00
C685   C     0.16844   0.08762   0.83313   0.00000  Uiso   1.00
C686   C     0.15514   0.02182   0.87122   0.00000  Uiso   1.00
C687   C     0.16402   0.29035   0.83400   0.00000  Uiso   1.00
C688   C     0.16932   0.04298   0.83267   0.00000  Uiso   1.00
C689   C     0.13494   0.13871   0.68665   0.00000  Uiso   1.00
C690   C     0.19839   0.19463   0.98001   0.00000  Uiso   1.00
C691   C     0.13446   0.13901   0.97057   0.00000  Uiso   1.00
C692   C     0.19887   0.19432   0.69610   0.00000  Uiso   1.00
C693   C     0.16490   0.24572   0.83353   0.00000  Uiso   1.00
C694   C     0.06815   0.16645   0.82145   0.00000  Uiso   1.00
C695   C     0.26518   0.16688   0.84521   0.00000  Uiso   1.00
C696   C     0.01297   0.16263   0.81532   0.00000  Uiso   1.00
C697   C     0.32036   0.17070   0.85135   0.00000  Uiso   1.00
C698   C     0.18216   0.02064   0.79467   0.00000  Uiso   1.00
C699   C     0.15118   0.31269   0.87200   0.00000  Uiso   1.00
C700   C     0.17819   0.31152   0.79545   0.00000  Uiso   1.00
Cu701  Cu    0.16667   0.16667   0.88022   0.00000  Uiso   1.00
Cu702  Cu    0.16667   0.16666   0.78645   0.00000  Uiso   1.00
H703   H     0.18712   0.29515   0.76556   0.00000  Uiso   1.00
H704   H     0.14621   0.03818   0.90110   0.00000  Uiso   1.00
I705   I     0.31278   0.13797   0.74747   0.00000  Uiso   1.00
I706   I     0.02055   0.19536   0.91919   0.00000  Uiso   1.00
I707   I     0.21288   0.04560   0.73611   0.00000  Uiso   1.00
I708   I     0.12045   0.28773   0.93055   0.00000  Uiso   1.00
I709   I     0.08640   0.09207   0.71381   0.00000  Uiso   1.00
I710   I     0.24693   0.24126   0.95286   0.00000  Uiso   1.00
I711   I     0.08043   0.09601   0.92815   0.00000  Uiso   1.00
I712   I     0.25291   0.23732   0.73852   0.00000  Uiso   1.00
N713   N     0.16668   0.16668   0.95069   0.00000  Uiso   1.00
N714   N     0.16665   0.16666   0.71597   0.00000  Uiso   1.00
O715   O     0.16666   0.10655   0.87291   0.00000  Uiso   1.00
O716   O     0.16667   0.22678   0.79375   0.00000  Uiso   1.00
O717   O     0.16666   0.10654   0.79372   0.00000  Uiso   1.00
O718   O     0.16667   0.22679   0.87294   0.00000  Uiso   1.00
O719   O     0.09161   0.16667   0.86379   0.00000  Uiso   1.00
O720   O     0.24172   0.16666   0.80288   0.00000  Uiso   1.00
O721   O     0.09161   0.16666   0.78460   0.00000  Uiso   1.00
O722   O     0.24172   0.16667   0.88207   0.00000  Uiso   1.00
C723   C     0.50177   0.08762   0.83313   0.00000  Uiso   1.00
C724   C     0.48848   0.02182   0.87122   0.00000  Uiso   1.00
C725   C     0.49735   0.29035   0.83400   0.00000  Uiso   1.00
C726   C     0.50265   0.04298   0.83267   0.00000  Uiso   1.00
C727   C     0.46827   0.13871   0.68665   0.00000  Uiso   1.00
C728   C     0.53173   0.19463   0.98001   0.00000  Uiso   1.00
C729   C     0.46779   0.13901   0.97057   0.00000  Uiso   1.00
C730   C     0.53221   0.19432   0.69610   0.00000  Uiso   1.00
C731   C     0.49823   0.24572   0.83353   0.00000  Uiso   1.00
C732   C     0.40148   0.16645   0.82145   0.00000  Uiso   1.00
C733   C     0.59852   0.16688   0.84521   0.00000  Uiso   1.00
C734   C     0.34631   0.16263   0.81532   0.00000  Uiso   1.00
C735   C     0.65369   0.17070   0.85135   0.00000  Uiso   1.00
C736   C     0.51549   0.02064   0.79467   0.00000  Uiso   1.00
C737   C     0.48451   0.31269   0.87200   0.00000  Uiso   1.00
C738   C     0.51152   0.31152   0.79545   0.00000  Uiso   1.00
Cu739  Cu    0.50000   0.16667   0.88022   0.00000  Uiso   1.00
Cu740  Cu    0.50000   0.16666   0.78645   0.00000  Uiso   1.00
H741   H     0.52045   0.29515   0.76556   0.00000  Uiso   1.00
H742   H     0.47955   0.03818   0.90110   0.00000  Uiso   1.00
I743   I     0.64611   0.13797   0.74747   0.00000  Uiso   1.00
I744   I     0.35389   0.19536   0.91919   0.00000  Uiso   1.00
I745   I     0.54622   0.04560   0.73611   0.00000  Uiso   1.00
I746   I     0.45378   0.28773   0.93055   0.00000  Uiso   1.00
I747   I     0.41973   0.09207   0.71381   0.00000  Uiso   1.00
I748   I     0.58027   0.24126   0.95286   0.00000  Uiso   1.00
I749   I     0.41376   0.09601   0.92815   0.00000  Uiso   1.00
I750   I     0.58624   0.23732   0.73852   0.00000  Uiso   1.00
N751   N     0.50001   0.16668   0.95069   0.00000  Uiso   1.00
N752   N     0.49999   0.16666   0.71597   0.00000  Uiso   1.00
O753   O     0.50000   0.10655   0.87291   0.00000  Uiso   1.00
O754   O     0.50000   0.22678   0.79375   0.00000  Uiso   1.00
O755   O     0.50000   0.10654   0.79372   0.00000  Uiso   1.00
O756   O     0.50000   0.22679   0.87294   0.00000  Uiso   1.00
O757   O     0.42495   0.16667   0.86379   0.00000  Uiso   1.00
O758   O     0.57505   0.16666   0.80288   0.00000  Uiso   1.00
O759   O     0.42494   0.16666   0.78460   0.00000  Uiso   1.00
O760   O     0.57506   0.16667   0.88207   0.00000  Uiso   1.00
C761   C     0.83510   0.08762   0.83313   0.00000  Uiso   1.00
C762   C     0.82181   0.02182   0.87122   0.00000  Uiso   1.00
C763   C     0.83068   0.29035   0.83400   0.00000  Uiso   1.00
C764   C     0.83598   0.04298   0.83267   0.00000  Uiso   1.00
C765   C     0.80161   0.13871   0.68665   0.00000  Uiso   1.00
C766   C     0.86506   0.19463   0.98001   0.00000  Uiso   1.00
C767   C     0.80113   0.13901   0.97057   0.00000  Uiso   1.00
C768   C     0.86554   0.19432   0.69610   0.00000  Uiso   1.00
C769   C     0.83156   0.24572   0.83353   0.00000  Uiso   1.00
C770   C     0.73482   0.16645   0.82145   0.00000  Uiso   1.00
C771   C     0.93185   0.16688   0.84521   0.00000  Uiso   1.00
C772   C     0.67964   0.16263   0.81532   0.00000  Uiso   1.00
C773   C     0.98703   0.17070   0.85135   0.00000  Uiso   1.00
C774   C     0.84882   0.02064   0.79467   0.00000  Uiso   1.00
C775   C     0.81784   0.31269   0.87200   0.00000  Uiso   1.00
C776   C     0.84486   0.31152   0.79545   0.00000  Uiso   1.00
Cu777  Cu    0.83333   0.16667   0.88022   0.00000  Uiso   1.00
Cu778  Cu    0.83333   0.16666   0.78645   0.00000  Uiso   1.00
H779   H     0.85379   0.29515   0.76556   0.00000  Uiso   1.00
H780   H     0.81288   0.03818   0.90110   0.00000  Uiso   1.00
I781   I     0.97945   0.13797   0.74747   0.00000  Uiso   1.00
I782   I     0.68722   0.19536   0.91919   0.00000  Uiso   1.00
I783   I     0.87955   0.04560   0.73611   0.00000  Uiso   1.00
I784   I     0.78712   0.28773   0.93055   0.00000  Uiso   1.00
I785   I     0.75307   0.09207   0.71381   0.00000  Uiso   1.00
I786   I     0.91360   0.24126   0.95286   0.00000  Uiso   1.00
I787   I     0.74709   0.09601   0.92815   0.00000  Uiso   1.00
I788   I     0.91957   0.23732   0.73852   0.00000  Uiso   1.00
N789   N     0.83335   0.16668   0.95069   0.00000  Uiso   1.00
N790   N     0.83332   0.16666   0.71597   0.00000  Uiso   1.00
O791   O     0.83333   0.10655   0.87291   0.00000  Uiso   1.00
O792   O     0.83334   0.22678   0.79375   0.00000  Uiso   1.00
O793   O     0.83333   0.10654   0.79372   0.00000  Uiso   1.00
O794   O     0.83334   0.22679   0.87294   0.00000  Uiso   1.00
O795   O     0.75828   0.16667   0.86379   0.00000  Uiso   1.00
O796   O     0.90839   0.16666   0.80288   0.00000  Uiso   1.00
O797   O     0.75828   0.16666   0.78460   0.00000  Uiso   1.00
O798   O     0.90839   0.16667   0.88207   0.00000  Uiso   1.00
C799   C     0.16844   0.42095   0.83313   0.00000  Uiso   1.00
C800   C     0.15514   0.35515   0.87122   0.00000  Uiso   1.00
C801   C     0.16402   0.62368   0.83400   0.00000  Uiso   1.00
C802   C     0.16932   0.37632   0.83267   0.00000  Uiso   1.00
C803   C     0.13494   0.47204   0.68665   0.00000  Uiso   1.00
C804   C     0.19839   0.52796   0.98001   0.00000  Uiso   1.00
C805   C     0.13446   0.47234   0.97057   0.00000  Uiso   1.00
C806   C     0.19887   0.52766   0.69610   0.00000  Uiso   1.00
C807   C     0.16490   0.57905   0.83353   0.00000  Uiso   1.00
C808   C     0.06815   0.49979   0.82145   0.00000  Uiso   1.00
C809   C     0.26518   0.50021   0.84521   0.00000  Uiso   1.00
C810   C     0.01297   0.49597   0.81532   0.00000  Uiso   1.00
C811   C     0.32036   0.50403   0.85135   0.00000  Uiso   1.00
C812   C     0.18216   0.35397   0.79467   0.00000  Uiso   1.00
C813   C     0.15118   0.64603   0.87200   0.00000  Uiso   1.00
C814   C     0.17819   0.64485   0.79545   0.00000  Uiso   1.00
Cu815  Cu    0.16667   0.50001   0.88022   0.00000  Uiso   1.00
Cu816  Cu    0.16667   0.49999   0.78645   0.00000  Uiso   1.00
H817   H     0.18712   0.62849   0.76556   0.00000  Uiso   1.00
H818   H     0.14621   0.37151   0.90110   0.00000  Uiso   1.00
I819   I     0.31278   0.47130   0.74747   0.00000  Uiso   1.00
I820   I     0.02055   0.52870   0.91919   0.00000  Uiso   1.00
I821   I     0.21288   0.37894   0.73611   0.00000  Uiso   1.00
I822   I     0.12045   0.62106   0.93055   0.00000  Uiso   1.00
I823   I     0.08640   0.42541   0.71381   0.00000  Uiso   1.00
I824   I     0.24693   0.57459   0.95286   0.00000  Uiso   1.00
I825   I     0.08043   0.42934   0.92815   0.00000  Uiso   1.00
I826   I     0.25291   0.57066   0.73852   0.00000  Uiso   1.00
N827   N     0.16668   0.50001   0.95069   0.00000  Uiso   1.00
N828   N     0.16665   0.49999   0.71597   0.00000  Uiso   1.00
O829   O     0.16666   0.43989   0.87291   0.00000  Uiso   1.00
O830   O     0.16667   0.56011   0.79375   0.00000  Uiso   1.00
O831   O     0.16666   0.43988   0.79372   0.00000  Uiso   1.00
O832   O     0.16667   0.56012   0.87294   0.00000  Uiso   1.00
O833   O     0.09161   0.50000   0.86379   0.00000  Uiso   1.00
O834   O     0.24172   0.50000   0.80288   0.00000  Uiso   1.00
O835   O     0.09161   0.49999   0.78460   0.00000  Uiso   1.00
O836   O     0.24172   0.50001   0.88207   0.00000  Uiso   1.00
C837   C     0.50177   0.42095   0.83313   0.00000  Uiso   1.00
C838   C     0.48848   0.35515   0.87122   0.00000  Uiso   1.00
C839   C     0.49735   0.62368   0.83400   0.00000  Uiso   1.00
C840   C     0.50265   0.37632   0.83267   0.00000  Uiso   1.00
C841   C     0.46827   0.47204   0.68665   0.00000  Uiso   1.00
C842   C     0.53173   0.52796   0.98001   0.00000  Uiso   1.00
C843   C     0.46779   0.47234   0.97057   0.00000  Uiso   1.00
C844   C     0.53221   0.52766   0.69610   0.00000  Uiso   1.00
C845   C     0.49823   0.57905   0.83353   0.00000  Uiso   1.00
C846   C     0.40148   0.49979   0.82145   0.00000  Uiso   1.00
C847   C     0.59852   0.50021   0.84521   0.00000  Uiso   1.00
C848   C     0.34631   0.49597   0.81532   0.00000  Uiso   1.00
C849   C     0.65369   0.50403   0.85135   0.00000  Uiso   1.00
C850   C     0.51549   0.35397   0.79467   0.00000  Uiso   1.00
C851   C     0.48451   0.64603   0.87200   0.00000  Uiso   1.00
C852   C     0.51152   0.64485   0.79545   0.00000  Uiso   1.00
Cu853  Cu    0.50000   0.50001   0.88022   0.00000  Uiso   1.00
Cu854  Cu    0.50000   0.49999   0.78645   0.00000  Uiso   1.00
H855   H     0.52045   0.62849   0.76556   0.00000  Uiso   1.00
H856   H     0.47955   0.37151   0.90110   0.00000  Uiso   1.00
I857   I     0.64611   0.47130   0.74747   0.00000  Uiso   1.00
I858   I     0.35389   0.52870   0.91919   0.00000  Uiso   1.00
I859   I     0.54622   0.37894   0.73611   0.00000  Uiso   1.00
I860   I     0.45378   0.62106   0.93055   0.00000  Uiso   1.00
I861   I     0.41973   0.42541   0.71381   0.00000  Uiso   1.00
I862   I     0.58027   0.57459   0.95286   0.00000  Uiso   1.00
I863   I     0.41376   0.42934   0.92815   0.00000  Uiso   1.00
I864   I     0.58624   0.57066   0.73852   0.00000  Uiso   1.00
N865   N     0.50001   0.50001   0.95069   0.00000  Uiso   1.00
N866   N     0.49999   0.49999   0.71597   0.00000  Uiso   1.00
O867   O     0.50000   0.43989   0.87291   0.00000  Uiso   1.00
O868   O     0.50000   0.56011   0.79375   0.00000  Uiso   1.00
O869   O     0.50000   0.43988   0.79372   0.00000  Uiso   1.00
O870   O     0.50000   0.56012   0.87294   0.00000  Uiso   1.00
O871   O     0.42495   0.50000   0.86379   0.00000  Uiso   1.00
O872   O     0.57505   0.50000   0.80288   0.00000  Uiso   1.00
O873   O     0.42494   0.49999   0.78460   0.00000  Uiso   1.00
O874   O     0.57506   0.50001   0.88207   0.00000  Uiso   1.00
C875   C     0.83510   0.42095   0.83313   0.00000  Uiso   1.00
C876   C     0.82181   0.35515   0.87122   0.00000  Uiso   1.00
C877   C     0.83068   0.62368   0.83400   0.00000  Uiso   1.00
C878   C     0.83598   0.37632   0.83267   0.00000  Uiso   1.00
C879   C     0.80161   0.47204   0.68665   0.00000  Uiso   1.00
C880   C     0.86506   0.52796   0.98001   0.00000  Uiso   1.00
C881   C     0.80113   0.47234   0.97057   0.00000  Uiso   1.00
C882   C     0.86554   0.52766   0.69610   0.00000  Uiso   1.00
C883   C     0.83156   0.57905   0.83353   0.00000  Uiso   1.00
C884   C     0.73482   0.49979   0.82145   0.00000  Uiso   1.00
C885   C     0.93185   0.50021   0.84521   0.00000  Uiso   1.00
C886   C     0.67964   0.49597   0.81532   0.00000  Uiso   1.00
C887   C     0.98703   0.50403   0.85135   0.00000  Uiso   1.00
C888   C     0.84882   0.35397   0.79467   0.00000  Uiso   1.00
C889   C     0.81784   0.64603   0.87200   0.00000  Uiso   1.00
C890   C     0.84486   0.64485   0.79545   0.00000  Uiso   1.00
Cu891  Cu    0.83333   0.50001   0.88022   0.00000  Uiso   1.00
Cu892  Cu    0.83333   0.49999   0.78645   0.00000  Uiso   1.00
H893   H     0.85379   0.62849   0.76556   0.00000  Uiso   1.00
H894   H     0.81288   0.37151   0.90110   0.00000  Uiso   1.00
I895   I     0.97945   0.47130   0.74747   0.00000  Uiso   1.00
I896   I     0.68722   0.52870   0.91919   0.00000  Uiso   1.00
I897   I     0.87955   0.37894   0.73611   0.00000  Uiso   1.00
I898   I     0.78712   0.62106   0.93055   0.00000  Uiso   1.00
I899   I     0.75307   0.42541   0.71381   0.00000  Uiso   1.00
I900   I     0.91360   0.57459   0.95286   0.00000  Uiso   1.00
I901   I     0.74709   0.42934   0.92815   0.00000  Uiso   1.00
I902   I     0.91957   0.57066   0.73852   0.00000  Uiso   1.00
N903   N     0.83335   0.50001   0.95069   0.00000  Uiso   1.00
N904   N     0.83332   0.49999   0.71597   0.00000  Uiso   1.00
O905   O     0.83333   0.43989   0.87291   0.00000  Uiso   1.00
O906   O     0.83334   0.56011   0.79375   0.00000  Uiso   1.00
O907   O     0.83333   0.43988   0.79372   0.00000  Uiso   1.00
O908   O     0.83334   0.56012   0.87294   0.00000  Uiso   1.00
O909   O     0.75828   0.50000   0.86379   0.00000  Uiso   1.00
O910   O     0.90839   0.50000   0.80288   0.00000  Uiso   1.00
O911   O     0.75828   0.49999   0.78460   0.00000  Uiso   1.00
O912   O     0.90839   0.50001   0.88207   0.00000  Uiso   1.00
C913   C     0.16844   0.75428   0.83313   0.00000  Uiso   1.00
C914   C     0.15514   0.68848   0.87122   0.00000  Uiso   1.00
C915   C     0.16402   0.95702   0.83400   0.00000  Uiso   1.00
C916   C     0.16932   0.70965   0.83267   0.00000  Uiso   1.00
C917   C     0.13494   0.80537   0.68665   0.00000  Uiso   1.00
C918   C     0.19839   0.86129   0.98001   0.00000  Uiso   1.00
C919   C     0.13446   0.80568   0.97057   0.00000  Uiso   1.00
C920   C     0.19887   0.86099   0.69610   0.00000  Uiso   1.00
C921   C     0.16490   0.91238   0.83353   0.00000  Uiso   1.00
C922   C     0.06815   0.83312   0.82145   0.00000  Uiso   1.00
C923   C     0.26518   0.83355   0.84521   0.00000  Uiso   1.00
C924   C     0.01297   0.82930   0.81532   0.00000  Uiso   1.00
C925   C     0.32036   0.83737   0.85135   0.00000  Uiso   1.00
C926   C     0.18216   0.68731   0.79467   0.00000  Uiso   1.00
C927   C     0.15118   0.97936   0.87200   0.00000  Uiso   1.00
C928   C     0.17819   0.97818   0.79545   0.00000  Uiso   1.00
Cu929  Cu    0.16667   0.83334   0.88022   0.00000  Uiso   1.00
Cu930  Cu    0.16667   0.83333   0.78645   0.00000  Uiso   1.00
H931   H     0.18712   0.96182   0.76556   0.00000  Uiso   1.00
H932   H     0.14621   0.70485   0.90110   0.00000  Uiso   1.00
I933   I     0.31278   0.80464   0.74747   0.00000  Uiso   1.00
I934   I     0.02055   0.86203   0.91919   0.00000  Uiso   1.00
I935   I     0.21288   0.71227   0.73611   0.00000  Uiso   1.00
I936   I     0.12045   0.95440   0.93055   0.00000  Uiso   1.00
I937   I     0.08640   0.75874   0.71381   0.00000  Uiso   1.00
I938   I     0.24693   0.90793   0.95286   0.00000  Uiso   1.00
I939   I     0.08043   0.76268   0.92815   0.00000  Uiso   1.00
I940   I     0.25291   0.90399   0.73852   0.00000  Uiso   1.00
N941   N     0.16668   0.83334   0.95069   0.00000  Uiso   1.00
N942   N     0.16665   0.83332   0.71597   0.00000  Uiso   1.00
O943   O     0.16666   0.77322   0.87291   0.00000  Uiso   1.00
O944   O     0.16667   0.89345   0.79375   0.00000  Uiso   1.00
O945   O     0.16666   0.77321   0.79372   0.00000  Uiso   1.00
O946   O     0.16667   0.89346   0.87294   0.00000  Uiso   1.00
O947   O     0.09161   0.83334   0.86379   0.00000  Uiso   1.00
O948   O     0.24172   0.83333   0.80288   0.00000  Uiso   1.00
O949   O     0.09161   0.83333   0.78460   0.00000  Uiso   1.00
O950   O     0.24172   0.83334   0.88207   0.00000  Uiso   1.00
C951   C     0.50177   0.75428   0.83313   0.00000  Uiso   1.00
C952   C     0.48848   0.68848   0.87122   0.00000  Uiso   1.00
C953   C     0.49735   0.95702   0.83400   0.00000  Uiso   1.00
C954   C     0.50265   0.70965   0.83267   0.00000  Uiso   1.00
C955   C     0.46827   0.80537   0.68665   0.00000  Uiso   1.00
C956   C     0.53173   0.86129   0.98001   0.00000  Uiso   1.00
C957   C     0.46779   0.80568   0.97057   0.00000  Uiso   1.00
C958   C     0.53221   0.86099   0.69610   0.00000  Uiso   1.00
C959   C     0.49823   0.91238   0.83353   0.00000  Uiso   1.00
C960   C     0.40148   0.83312   0.82145   0.00000  Uiso   1.00
C961   C     0.59852   0.83355   0.84521   0.00000  Uiso   1.00
C962   C     0.34631   0.82930   0.81532   0.00000  Uiso   1.00
C963   C     0.65369   0.83737   0.85135   0.00000  Uiso   1.00
C964   C     0.51549   0.68731   0.79467   0.00000  Uiso   1.00
C965   C     0.48451   0.97936   0.87200   0.00000  Uiso   1.00
C966   C     0.51152   0.97818   0.79545   0.00000  Uiso   1.00
Cu967  Cu    0.50000   0.83334   0.88022   0.00000  Uiso   1.00
Cu968  Cu    0.50000   0.83333   0.78645   0.00000  Uiso   1.00
H969   H     0.52045   0.96182   0.76556   0.00000  Uiso   1.00
H970   H     0.47955   0.70485   0.90110   0.00000  Uiso   1.00
I971   I     0.64611   0.80464   0.74747   0.00000  Uiso   1.00
I972   I     0.35389   0.86203   0.91919   0.00000  Uiso   1.00
I973   I     0.54622   0.71227   0.73611   0.00000  Uiso   1.00
I974   I     0.45378   0.95440   0.93055   0.00000  Uiso   1.00
I975   I     0.41973   0.75874   0.71381   0.00000  Uiso   1.00
I976   I     0.58027   0.90793   0.95286   0.00000  Uiso   1.00
I977   I     0.41376   0.76268   0.92815   0.00000  Uiso   1.00
I978   I     0.58624   0.90399   0.73852   0.00000  Uiso   1.00
N979   N     0.50001   0.83334   0.95069   0.00000  Uiso   1.00
N980   N     0.49999   0.83332   0.71597   0.00000  Uiso   1.00
O981   O     0.50000   0.77322   0.87291   0.00000  Uiso   1.00
O982   O     0.50000   0.89345   0.79375   0.00000  Uiso   1.00
O983   O     0.50000   0.77321   0.79372   0.00000  Uiso   1.00
O984   O     0.50000   0.89346   0.87294   0.00000  Uiso   1.00
O985   O     0.42495   0.83334   0.86379   0.00000  Uiso   1.00
O986   O     0.57505   0.83333   0.80288   0.00000  Uiso   1.00
O987   O     0.42494   0.83333   0.78460   0.00000  Uiso   1.00
O988   O     0.57506   0.83334   0.88207   0.00000  Uiso   1.00
C989   C     0.83510   0.75428   0.83313   0.00000  Uiso   1.00
C990   C     0.82181   0.68848   0.87122   0.00000  Uiso   1.00
C991   C     0.83068   0.95702   0.83400   0.00000  Uiso   1.00
C992   C     0.83598   0.70965   0.83267   0.00000  Uiso   1.00
C993   C     0.80161   0.80537   0.68665   0.00000  Uiso   1.00
C994   C     0.86506   0.86129   0.98001   0.00000  Uiso   1.00
C995   C     0.80113   0.80568   0.97057   0.00000  Uiso   1.00
C996   C     0.86554   0.86099   0.69610   0.00000  Uiso   1.00
C997   C     0.83156   0.91238   0.83353   0.00000  Uiso   1.00
C998   C     0.73482   0.83312   0.82145   0.00000  Uiso   1.00
C999   C     0.93185   0.83355   0.84521   0.00000  Uiso   1.00
C1000  C     0.67964   0.82930   0.81532   0.00000  Uiso   1.00
C1001  C     0.98703   0.83737   0.85135   0.00000  Uiso   1.00
C1002  C     0.84882   0.68731   0.79467   0.00000  Uiso   1.00
C1003  C     0.81784   0.97936   0.87200   0.00000  Uiso   1.00
C1004  C     0.84486   0.97818   0.79545   0.00000  Uiso   1.00
Cu1005 Cu    0.83333   0.83334   0.88022   0.00000  Uiso   1.00
Cu1006 Cu    0.83333   0.83333   0.78645   0.00000  Uiso   1.00
H1007  H     0.85379   0.96182   0.76556   0.00000  Uiso   1.00
H1008  H     0.81288   0.70485   0.90110   0.00000  Uiso   1.00
I1009  I     0.97945   0.80464   0.74747   0.00000  Uiso   1.00
I1010  I     0.68722   0.86203   0.91919   0.00000  Uiso   1.00
I1011  I     0.87955   0.71227   0.73611   0.00000  Uiso   1.00
I1012  I     0.78712   0.95440   0.93055   0.00000  Uiso   1.00
I1013  I     0.75307   0.75874   0.71381   0.00000  Uiso   1.00
I1014  I     0.91360   0.90793   0.95286   0.00000  Uiso   1.00
I1015  I     0.74709   0.76268   0.92815   0.00000  Uiso   1.00
I1016  I     0.91957   0.90399   0.73852   0.00000  Uiso   1.00
N1017  N     0.83335   0.83334   0.95069   0.00000  Uiso   1.00
N1018  N     0.83332   0.83332   0.71597   0.00000  Uiso   1.00
O1019  O     0.83333   0.77322   0.87291   0.00000  Uiso   1.00
O1020  O     0.83334   0.89345   0.79375   0.00000  Uiso   1.00
O1021  O     0.83333   0.77321   0.79372   0.00000  Uiso   1.00
O1022  O     0.83334   0.89346   0.87294   0.00000  Uiso   1.00
O1023  O     0.75828   0.83334   0.86379   0.00000  Uiso   1.00
O1024  O     0.90839   0.83333   0.80288   0.00000  Uiso   1.00
O1025  O     0.75828   0.83333   0.78460   0.00000  Uiso   1.00
O1026  O     0.90839   0.83334   0.88207   0.00000  Uiso   1.00
loop_
_geom_bond_atom_site_label_1
_geom_bond_atom_site_label_2
_geom_bond_distance
_geom_bond_site_symmetry_2
_ccdc_geom_bond_type
C1     C4      1.462   .     S
C1     O33     1.302   .     A
C1     O31     1.308   .     A
C2     C4      1.400   .     A
C2     H20     1.077   .     S
C2     C243    1.383   1_545 S
C3     C9      1.462   .     S
C3     C15     1.411   .     A
C3     C16     1.400   .     A
C4     C14     1.411   .     A
C5     I25     2.141   .     S
C5     N30     1.379   .     A
C5     C691    1.428   1_554 S
C6     I26     2.141   .     S
C6     N29     1.379   .     A
C6     C350    1.428   .     S
C7     N29     1.379   .     A
C7     I27     2.153   .     S
C7     C347    1.428   .     S
C8     N30     1.379   .     A
C8     I28     2.153   .     S
C8     C690    1.428   1_554 S
C9     O34     1.302   .     A
C9     O32     1.308   .     A
C10    O35     1.293   .     A
C10    C12     1.454   .     S
C10    O37     1.311   .     A
C11    O38     1.311   .     A
C11    C13     1.454   .     S
C11    O36     1.293   .     A
C12    C89     1.367   1_455 S
C12    I97     2.150   1_455 S
C13    C50     1.367   .     S
C13    I60     2.150   .     S
C14    I23     2.126   .     S
C14    C244    1.383   1_545 S
C15    I24     2.126   .     S
C15    C116    1.383   .     S
C16    H19     1.077   .     S
C16    C128    1.383   .     S
Cu17   N29     2.038   .     S
Cu17   Cu18    2.712   .     S
Cu17   O38     1.999   .     S
Cu17   O31     1.974   .     S
Cu17   O34     1.980   .     S
Cu17   O35     1.995   .     S
Cu18   O37     1.999   .     S
Cu18   O33     1.980   .     S
Cu18   O32     1.974   .     S
Cu18   N30     2.038   .     S
Cu18   O36     1.995   .     S
I21    C50     2.150   .     S
I22    C89     2.150   1_455 S
C39    C42     1.462   .     S
C39    O71     1.302   .     A
C39    O69     1.308   .     A
C40    C42     1.400   .     A
C40    H58     1.077   .     S
C40    C281    1.383   1_545 S
C41    C47     1.462   .     S
C41    C53     1.411   .     A
C41    C54     1.400   .     A
C42    C52     1.411   .     A
C43    I63     2.141   .     S
C43    N68     1.379   .     A
C43    C729    1.428   1_554 S
C44    I64     2.141   .     S
C44    N67     1.379   .     A
C44    C388    1.428   .     S
C45    N67     1.379   .     A
C45    I65     2.153   .     S
C45    C385    1.428   .     S
C46    N68     1.379   .     A
C46    I66     2.153   .     S
C46    C728    1.428   1_554 S
C47    O72     1.302   .     A
C47    O70     1.308   .     A
C48    O73     1.293   .     A
C48    C50     1.454   .     S
C48    O75     1.311   .     A
C49    O76     1.311   .     A
C49    C51     1.454   .     S
C49    O74     1.293   .     A
C51    C88     1.367   .     S
C51    I98     2.150   .     S
C52    I61     2.126   .     S
C52    C282    1.383   1_545 S
C53    I62     2.126   .     S
C53    C154    1.383   .     S
C54    H57     1.077   .     S
C54    C166    1.383   .     S
Cu55   N67     2.038   .     S
Cu55   Cu56    2.712   .     S
Cu55   O76     1.999   .     S
Cu55   O69     1.974   .     S
Cu55   O72     1.980   .     S
Cu55   O73     1.995   .     S
Cu56   O75     1.999   .     S
Cu56   O71     1.980   .     S
Cu56   O70     1.974   .     S
Cu56   N68     2.038   .     S
Cu56   O74     1.995   .     S
I59    C88     2.150   .     S
C77    C80     1.462   .     S
C77    O109    1.302   .     A
C77    O107    1.308   .     A
C78    C80     1.400   .     A
C78    H96     1.077   .     S
C78    C319    1.383   1_545 S
C79    C85     1.462   .     S
C79    C91     1.411   .     A
C79    C92     1.400   .     A
C80    C90     1.411   .     A
C81    I101    2.141   .     S
C81    N106    1.379   .     A
C81    C767    1.428   1_554 S
C82    I102    2.141   .     S
C82    N105    1.379   .     A
C82    C426    1.428   .     S
C83    N105    1.379   .     A
C83    I103    2.153   .     S
C83    C423    1.428   .     S
C84    N106    1.379   .     A
C84    I104    2.153   .     S
C84    C766    1.428   1_554 S
C85    O110    1.302   .     A
C85    O108    1.308   .     A
C86    O111    1.293   .     A
C86    C88     1.454   .     S
C86    O113    1.311   .     A
C87    O114    1.311   .     A
C87    C89     1.454   .     S
C87    O112    1.293   .     A
C89    C12     1.367   1_655 S
C89    I22     2.150   1_655 S
C90    I99     2.126   .     S
C90    C320    1.383   1_545 S
C91    I100    2.126   .     S
C91    C192    1.383   .     S
C92    H95     1.077   .     S
C92    C204    1.383   .     S
Cu93   N105    2.038   .     S
Cu93   Cu94    2.712   .     S
Cu93   O114    1.999   .     S
Cu93   O107    1.974   .     S
Cu93   O110    1.980   .     S
Cu93   O111    1.995   .     S
Cu94   O113    1.999   .     S
Cu94   O109    1.980   .     S
Cu94   O108    1.974   .     S
Cu94   N106    2.038   .     S
Cu94   O112    1.995   .     S
I97    C12     2.150   1_655 S
C115   C118    1.462   .     S
C115   O147    1.302   .     A
C115   O145    1.308   .     A
C116   C118    1.400   .     A
C116   H134    1.077   .     S
C117   C123    1.462   .     S
C117   C129    1.411   .     A
C117   C130    1.400   .     A
C118   C128    1.411   .     A
C119   I139    2.141   .     S
C119   N144    1.379   .     A
C119   C805    1.428   1_554 S
C120   I140    2.141   .     S
C120   N143    1.379   .     A
C120   C464    1.428   .     S
C121   N143    1.379   .     A
C121   I141    2.153   .     S
C121   C461    1.428   .     S
C122   N144    1.379   .     A
C122   I142    2.153   .     S
C122   C804    1.428   1_554 S
C123   O148    1.302   .     A
C123   O146    1.308   .     A
C124   O149    1.293   .     A
C124   C126    1.454   .     S
C124   O151    1.311   .     A
C125   O152    1.311   .     A
C125   C127    1.454   .     S
C125   O150    1.293   .     A
C126   C203    1.367   1_455 S
C126   I211    2.150   1_455 S
C127   C164    1.367   .     S
C127   I174    2.150   .     S
C128   I137    2.126   .     S
C129   I138    2.126   .     S
C129   C230    1.383   .     S
C130   H133    1.077   .     S
C130   C242    1.383   .     S
Cu131  N143    2.038   .     S
Cu131  Cu132   2.712   .     S
Cu131  O152    1.999   .     S
Cu131  O145    1.974   .     S
Cu131  O148    1.980   .     S
Cu131  O149    1.995   .     S
Cu132  O151    1.999   .     S
Cu132  O147    1.980   .     S
Cu132  O146    1.974   .     S
Cu132  N144    2.038   .     S
Cu132  O150    1.995   .     S
I135   C164    2.150   .     S
I136   C203    2.150   1_455 S
C153   C156    1.462   .     S
C153   O185    1.302   .     A
C153   O183    1.308   .     A
C154   C156    1.400   .     A
C154   H172    1.077   .     S
C155   C161    1.462   .     S
C155   C167    1.411   .     A
C155   C168    1.400   .     A
C156   C166    1.411   .     A
C157   I177    2.141   .     S
C157   N182    1.379   .     A
C157   C843    1.428   1_554 S
C158   I178    2.141   .     S
C158   N181    1.379   .     A
C158   C502    1.428   .     S
C159   N181    1.379   .     A
C159   I179    2.153   .     S
C159   C499    1.428   .     S
C160   N182    1.379   .     A
C160   I180    2.153   .     S
C160   C842    1.428   1_554 S
C161   O186    1.302   .     A
C161   O184    1.308   .     A
C162   O187    1.293   .     A
C162   C164    1.454   .     S
C162   O189    1.311   .     A
C163   O190    1.311   .     A
C163   C165    1.454   .     S
C163   O188    1.293   .     A
C165   C202    1.367   .     S
C165   I212    2.150   .     S
C166   I175    2.126   .     S
C167   I176    2.126   .     S
C167   C268    1.383   .     S
C168   H171    1.077   .     S
C168   C280    1.383   .     S
Cu169  N181    2.038   .     S
Cu169  Cu170   2.712   .     S
Cu169  O190    1.999   .     S
Cu169  O183    1.974   .     S
Cu169  O186    1.980   .     S
Cu169  O187    1.995   .     S
Cu170  O189    1.999   .     S
Cu170  O185    1.980   .     S
Cu170  O184    1.974   .     S
Cu170  N182    2.038   .     S
Cu170  O188    1.995   .     S
I173   C202    2.150   .     S
C191   C194    1.462   .     S
C191   O223    1.302   .     A
C191   O221    1.308   .     A
C192   C194    1.400   .     A
C192   H210    1.077   .     S
C193   C199    1.462   .     S
C193   C205    1.411   .     A
C193   C206    1.400   .     A
C194   C204    1.411   .     A
C195   I215    2.141   .     S
C195   N220    1.379   .     A
C195   C881    1.428   1_554 S
C196   I216    2.141   .     S
C196   N219    1.379   .     A
C196   C540    1.428   .     S
C197   N219    1.379   .     A
C197   I217    2.153   .     S
C197   C537    1.428   .     S
C198   N220    1.379   .     A
C198   I218    2.153   .     S
C198   C880    1.428   1_554 S
C199   O224    1.302   .     A
C199   O222    1.308   .     A
C200   O225    1.293   .     A
C200   C202    1.454   .     S
C200   O227    1.311   .     A
C201   O228    1.311   .     A
C201   C203    1.454   .     S
C201   O226    1.293   .     A
C203   C126    1.367   1_655 S
C203   I136    2.150   1_655 S
C204   I213    2.126   .     S
C205   I214    2.126   .     S
C205   C306    1.383   .     S
C206   H209    1.077   .     S
C206   C318    1.383   .     S
Cu207  N219    2.038   .     S
Cu207  Cu208   2.712   .     S
Cu207  O228    1.999   .     S
Cu207  O221    1.974   .     S
Cu207  O224    1.980   .     S
Cu207  O225    1.995   .     S
Cu208  O227    1.999   .     S
Cu208  O223    1.980   .     S
Cu208  O222    1.974   .     S
Cu208  N220    2.038   .     S
Cu208  O226    1.995   .     S
I211   C126    2.150   1_655 S
C229   C232    1.462   .     S
C229   O261    1.302   .     A
C229   O259    1.308   .     A
C230   C232    1.400   .     A
C230   H248    1.077   .     S
C231   C237    1.462   .     S
C231   C243    1.411   .     A
C231   C244    1.400   .     A
C232   C242    1.411   .     A
C233   I253    2.141   .     S
C233   N258    1.379   .     A
C233   C919    1.428   1_554 S
C234   I254    2.141   .     S
C234   N257    1.379   .     A
C234   C578    1.428   .     S
C235   N257    1.379   .     A
C235   I255    2.153   .     S
C235   C575    1.428   .     S
C236   N258    1.379   .     A
C236   I256    2.153   .     S
C236   C918    1.428   1_554 S
C237   O262    1.302   .     A
C237   O260    1.308   .     A
C238   O263    1.293   .     A
C238   C240    1.454   .     S
C238   O265    1.311   .     A
C239   O266    1.311   .     A
C239   C241    1.454   .     S
C239   O264    1.293   .     A
C240   C317    1.367   1_455 S
C240   I325    2.150   1_455 S
C241   C278    1.367   .     S
C241   I288    2.150   .     S
C242   I251    2.126   .     S
C243   I252    2.126   .     S
C243   C2      1.383   1_565 S
C244   H247    1.077   .     S
C244   C14     1.383   1_565 S
Cu245  N257    2.038   .     S
Cu245  Cu246   2.712   .     S
Cu245  O266    1.999   .     S
Cu245  O259    1.974   .     S
Cu245  O262    1.980   .     S
Cu245  O263    1.995   .     S
Cu246  O265    1.999   .     S
Cu246  O261    1.980   .     S
Cu246  O260    1.974   .     S
Cu246  N258    2.038   .     S
Cu246  O264    1.995   .     S
I249   C278    2.150   .     S
I250   C317    2.150   1_455 S
C267   C270    1.462   .     S
C267   O299    1.302   .     A
C267   O297    1.308   .     A
C268   C270    1.400   .     A
C268   H286    1.077   .     S
C269   C275    1.462   .     S
C269   C281    1.411   .     A
C269   C282    1.400   .     A
C270   C280    1.411   .     A
C271   I291    2.141   .     S
C271   N296    1.379   .     A
C271   C957    1.428   1_554 S
C272   I292    2.141   .     S
C272   N295    1.379   .     A
C272   C616    1.428   .     S
C273   N295    1.379   .     A
C273   I293    2.153   .     S
C273   C613    1.428   .     S
C274   N296    1.379   .     A
C274   I294    2.153   .     S
C274   C956    1.428   1_554 S
C275   O300    1.302   .     A
C275   O298    1.308   .     A
C276   O301    1.293   .     A
C276   C278    1.454   .     S
C276   O303    1.311   .     A
C277   O304    1.311   .     A
C277   C279    1.454   .     S
C277   O302    1.293   .     A
C279   C316    1.367   .     S
C279   I326    2.150   .     S
C280   I289    2.126   .     S
C281   I290    2.126   .     S
C281   C40     1.383   1_565 S
C282   H285    1.077   .     S
C282   C52     1.383   1_565 S
Cu283  N295    2.038   .     S
Cu283  Cu284   2.712   .     S
Cu283  O304    1.999   .     S
Cu283  O297    1.974   .     S
Cu283  O300    1.980   .     S
Cu283  O301    1.995   .     S
Cu284  O303    1.999   .     S
Cu284  O299    1.980   .     S
Cu284  O298    1.974   .     S
Cu284  N296    2.038   .     S
Cu284  O302    1.995   .     S
I287   C316    2.150   .     S
C305   C308    1.462   .     S
C305   O337    1.302   .     A
C305   O335    1.308   .     A
C306   C308    1.400   .     A
C306   H324    1.077   .     S
C307   C313    1.462   .     S
C307   C319    1.411   .     A
C307   C320    1.400   .     A
C308   C318    1.411   .     A
C309   I329    2.141   .     S
C309   N334    1.379   .     A
C309   C995    1.428   1_554 S
C310   I330    2.141   .     S
C310   N333    1.379   .     A
C310   C654    1.428   .     S
C311   N333    1.379   .     A
C311   I331    2.153   .     S
C311   C651    1.428   .     S
C312   N334    1.379   .     A
C312   I332    2.153   .     S
C312   C994    1.428   1_554 S
C313   O338    1.302   .     A
C313   O336    1.308   .     A
C314   O339    1.293   .     A
C314   C316    1.454   .     S
C314   O341    1.311   .     A
C315   O342    1.311   .     A
C315   C317    1.454   .     S
C315   O340    1.293   .     A
C317   C240    1.367   1_655 S
C317   I250    2.150   1_655 S
C318   I327    2.126   .     S
C319   I328    2.126   .     S
C319   C78     1.383   1_565 S
C320   H323    1.077   .     S
C320   C90     1.383   1_565 S
Cu321  N333    2.038   .     S
Cu321  Cu322   2.712   .     S
Cu321  O342    1.999   .     S
Cu321  O335    1.974   .     S
Cu321  O338    1.980   .     S
Cu321  O339    1.995   .     S
Cu322  O341    1.999   .     S
Cu322  O337    1.980   .     S
Cu322  O336    1.974   .     S
Cu322  N334    2.038   .     S
Cu322  O340    1.995   .     S
I325   C240    2.150   1_655 S
C343   C346    1.462   .     S
C343   O375    1.302   .     A
C343   O373    1.308   .     A
C344   C346    1.400   .     A
C344   H362    1.077   .     S
C344   C585    1.383   1_545 S
C345   C351    1.462   .     S
C345   C357    1.411   .     A
C345   C358    1.400   .     A
C346   C356    1.411   .     A
C347   I367    2.141   .     S
C347   N372    1.379   .     A
C348   I368    2.141   .     S
C348   N371    1.379   .     A
C348   C692    1.428   .     S
C349   N371    1.379   .     A
C349   I369    2.153   .     S
C349   C689    1.428   .     S
C350   N372    1.379   .     A
C350   I370    2.153   .     S
C351   O376    1.302   .     A
C351   O374    1.308   .     A
C352   O377    1.293   .     A
C352   C354    1.454   .     S
C352   O379    1.311   .     A
C353   O380    1.311   .     A
C353   C355    1.454   .     S
C353   O378    1.293   .     A
C354   C431    1.367   1_455 S
C354   I439    2.150   1_455 S
C355   C392    1.367   .     S
C355   I402    2.150   .     S
C356   I365    2.126   .     S
C356   C586    1.383   1_545 S
C357   I366    2.126   .     S
C357   C458    1.383   .     S
C358   H361    1.077   .     S
C358   C470    1.383   .     S
Cu359  N371    2.038   .     S
Cu359  Cu360   2.712   .     S
Cu359  O380    1.999   .     S
Cu359  O373    1.974   .     S
Cu359  O376    1.980   .     S
Cu359  O377    1.995   .     S
Cu360  O379    1.999   .     S
Cu360  O375    1.980   .     S
Cu360  O374    1.974   .     S
Cu360  N372    2.038   .     S
Cu360  O378    1.995   .     S
I363   C392    2.150   .     S
I364   C431    2.150   1_455 S
C381   C384    1.462   .     S
C381   O413    1.302   .     A
C381   O411    1.308   .     A
C382   C384    1.400   .     A
C382   H400    1.077   .     S
C382   C623    1.383   1_545 S
C383   C389    1.462   .     S
C383   C395    1.411   .     A
C383   C396    1.400   .     A
C384   C394    1.411   .     A
C385   I405    2.141   .     S
C385   N410    1.379   .     A
C386   I406    2.141   .     S
C386   N409    1.379   .     A
C386   C730    1.428   .     S
C387   N409    1.379   .     A
C387   I407    2.153   .     S
C387   C727    1.428   .     S
C388   N410    1.379   .     A
C388   I408    2.153   .     S
C389   O414    1.302   .     A
C389   O412    1.308   .     A
C390   O415    1.293   .     A
C390   C392    1.454   .     S
C390   O417    1.311   .     A
C391   O418    1.311   .     A
C391   C393    1.454   .     S
C391   O416    1.293   .     A
C393   C430    1.367   .     S
C393   I440    2.150   .     S
C394   I403    2.126   .     S
C394   C624    1.383   1_545 S
C395   I404    2.126   .     S
C395   C496    1.383   .     S
C396   H399    1.077   .     S
C396   C508    1.383   .     S
Cu397  N409    2.038   .     S
Cu397  Cu398   2.712   .     S
Cu397  O418    1.999   .     S
Cu397  O411    1.974   .     S
Cu397  O414    1.980   .     S
Cu397  O415    1.995   .     S
Cu398  O417    1.999   .     S
Cu398  O413    1.980   .     S
Cu398  O412    1.974   .     S
Cu398  N410    2.038   .     S
Cu398  O416    1.995   .     S
I401   C430    2.150   .     S
C419   C422    1.462   .     S
C419   O451    1.302   .     A
C419   O449    1.308   .     A
C420   C422    1.400   .     A
C420   H438    1.077   .     S
C420   C661    1.383   1_545 S
C421   C427    1.462   .     S
C421   C433    1.411   .     A
C421   C434    1.400   .     A
C422   C432    1.411   .     A
C423   I443    2.141   .     S
C423   N448    1.379   .     A
C424   I444    2.141   .     S
C424   N447    1.379   .     A
C424   C768    1.428   .     S
C425   N447    1.379   .     A
C425   I445    2.153   .     S
C425   C765    1.428   .     S
C426   N448    1.379   .     A
C426   I446    2.153   .     S
C427   O452    1.302   .     A
C427   O450    1.308   .     A
C428   O453    1.293   .     A
C428   C430    1.454   .     S
C428   O455    1.311   .     A
C429   O456    1.311   .     A
C429   C431    1.454   .     S
C429   O454    1.293   .     A
C431   C354    1.367   1_655 S
C431   I364    2.150   1_655 S
C432   I441    2.126   .     S
C432   C662    1.383   1_545 S
C433   I442    2.126   .     S
C433   C534    1.383   .     S
C434   H437    1.077   .     S
C434   C546    1.383   .     S
Cu435  N447    2.038   .     S
Cu435  Cu436   2.712   .     S
Cu435  O456    1.999   .     S
Cu435  O449    1.974   .     S
Cu435  O452    1.980   .     S
Cu435  O453    1.995   .     S
Cu436  O455    1.999   .     S
Cu436  O451    1.980   .     S
Cu436  O450    1.974   .     S
Cu436  N448    2.038   .     S
Cu436  O454    1.995   .     S
I439   C354    2.150   1_655 S
C457   C460    1.462   .     S
C457   O489    1.302   .     A
C457   O487    1.308   .     A
C458   C460    1.400   .     A
C458   H476    1.077   .     S
C459   C465    1.462   .     S
C459   C471    1.411   .     A
C459   C472    1.400   .     A
C460   C470    1.411   .     A
C461   I481    2.141   .     S
C461   N486    1.379   .     A
C462   I482    2.141   .     S
C462   N485    1.379   .     A
C462   C806    1.428   .     S
C463   N485    1.379   .     A
C463   I483    2.153   .     S
C463   C803    1.428   .     S
C464   N486    1.379   .     A
C464   I484    2.153   .     S
C465   O490    1.302   .     A
C465   O488    1.308   .     A
C466   O491    1.293   .     A
C466   C468    1.454   .     S
C466   O493    1.311   .     A
C467   O494    1.311   .     A
C467   C469    1.454   .     S
C467   O492    1.293   .     A
C468   C545    1.367   1_455 S
C468   I553    2.150   1_455 S
C469   C506    1.367   .     S
C469   I516    2.150   .     S
C470   I479    2.126   .     S
C471   I480    2.126   .     S
C471   C572    1.383   .     S
C472   H475    1.077   .     S
C472   C584    1.383   .     S
Cu473  N485    2.038   .     S
Cu473  Cu474   2.712   .     S
Cu473  O494    1.999   .     S
Cu473  O487    1.974   .     S
Cu473  O490    1.980   .     S
Cu473  O491    1.995   .     S
Cu474  O493    1.999   .     S
Cu474  O489    1.980   .     S
Cu474  O488    1.974   .     S
Cu474  N486    2.038   .     S
Cu474  O492    1.995   .     S
I477   C506    2.150   .     S
I478   C545    2.150   1_455 S
C495   C498    1.462   .     S
C495   O527    1.302   .     A
C495   O525    1.308   .     A
C496   C498    1.400   .     A
C496   H514    1.077   .     S
C497   C503    1.462   .     S
C497   C509    1.411   .     A
C497   C510    1.400   .     A
C498   C508    1.411   .     A
C499   I519    2.141   .     S
C499   N524    1.379   .     A
C500   I520    2.141   .     S
C500   N523    1.379   .     A
C500   C844    1.428   .     S
C501   N523    1.379   .     A
C501   I521    2.153   .     S
C501   C841    1.428   .     S
C502   N524    1.379   .     A
C502   I522    2.153   .     S
C503   O528    1.302   .     A
C503   O526    1.308   .     A
C504   O529    1.293   .     A
C504   C506    1.454   .     S
C504   O531    1.311   .     A
C505   O532    1.311   .     A
C505   C507    1.454   .     S
C505   O530    1.293   .     A
C507   C544    1.367   .     S
C507   I554    2.150   .     S
C508   I517    2.126   .     S
C509   I518    2.126   .     S
C509   C610    1.383   .     S
C510   H513    1.077   .     S
C510   C622    1.383   .     S
Cu511  N523    2.038   .     S
Cu511  Cu512   2.712   .     S
Cu511  O532    1.999   .     S
Cu511  O525    1.974   .     S
Cu511  O528    1.980   .     S
Cu511  O529    1.995   .     S
Cu512  O531    1.999   .     S
Cu512  O527    1.980   .     S
Cu512  O526    1.974   .     S
Cu512  N524    2.038   .     S
Cu512  O530    1.995   .     S
I515   C544    2.150   .     S
C533   C536    1.462   .     S
C533   O565    1.302   .     A
C533   O563    1.308   .     A
C534   C536    1.400   .     A
C534   H552    1.077   .     S
C535   C541    1.462   .     S
C535   C547    1.411   .     A
C535   C548    1.400   .     A
C536   C546    1.411   .     A
C537   I557    2.141   .     S
C537   N562    1.379   .     A
C538   I558    2.141   .     S
C538   N561    1.379   .     A
C538   C882    1.428   .     S
C539   N561    1.379   .     A
C539   I559    2.153   .     S
C539   C879    1.428   .     S
C540   N562    1.379   .     A
C540   I560    2.153   .     S
C541   O566    1.302   .     A
C541   O564    1.308   .     A
C542   O567    1.293   .     A
C542   C544    1.454   .     S
C542   O569    1.311   .     A
C543   O570    1.311   .     A
C543   C545    1.454   .     S
C543   O568    1.293   .     A
C545   C468    1.367   1_655 S
C545   I478    2.150   1_655 S
C546   I555    2.126   .     S
C547   I556    2.126   .     S
C547   C648    1.383   .     S
C548   H551    1.077   .     S
C548   C660    1.383   .     S
Cu549  N561    2.038   .     S
Cu549  Cu550   2.712   .     S
Cu549  O570    1.999   .     S
Cu549  O563    1.974   .     S
Cu549  O566    1.980   .     S
Cu549  O567    1.995   .     S
Cu550  O569    1.999   .     S
Cu550  O565    1.980   .     S
Cu550  O564    1.974   .     S
Cu550  N562    2.038   .     S
Cu550  O568    1.995   .     S
I553   C468    2.150   1_655 S
C571   C574    1.462   .     S
C571   O603    1.302   .     A
C571   O601    1.308   .     A
C572   C574    1.400   .     A
C572   H590    1.077   .     S
C573   C579    1.462   .     S
C573   C585    1.411   .     A
C573   C586    1.400   .     A
C574   C584    1.411   .     A
C575   I595    2.141   .     S
C575   N600    1.379   .     A
C576   I596    2.141   .     S
C576   N599    1.379   .     A
C576   C920    1.428   .     S
C577   N599    1.379   .     A
C577   I597    2.153   .     S
C577   C917    1.428   .     S
C578   N600    1.379   .     A
C578   I598    2.153   .     S
C579   O604    1.302   .     A
C579   O602    1.308   .     A
C580   O605    1.293   .     A
C580   C582    1.454   .     S
C580   O607    1.311   .     A
C581   O608    1.311   .     A
C581   C583    1.454   .     S
C581   O606    1.293   .     A
C582   C659    1.367   1_455 S
C582   I667    2.150   1_455 S
C583   C620    1.367   .     S
C583   I630    2.150   .     S
C584   I593    2.126   .     S
C585   I594    2.126   .     S
C585   C344    1.383   1_565 S
C586   H589    1.077   .     S
C586   C356    1.383   1_565 S
Cu587  N599    2.038   .     S
Cu587  Cu588   2.712   .     S
Cu587  O608    1.999   .     S
Cu587  O601    1.974   .     S
Cu587  O604    1.980   .     S
Cu587  O605    1.995   .     S
Cu588  O607    1.999   .     S
Cu588  O603    1.980   .     S
Cu588  O602    1.974   .     S
Cu588  N600    2.038   .     S
Cu588  O606    1.995   .     S
I591   C620    2.150   .     S
I592   C659    2.150   1_455 S
C609   C612    1.462   .     S
C609   O641    1.302   .     A
C609   O639    1.308   .     A
C610   C612    1.400   .     A
C610   H628    1.077   .     S
C611   C617    1.462   .     S
C611   C623    1.411   .     A
C611   C624    1.400   .     A
C612   C622    1.411   .     A
C613   I633    2.141   .     S
C613   N638    1.379   .     A
C614   I634    2.141   .     S
C614   N637    1.379   .     A
C614   C958    1.428   .     S
C615   N637    1.379   .     A
C615   I635    2.153   .     S
C615   C955    1.428   .     S
C616   N638    1.379   .     A
C616   I636    2.153   .     S
C617   O642    1.302   .     A
C617   O640    1.308   .     A
C618   O643    1.293   .     A
C618   C620    1.454   .     S
C618   O645    1.311   .     A
C619   O646    1.311   .     A
C619   C621    1.454   .     S
C619   O644    1.293   .     A
C621   C658    1.367   .     S
C621   I668    2.150   .     S
C622   I631    2.126   .     S
C623   I632    2.126   .     S
C623   C382    1.383   1_565 S
C624   H627    1.077   .     S
C624   C394    1.383   1_565 S
Cu625  N637    2.038   .     S
Cu625  Cu626   2.712   .     S
Cu625  O646    1.999   .     S
Cu625  O639    1.974   .     S
Cu625  O642    1.980   .     S
Cu625  O643    1.995   .     S
Cu626  O645    1.999   .     S
Cu626  O641    1.980   .     S
Cu626  O640    1.974   .     S
Cu626  N638    2.038   .     S
Cu626  O644    1.995   .     S
I629   C658    2.150   .     S
C647   C650    1.462   .     S
C647   O679    1.302   .     A
C647   O677    1.308   .     A
C648   C650    1.400   .     A
C648   H666    1.077   .     S
C649   C655    1.462   .     S
C649   C661    1.411   .     A
C649   C662    1.400   .     A
C650   C660    1.411   .     A
C651   I671    2.141   .     S
C651   N676    1.379   .     A
C652   I672    2.141   .     S
C652   N675    1.379   .     A
C652   C996    1.428   .     S
C653   N675    1.379   .     A
C653   I673    2.153   .     S
C653   C993    1.428   .     S
C654   N676    1.379   .     A
C654   I674    2.153   .     S
C655   O680    1.302   .     A
C655   O678    1.308   .     A
C656   O681    1.293   .     A
C656   C658    1.454   .     S
C656   O683    1.311   .     A
C657   O684    1.311   .     A
C657   C659    1.454   .     S
C657   O682    1.293   .     A
C659   C582    1.367   1_655 S
C659   I592    2.150   1_655 S
C660   I669    2.126   .     S
C661   I670    2.126   .     S
C661   C420    1.383   1_565 S
C662   H665    1.077   .     S
C662   C432    1.383   1_565 S
Cu663  N675    2.038   .     S
Cu663  Cu664   2.712   .     S
Cu663  O684    1.999   .     S
Cu663  O677    1.974   .     S
Cu663  O680    1.980   .     S
Cu663  O681    1.995   .     S
Cu664  O683    1.999   .     S
Cu664  O679    1.980   .     S
Cu664  O678    1.974   .     S
Cu664  N676    2.038   .     S
Cu664  O682    1.995   .     S
I667   C582    2.150   1_655 S
C685   C688    1.462   .     S
C685   O717    1.302   .     A
C685   O715    1.308   .     A
C686   C688    1.400   .     A
C686   H704    1.077   .     S
C686   C927    1.383   1_545 S
C687   C693    1.462   .     S
C687   C699    1.411   .     A
C687   C700    1.400   .     A
C688   C698    1.411   .     A
C689   I709    2.141   .     S
C689   N714    1.379   .     A
C690   I710    2.141   .     S
C690   N713    1.379   .     A
C690   C8      1.428   1_556 S
C691   N713    1.379   .     A
C691   I711    2.153   .     S
C691   C5      1.428   1_556 S
C692   N714    1.379   .     A
C692   I712    2.153   .     S
C693   O718    1.302   .     A
C693   O716    1.308   .     A
C694   O719    1.293   .     A
C694   C696    1.454   .     S
C694   O721    1.311   .     A
C695   O722    1.311   .     A
C695   C697    1.454   .     S
C695   O720    1.293   .     A
C696   C773    1.367   1_455 S
C696   I781    2.150   1_455 S
C697   C734    1.367   .     S
C697   I744    2.150   .     S
C698   I707    2.126   .     S
C698   C928    1.383   1_545 S
C699   I708    2.126   .     S
C699   C800    1.383   .     S
C700   H703    1.077   .     S
C700   C812    1.383   .     S
Cu701  N713    2.038   .     S
Cu701  Cu702   2.712   .     S
Cu701  O722    1.999   .     S
Cu701  O715    1.974   .     S
Cu701  O718    1.980   .     S
Cu701  O719    1.995   .     S
Cu702  O721    1.999   .     S
Cu702  O717    1.980   .     S
Cu702  O716    1.974   .     S
Cu702  N714    2.038   .     S
Cu702  O720    1.995   .     S
I705   C734    2.150   .     S
I706   C773    2.150   1_455 S
C723   C726    1.462   .     S
C723   O755    1.302   .     A
C723   O753    1.308   .     A
C724   C726    1.400   .     A
C724   H742    1.077   .     S
C724   C965    1.383   1_545 S
C725   C731    1.462   .     S
C725   C737    1.411   .     A
C725   C738    1.400   .     A
C726   C736    1.411   .     A
C727   I747    2.141   .     S
C727   N752    1.379   .     A
C728   I748    2.141   .     S
C728   N751    1.379   .     A
C728   C46     1.428   1_556 S
C729   N751    1.379   .     A
C729   I749    2.153   .     S
C729   C43     1.428   1_556 S
C730   N752    1.379   .     A
C730   I750    2.153   .     S
C731   O756    1.302   .     A
C731   O754    1.308   .     A
C732   O757    1.293   .     A
C732   C734    1.454   .     S
C732   O759    1.311   .     A
C733   O760    1.311   .     A
C733   C735    1.454   .     S
C733   O758    1.293   .     A
C735   C772    1.367   .     S
C735   I782    2.150   .     S
C736   I745    2.126   .     S
C736   C966    1.383   1_545 S
C737   I746    2.126   .     S
C737   C838    1.383   .     S
C738   H741    1.077   .     S
C738   C850    1.383   .     S
Cu739  N751    2.038   .     S
Cu739  Cu740   2.712   .     S
Cu739  O760    1.999   .     S
Cu739  O753    1.974   .     S
Cu739  O756    1.980   .     S
Cu739  O757    1.995   .     S
Cu740  O759    1.999   .     S
Cu740  O755    1.980   .     S
Cu740  O754    1.974   .     S
Cu740  N752    2.038   .     S
Cu740  O758    1.995   .     S
I743   C772    2.150   .     S
C761   C764    1.462   .     S
C761   O793    1.302   .     A
C761   O791    1.308   .     A
C762   C764    1.400   .     A
C762   H780    1.077   .     S
C762   C1003   1.383   1_545 S
C763   C769    1.462   .     S
C763   C775    1.411   .     A
C763   C776    1.400   .     A
C764   C774    1.411   .     A
C765   I785    2.141   .     S
C765   N790    1.379   .     A
C766   I786    2.141   .     S
C766   N789    1.379   .     A
C766   C84     1.428   1_556 S
C767   N789    1.379   .     A
C767   I787    2.153   .     S
C767   C81     1.428   1_556 S
C768   N790    1.379   .     A
C768   I788    2.153   .     S
C769   O794    1.302   .     A
C769   O792    1.308   .     A
C770   O795    1.293   .     A
C770   C772    1.454   .     S
C770   O797    1.311   .     A
C771   O798    1.311   .     A
C771   C773    1.454   .     S
C771   O796    1.293   .     A
C773   C696    1.367   1_655 S
C773   I706    2.150   1_655 S
C774   I783    2.126   .     S
C774   C1004   1.383   1_545 S
C775   I784    2.126   .     S
C775   C876    1.383   .     S
C776   H779    1.077   .     S
C776   C888    1.383   .     S
Cu777  N789    2.038   .     S
Cu777  Cu778   2.712   .     S
Cu777  O798    1.999   .     S
Cu777  O791    1.974   .     S
Cu777  O794    1.980   .     S
Cu777  O795    1.995   .     S
Cu778  O797    1.999   .     S
Cu778  O793    1.980   .     S
Cu778  O792    1.974   .     S
Cu778  N790    2.038   .     S
Cu778  O796    1.995   .     S
I781   C696    2.150   1_655 S
C799   C802    1.462   .     S
C799   O831    1.302   .     A
C799   O829    1.308   .     A
C800   C802    1.400   .     A
C800   H818    1.077   .     S
C801   C807    1.462   .     S
C801   C813    1.411   .     A
C801   C814    1.400   .     A
C802   C812    1.411   .     A
C803   I823    2.141   .     S
C803   N828    1.379   .     A
C804   I824    2.141   .     S
C804   N827    1.379   .     A
C804   C122    1.428   1_556 S
C805   N827    1.379   .     A
C805   I825    2.153   .     S
C805   C119    1.428   1_556 S
C806   N828    1.379   .     A
C806   I826    2.153   .     S
C807   O832    1.302   .     A
C807   O830    1.308   .     A
C808   O833    1.293   .     A
C808   C810    1.454   .     S
C808   O835    1.311   .     A
C809   O836    1.311   .     A
C809   C811    1.454   .     S
C809   O834    1.293   .     A
C810   C887    1.367   1_455 S
C810   I895    2.150   1_455 S
C811   C848    1.367   .     S
C811   I858    2.150   .     S
C812   I821    2.126   .     S
C813   I822    2.126   .     S
C813   C914    1.383   .     S
C814   H817    1.077   .     S
C814   C926    1.383   .     S
Cu815  N827    2.038   .     S
Cu815  Cu816   2.712   .     S
Cu815  O836    1.999   .     S
Cu815  O829    1.974   .     S
Cu815  O832    1.980   .     S
Cu815  O833    1.995   .     S
Cu816  O835    1.999   .     S
Cu816  O831    1.980   .     S
Cu816  O830    1.974   .     S
Cu816  N828    2.038   .     S
Cu816  O834    1.995   .     S
I819   C848    2.150   .     S
I820   C887    2.150   1_455 S
C837   C840    1.462   .     S
C837   O869    1.302   .     A
C837   O867    1.308   .     A
C838   C840    1.400   .     A
C838   H856    1.077   .     S
C839   C845    1.462   .     S
C839   C851    1.411   .     A
C839   C852    1.400   .     A
C840   C850    1.411   .     A
C841   I861    2.141   .     S
C841   N866    1.379   .     A
C842   I862    2.141   .     S
C842   N865    1.379   .     A
C842   C160    1.428   1_556 S
C843   N865    1.379   .     A
C843   I863    2.153   .     S
C843   C157    1.428   1_556 S
C844   N866    1.379   .     A
C844   I864    2.153   .     S
C845   O870    1.302   .     A
C845   O868    1.308   .     A
C846   O871    1.293   .     A
C846   C848    1.454   .     S
C846   O873    1.311   .     A
C847   O874    1.311   .     A
C847   C849    1.454   .     S
C847   O872    1.293   .     A
C849   C886    1.367   .     S
C849   I896    2.150   .     S
C850   I859    2.126   .     S
C851   I860    2.126   .     S
C851   C952    1.383   .     S
C852   H855    1.077   .     S
C852   C964    1.383   .     S
Cu853  N865    2.038   .     S
Cu853  Cu854   2.712   .     S
Cu853  O874    1.999   .     S
Cu853  O867    1.974   .     S
Cu853  O870    1.980   .     S
Cu853  O871    1.995   .     S
Cu854  O873    1.999   .     S
Cu854  O869    1.980   .     S
Cu854  O868    1.974   .     S
Cu854  N866    2.038   .     S
Cu854  O872    1.995   .     S
I857   C886    2.150   .     S
C875   C878    1.462   .     S
C875   O907    1.302   .     A
C875   O905    1.308   .     A
C876   C878    1.400   .     A
C876   H894    1.077   .     S
C877   C883    1.462   .     S
C877   C889    1.411   .     A
C877   C890    1.400   .     A
C878   C888    1.411   .     A
C879   I899    2.141   .     S
C879   N904    1.379   .     A
C880   I900    2.141   .     S
C880   N903    1.379   .     A
C880   C198    1.428   1_556 S
C881   N903    1.379   .     A
C881   I901    2.153   .     S
C881   C195    1.428   1_556 S
C882   N904    1.379   .     A
C882   I902    2.153   .     S
C883   O908    1.302   .     A
C883   O906    1.308   .     A
C884   O909    1.293   .     A
C884   C886    1.454   .     S
C884   O911    1.311   .     A
C885   O912    1.311   .     A
C885   C887    1.454   .     S
C885   O910    1.293   .     A
C887   C810    1.367   1_655 S
C887   I820    2.150   1_655 S
C888   I897    2.126   .     S
C889   I898    2.126   .     S
C889   C990    1.383   .     S
C890   H893    1.077   .     S
C890   C1002   1.383   .     S
Cu891  N903    2.038   .     S
Cu891  Cu892   2.712   .     S
Cu891  O912    1.999   .     S
Cu891  O905    1.974   .     S
Cu891  O908    1.980   .     S
Cu891  O909    1.995   .     S
Cu892  O911    1.999   .     S
Cu892  O907    1.980   .     S
Cu892  O906    1.974   .     S
Cu892  N904    2.038   .     S
Cu892  O910    1.995   .     S
I895   C810    2.150   1_655 S
C913   C916    1.462   .     S
C913   O945    1.302   .     A
C913   O943    1.308   .     A
C914   C916    1.400   .     A
C914   H932    1.077   .     S
C915   C921    1.462   .     S
C915   C927    1.411   .     A
C915   C928    1.400   .     A
C916   C926    1.411   .     A
C917   I937    2.141   .     S
C917   N942    1.379   .     A
C918   I938    2.141   .     S
C918   N941    1.379   .     A
C918   C236    1.428   1_556 S
C919   N941    1.379   .     A
C919   I939    2.153   .     S
C919   C233    1.428   1_556 S
C920   N942    1.379   .     A
C920   I940    2.153   .     S
C921   O946    1.302   .     A
C921   O944    1.308   .     A
C922   O947    1.293   .     A
C922   C924    1.454   .     S
C922   O949    1.311   .     A
C923   O950    1.311   .     A
C923   C925    1.454   .     S
C923   O948    1.293   .     A
C924   C1001   1.367   1_455 S
C924   I1009   2.150   1_455 S
C925   C962    1.367   .     S
C925   I972    2.150   .     S
C926   I935    2.126   .     S
C927   I936    2.126   .     S
C927   C686    1.383   1_565 S
C928   H931    1.077   .     S
C928   C698    1.383   1_565 S
Cu929  N941    2.038   .     S
Cu929  Cu930   2.712   .     S
Cu929  O950    1.999   .     S
Cu929  O943    1.974   .     S
Cu929  O946    1.980   .     S
Cu929  O947    1.995   .     S
Cu930  O949    1.999   .     S
Cu930  O945    1.980   .     S
Cu930  O944    1.974   .     S
Cu930  N942    2.038   .     S
Cu930  O948    1.995   .     S
I933   C962    2.150   .     S
I934   C1001   2.150   1_455 S
C951   C954    1.462   .     S
C951   O983    1.302   .     A
C951   O981    1.308   .     A
C952   C954    1.400   .     A
C952   H970    1.077   .     S
C953   C959    1.462   .     S
C953   C965    1.411   .     A
C953   C966    1.400   .     A
C954   C964    1.411   .     A
C955   I975    2.141   .     S
C955   N980    1.379   .     A
C956   I976    2.141   .     S
C956   N979    1.379   .     A
C956   C274    1.428   1_556 S
C957   N979    1.379   .     A
C957   I977    2.153   .     S
C957   C271    1.428   1_556 S
C958   N980    1.379   .     A
C958   I978    2.153   .     S
C959   O984    1.302   .     A
C959   O982    1.308   .     A
C960   O985    1.293   .     A
C960   C962    1.454   .     S
C960   O987    1.311   .     A
C961   O988    1.311   .     A
C961   C963    1.454   .     S
C961   O986    1.293   .     A
C963   C1000   1.367   .     S
C963   I1010   2.150   .     S
C964   I973    2.126   .     S
C965   I974    2.126   .     S
C965   C724    1.383   1_565 S
C966   H969    1.077   .     S
C966   C736    1.383   1_565 S
Cu967  N979    2.038   .     S
Cu967  Cu968   2.712   .     S
Cu967  O988    1.999   .     S
Cu967  O981    1.974   .     S
Cu967  O984    1.980   .     S
Cu967  O985    1.995   .     S
Cu968  O987    1.999   .     S
Cu968  O983    1.980   .     S
Cu968  O982    1.974   .     S
Cu968  N980    2.038   .     S
Cu968  O986    1.995   .     S
I971   C1000   2.150   .     S
C989   C992    1.462   .     S
C989   O1021   1.302   .     A
C989   O1019   1.308   .     A
C990   C992    1.400   .     A
C990   H1008   1.077   .     S
C991   C997    1.462   .     S
C991   C1003   1.411   .     A
C991   C1004   1.400   .     A
C992   C1002   1.411   .     A
C993   I1013   2.141   .     S
C993   N1018   1.379   .     A
C994   I1014   2.141   .     S
C994   N1017   1.379   .     A
C994   C312    1.428   1_556 S
C995   N1017   1.379   .     A
C995   I1015   2.153   .     S
C995   C309    1.428   1_556 S
C996   N1018   1.379   .     A
C996   I1016   2.153   .     S
C997   O1022   1.302   .     A
C997   O1020   1.308   .     A
C998   O1023   1.293   .     A
C998   C1000   1.454   .     S
C998   O1025   1.311   .     A
C999   O1026   1.311   .     A
C999   C1001   1.454   .     S
C999   O1024   1.293   .     A
C1001  C924    1.367   1_655 S
C1001  I934    2.150   1_655 S
C1002  I1011   2.126   .     S
C1003  I1012   2.126   .     S
C1003  C762    1.383   1_565 S
C1004  H1007   1.077   .     S
C1004  C774    1.383   1_565 S
Cu1005 N1017   2.038   .     S
Cu1005 Cu1006  2.712   .     S
Cu1005 O1026   1.999   .     S
Cu1005 O1019   1.974   .     S
Cu1005 O1022   1.980   .     S
Cu1005 O1023   1.995   .     S
Cu1006 O1025   1.999   .     S
Cu1006 O1021   1.980   .     S
Cu1006 O1020   1.974   .     S
Cu1006 N1018   2.038   .     S
Cu1006 O1024   1.995   .     S
I1009  C924    2.150   1_655 S
