data_str_m1_o10_o18_pcu_sym.257
_audit_creation_date              2020-01-03
_audit_creation_method            'Materials Studio'
_symmetry_space_group_name_H-M    'P1'
_symmetry_Int_Tables_number       1
_symmetry_cell_setting            triclinic
loop_
_symmetry_equiv_pos_as_xyz
  x,y,z
_cell_length_a                    32.6596
_cell_length_b                    32.6027
_cell_length_c                    35.6942
_cell_angle_alpha                 98.3609
_cell_angle_beta                  72.9373
_cell_angle_gamma                 98.2122
loop_
_atom_site_label
_atom_site_type_symbol
_atom_site_fract_x
_atom_site_fract_y
_atom_site_fract_z
_atom_site_U_iso_or_equiv
_atom_site_adp_type
_atom_site_occupancy
C1     C     0.05276   0.16041   0.25848   0.00000  Uiso   1.00
C2     C     0.19740   0.12730   0.45913   0.00000  Uiso   1.00
C3     C     0.22236   0.11312   0.47901   0.00000  Uiso   1.00
C4     C     0.28094   0.17342   0.24139   0.00000  Uiso   1.00
C5     C     0.21378   0.12143   0.01974   0.00000  Uiso   1.00
C6     C     0.17750   0.14231   0.04179   0.00000  Uiso   1.00
C7     C     0.24097   0.10843   0.03869   0.00000  Uiso   1.00
C8     C     0.23292   0.11629   0.07943   0.00000  Uiso   1.00
C9     C     0.16988   0.14953   0.08308   0.00000  Uiso   1.00
C10    C     0.32676   0.17397   0.23744   0.00000  Uiso   1.00
C11    C     0.00684   0.15779   0.26397   0.00000  Uiso   1.00
C12    C     0.09067   0.20522   0.42138   0.00000  Uiso   1.00
C13    C     0.18058   0.32245   0.24020   0.00000  Uiso   1.00
C14    C     0.14973   0.01234   0.26311   0.00000  Uiso   1.00
C15    C     0.15615   0.05632   0.25867   0.00000  Uiso   1.00
C16    C     0.17662   0.27768   0.24163   0.00000  Uiso   1.00
C17    C     0.18825   0.14524   0.14410   0.00000  Uiso   1.00
C18    C     0.14484   0.18735   0.35630   0.00000  Uiso   1.00
C19    C     0.13057   0.19100   0.39976   0.00000  Uiso   1.00
C20    C     0.19722   0.13663   0.10153   0.00000  Uiso   1.00
C21    C     0.07738   0.20524   0.46237   0.00000  Uiso   1.00
C22    C     0.32501   0.11417   0.31349   0.00000  Uiso   1.00
C23    C     0.15550   0.17576   0.41944   0.00000  Uiso   1.00
C24    C     0.08802   0.02173   0.31576   0.00000  Uiso   1.00
C25    C     0.03046   0.19095   0.40032   0.00000  Uiso   1.00
C26    C     0.14032   0.17121   0.45996   0.00000  Uiso   1.00
C27    C     0.10160   0.18825   0.48174   0.00000  Uiso   1.00
C28    C     0.16339   0.15187   0.47968   0.00000  Uiso   1.00
C29    C     0.15103   0.15615   0.02174   0.00000  Uiso   1.00
C30    C     0.11229   0.17351   0.04231   0.00000  Uiso   1.00
C31    C     0.08764   0.18845   0.02262   0.00000  Uiso   1.00
F32    F     0.05034   0.20415   0.04399   0.00000  Uiso   1.00
F33    F     0.02245   0.18995   0.20565   0.00000  Uiso   1.00
F34    F     0.21676   0.00721   0.21558   0.00000  Uiso   1.00
F35    F     0.25968   0.10381   0.09734   0.00000  Uiso   1.00
F36    F     0.20487   0.11326   0.42030   0.00000  Uiso   1.00
H37    H     0.26864   0.09240   0.02190   0.00000  Uiso   1.00
H38    H     0.07447   0.04430   0.30335   0.00000  Uiso   1.00
H39    H     0.10869   0.03825   0.33431   0.00000  Uiso   1.00
H40    H     0.06057   0.00380   0.33521   0.00000  Uiso   1.00
H41    H     0.04143   0.16028   0.38573   0.00000  Uiso   1.00
H42    H     0.01277   0.20179   0.38204   0.00000  Uiso   1.00
H43    H     0.00758   0.18731   0.42993   0.00000  Uiso   1.00
H44    H     0.14391   0.16636   0.10181   0.00000  Uiso   1.00
H45    H     0.24859   0.09513   0.46227   0.00000  Uiso   1.00
H46    H     0.04762   0.21808   0.47884   0.00000  Uiso   1.00
H47    H     0.18739   0.16882   0.40252   0.00000  Uiso   1.00
H48    H     0.09925   0.17491   0.07383   0.00000  Uiso   1.00
H49    H     0.01931   0.12619   0.32563   0.00000  Uiso   1.00
H50    H     0.00008   0.08753   0.29031   0.00000  Uiso   1.00
H51    H     0.29825   0.10228   0.33795   0.00000  Uiso   1.00
O52    O     0.16667   0.16667   0.25000   0.00000  Uiso   1.00
O53    O     0.15693   0.12393   0.16625   0.00000  Uiso   1.00
O54    O     0.12687   0.20646   0.33749   0.00000  Uiso   1.00
O55    O     0.21088   0.17493   0.15877   0.00000  Uiso   1.00
O56    O     0.17198   0.16135   0.33749   0.00000  Uiso   1.00
O57    O     0.31110   0.14627   0.29912   0.00000  Uiso   1.00
O58    O     0.11069   0.32691   0.28550   0.00000  Uiso   1.00
O59    O     0.06554   0.22093   0.40282   0.00000  Uiso   1.00
O60    O     0.17849   0.08101   0.27820   0.00000  Uiso   1.00
O61    O     0.14581   0.26136   0.26767   0.00000  Uiso   1.00
O62    O     0.07452   0.13251   0.23607   0.00000  Uiso   1.00
O63    O     0.26785   0.19179   0.21805   0.00000  Uiso   1.00
O64    O     0.06990   0.18960   0.27820   0.00000  Uiso   1.00
O65    O     0.25440   0.15277   0.26767   0.00000  Uiso   1.00
O66    O     0.13800   0.06903   0.23607   0.00000  Uiso   1.00
O67    O     0.20437   0.25527   0.21806   0.00000  Uiso   1.00
Zn68   Zn    0.19244   0.14090   0.28277   0.00000  Uiso   1.00
Zn69   Zn    0.13459   0.12378   0.22257   0.00000  Uiso   1.00
Zn70   Zn    0.21166   0.19664   0.21188   0.00000  Uiso   1.00
Zn71   Zn    0.12798   0.20535   0.28277   0.00000  Uiso   1.00
C72    C     0.38609   0.16041   0.25848   0.00000  Uiso   1.00
C73    C     0.53073   0.12730   0.45913   0.00000  Uiso   1.00
C74    C     0.55569   0.11312   0.47901   0.00000  Uiso   1.00
C75    C     0.61428   0.17342   0.24139   0.00000  Uiso   1.00
C76    C     0.54711   0.12143   0.01974   0.00000  Uiso   1.00
C77    C     0.51084   0.14231   0.04179   0.00000  Uiso   1.00
C78    C     0.57430   0.10843   0.03869   0.00000  Uiso   1.00
C79    C     0.56626   0.11629   0.07943   0.00000  Uiso   1.00
C80    C     0.50321   0.14953   0.08308   0.00000  Uiso   1.00
C81    C     0.66009   0.17397   0.23744   0.00000  Uiso   1.00
C82    C     0.34017   0.15779   0.26397   0.00000  Uiso   1.00
C83    C     0.42400   0.20522   0.42138   0.00000  Uiso   1.00
C84    C     0.51391   0.32245   0.24020   0.00000  Uiso   1.00
C85    C     0.48306   0.01234   0.26311   0.00000  Uiso   1.00
C86    C     0.48949   0.05632   0.25867   0.00000  Uiso   1.00
C87    C     0.50995   0.27768   0.24163   0.00000  Uiso   1.00
C88    C     0.52159   0.14524   0.14410   0.00000  Uiso   1.00
C89    C     0.47818   0.18735   0.35630   0.00000  Uiso   1.00
C90    C     0.46391   0.19100   0.39976   0.00000  Uiso   1.00
C91    C     0.53056   0.13663   0.10153   0.00000  Uiso   1.00
C92    C     0.41071   0.20524   0.46237   0.00000  Uiso   1.00
C93    C     0.65835   0.11417   0.31349   0.00000  Uiso   1.00
C94    C     0.48883   0.17576   0.41944   0.00000  Uiso   1.00
C95    C     0.42135   0.02173   0.31576   0.00000  Uiso   1.00
C96    C     0.36379   0.19095   0.40032   0.00000  Uiso   1.00
C97    C     0.47365   0.17121   0.45996   0.00000  Uiso   1.00
C98    C     0.43493   0.18825   0.48174   0.00000  Uiso   1.00
C99    C     0.49672   0.15187   0.47968   0.00000  Uiso   1.00
C100   C     0.48436   0.15615   0.02174   0.00000  Uiso   1.00
C101   C     0.44562   0.17351   0.04231   0.00000  Uiso   1.00
C102   C     0.42097   0.18845   0.02262   0.00000  Uiso   1.00
F103   F     0.38367   0.20415   0.04399   0.00000  Uiso   1.00
F104   F     0.35578   0.18995   0.20565   0.00000  Uiso   1.00
F105   F     0.55010   0.00721   0.21558   0.00000  Uiso   1.00
F106   F     0.59302   0.10381   0.09734   0.00000  Uiso   1.00
F107   F     0.53821   0.11326   0.42030   0.00000  Uiso   1.00
H108   H     0.60197   0.09240   0.02190   0.00000  Uiso   1.00
H109   H     0.40780   0.04430   0.30335   0.00000  Uiso   1.00
H110   H     0.44203   0.03825   0.33431   0.00000  Uiso   1.00
H111   H     0.39390   0.00380   0.33521   0.00000  Uiso   1.00
H112   H     0.37476   0.16028   0.38573   0.00000  Uiso   1.00
H113   H     0.34610   0.20179   0.38204   0.00000  Uiso   1.00
H114   H     0.34092   0.18731   0.42993   0.00000  Uiso   1.00
H115   H     0.47724   0.16636   0.10181   0.00000  Uiso   1.00
H116   H     0.58192   0.09513   0.46227   0.00000  Uiso   1.00
H117   H     0.38096   0.21808   0.47884   0.00000  Uiso   1.00
H118   H     0.52072   0.16882   0.40252   0.00000  Uiso   1.00
H119   H     0.43258   0.17491   0.07383   0.00000  Uiso   1.00
H120   H     0.35264   0.12619   0.32563   0.00000  Uiso   1.00
H121   H     0.33341   0.08753   0.29031   0.00000  Uiso   1.00
H122   H     0.63158   0.10228   0.33795   0.00000  Uiso   1.00
O123   O     0.50000   0.16667   0.25000   0.00000  Uiso   1.00
O124   O     0.49027   0.12393   0.16625   0.00000  Uiso   1.00
O125   O     0.46020   0.20646   0.33749   0.00000  Uiso   1.00
O126   O     0.54421   0.17493   0.15877   0.00000  Uiso   1.00
O127   O     0.50532   0.16135   0.33749   0.00000  Uiso   1.00
O128   O     0.64443   0.14627   0.29912   0.00000  Uiso   1.00
O129   O     0.44403   0.32691   0.28550   0.00000  Uiso   1.00
O130   O     0.39887   0.22093   0.40282   0.00000  Uiso   1.00
O131   O     0.51182   0.08101   0.27820   0.00000  Uiso   1.00
O132   O     0.47914   0.26136   0.26767   0.00000  Uiso   1.00
O133   O     0.40785   0.13251   0.23607   0.00000  Uiso   1.00
O134   O     0.60119   0.19179   0.21805   0.00000  Uiso   1.00
O135   O     0.40323   0.18960   0.27820   0.00000  Uiso   1.00
O136   O     0.58773   0.15277   0.26767   0.00000  Uiso   1.00
O137   O     0.47133   0.06903   0.23607   0.00000  Uiso   1.00
O138   O     0.53771   0.25527   0.21806   0.00000  Uiso   1.00
Zn139  Zn    0.52577   0.14090   0.28277   0.00000  Uiso   1.00
Zn140  Zn    0.46792   0.12378   0.22257   0.00000  Uiso   1.00
Zn141  Zn    0.54500   0.19664   0.21188   0.00000  Uiso   1.00
Zn142  Zn    0.46131   0.20535   0.28277   0.00000  Uiso   1.00
C143   C     0.71943   0.16041   0.25848   0.00000  Uiso   1.00
C144   C     0.86407   0.12730   0.45913   0.00000  Uiso   1.00
C145   C     0.88903   0.11312   0.47901   0.00000  Uiso   1.00
C146   C     0.94761   0.17342   0.24139   0.00000  Uiso   1.00
C147   C     0.88045   0.12143   0.01974   0.00000  Uiso   1.00
C148   C     0.84417   0.14231   0.04179   0.00000  Uiso   1.00
C149   C     0.90764   0.10843   0.03869   0.00000  Uiso   1.00
C150   C     0.89959   0.11629   0.07943   0.00000  Uiso   1.00
C151   C     0.83654   0.14953   0.08308   0.00000  Uiso   1.00
C152   C     0.99343   0.17397   0.23744   0.00000  Uiso   1.00
C153   C     0.67351   0.15779   0.26397   0.00000  Uiso   1.00
C154   C     0.75734   0.20522   0.42138   0.00000  Uiso   1.00
C155   C     0.84724   0.32245   0.24020   0.00000  Uiso   1.00
C156   C     0.81639   0.01234   0.26311   0.00000  Uiso   1.00
C157   C     0.82282   0.05632   0.25867   0.00000  Uiso   1.00
C158   C     0.84328   0.27768   0.24163   0.00000  Uiso   1.00
C159   C     0.85492   0.14524   0.14410   0.00000  Uiso   1.00
C160   C     0.81151   0.18735   0.35630   0.00000  Uiso   1.00
C161   C     0.79724   0.19100   0.39976   0.00000  Uiso   1.00
C162   C     0.86389   0.13663   0.10153   0.00000  Uiso   1.00
C163   C     0.74404   0.20524   0.46237   0.00000  Uiso   1.00
C164   C     0.99168   0.11417   0.31349   0.00000  Uiso   1.00
C165   C     0.82216   0.17576   0.41944   0.00000  Uiso   1.00
C166   C     0.75468   0.02173   0.31576   0.00000  Uiso   1.00
C167   C     0.69713   0.19095   0.40032   0.00000  Uiso   1.00
C168   C     0.80698   0.17121   0.45996   0.00000  Uiso   1.00
C169   C     0.76827   0.18825   0.48174   0.00000  Uiso   1.00
C170   C     0.83006   0.15187   0.47968   0.00000  Uiso   1.00
C171   C     0.81770   0.15615   0.02174   0.00000  Uiso   1.00
C172   C     0.77895   0.17351   0.04231   0.00000  Uiso   1.00
C173   C     0.75430   0.18845   0.02262   0.00000  Uiso   1.00
F174   F     0.71700   0.20415   0.04399   0.00000  Uiso   1.00
F175   F     0.68912   0.18995   0.20565   0.00000  Uiso   1.00
F176   F     0.88343   0.00721   0.21558   0.00000  Uiso   1.00
F177   F     0.92635   0.10381   0.09734   0.00000  Uiso   1.00
F178   F     0.87154   0.11326   0.42030   0.00000  Uiso   1.00
H179   H     0.93531   0.09240   0.02190   0.00000  Uiso   1.00
H180   H     0.74113   0.04430   0.30335   0.00000  Uiso   1.00
H181   H     0.77536   0.03825   0.33431   0.00000  Uiso   1.00
H182   H     0.72723   0.00380   0.33521   0.00000  Uiso   1.00
H183   H     0.70810   0.16028   0.38573   0.00000  Uiso   1.00
H184   H     0.67943   0.20179   0.38204   0.00000  Uiso   1.00
H185   H     0.67425   0.18731   0.42993   0.00000  Uiso   1.00
H186   H     0.81057   0.16636   0.10181   0.00000  Uiso   1.00
H187   H     0.91525   0.09513   0.46227   0.00000  Uiso   1.00
H188   H     0.71429   0.21808   0.47884   0.00000  Uiso   1.00
H189   H     0.85405   0.16882   0.40252   0.00000  Uiso   1.00
H190   H     0.76592   0.17491   0.07383   0.00000  Uiso   1.00
H191   H     0.68597   0.12619   0.32563   0.00000  Uiso   1.00
H192   H     0.66674   0.08753   0.29031   0.00000  Uiso   1.00
H193   H     0.96491   0.10228   0.33795   0.00000  Uiso   1.00
O194   O     0.83333   0.16667   0.25000   0.00000  Uiso   1.00
O195   O     0.82360   0.12393   0.16625   0.00000  Uiso   1.00
O196   O     0.79354   0.20646   0.33749   0.00000  Uiso   1.00
O197   O     0.87755   0.17493   0.15877   0.00000  Uiso   1.00
O198   O     0.83865   0.16135   0.33749   0.00000  Uiso   1.00
O199   O     0.97776   0.14627   0.29912   0.00000  Uiso   1.00
O200   O     0.77736   0.32691   0.28550   0.00000  Uiso   1.00
O201   O     0.73220   0.22093   0.40282   0.00000  Uiso   1.00
O202   O     0.84515   0.08101   0.27820   0.00000  Uiso   1.00
O203   O     0.81247   0.26136   0.26767   0.00000  Uiso   1.00
O204   O     0.74119   0.13251   0.23607   0.00000  Uiso   1.00
O205   O     0.93452   0.19179   0.21805   0.00000  Uiso   1.00
O206   O     0.73656   0.18960   0.27820   0.00000  Uiso   1.00
O207   O     0.92106   0.15277   0.26767   0.00000  Uiso   1.00
O208   O     0.80467   0.06903   0.23607   0.00000  Uiso   1.00
O209   O     0.87104   0.25527   0.21806   0.00000  Uiso   1.00
Zn210  Zn    0.85910   0.14090   0.28277   0.00000  Uiso   1.00
Zn211  Zn    0.80125   0.12378   0.22257   0.00000  Uiso   1.00
Zn212  Zn    0.87833   0.19664   0.21188   0.00000  Uiso   1.00
Zn213  Zn    0.79465   0.20535   0.28277   0.00000  Uiso   1.00
C214   C     0.05276   0.49374   0.25848   0.00000  Uiso   1.00
C215   C     0.19740   0.46063   0.45913   0.00000  Uiso   1.00
C216   C     0.22236   0.44645   0.47901   0.00000  Uiso   1.00
C217   C     0.28094   0.50675   0.24139   0.00000  Uiso   1.00
C218   C     0.21378   0.45476   0.01974   0.00000  Uiso   1.00
C219   C     0.17750   0.47564   0.04179   0.00000  Uiso   1.00
C220   C     0.24097   0.44176   0.03869   0.00000  Uiso   1.00
C221   C     0.23292   0.44962   0.07943   0.00000  Uiso   1.00
C222   C     0.16988   0.48286   0.08308   0.00000  Uiso   1.00
C223   C     0.32676   0.50730   0.23744   0.00000  Uiso   1.00
C224   C     0.00684   0.49112   0.26397   0.00000  Uiso   1.00
C225   C     0.09067   0.53855   0.42138   0.00000  Uiso   1.00
C226   C     0.18058   0.65578   0.24020   0.00000  Uiso   1.00
C227   C     0.14973   0.34568   0.26311   0.00000  Uiso   1.00
C228   C     0.15615   0.38965   0.25867   0.00000  Uiso   1.00
C229   C     0.17662   0.61101   0.24163   0.00000  Uiso   1.00
C230   C     0.18825   0.47857   0.14410   0.00000  Uiso   1.00
C231   C     0.14484   0.52068   0.35630   0.00000  Uiso   1.00
C232   C     0.13057   0.52433   0.39976   0.00000  Uiso   1.00
C233   C     0.19722   0.46997   0.10153   0.00000  Uiso   1.00
C234   C     0.07738   0.53857   0.46237   0.00000  Uiso   1.00
C235   C     0.32501   0.44751   0.31349   0.00000  Uiso   1.00
C236   C     0.15550   0.50910   0.41944   0.00000  Uiso   1.00
C237   C     0.08802   0.35506   0.31576   0.00000  Uiso   1.00
C238   C     0.03046   0.52429   0.40032   0.00000  Uiso   1.00
C239   C     0.14032   0.50454   0.45996   0.00000  Uiso   1.00
C240   C     0.10160   0.52159   0.48174   0.00000  Uiso   1.00
C241   C     0.16339   0.48520   0.47968   0.00000  Uiso   1.00
C242   C     0.15103   0.48948   0.02174   0.00000  Uiso   1.00
C243   C     0.11229   0.50684   0.04231   0.00000  Uiso   1.00
C244   C     0.08764   0.52178   0.02262   0.00000  Uiso   1.00
F245   F     0.05034   0.53748   0.04399   0.00000  Uiso   1.00
F246   F     0.02245   0.52328   0.20565   0.00000  Uiso   1.00
F247   F     0.21676   0.34054   0.21558   0.00000  Uiso   1.00
F248   F     0.25968   0.43715   0.09734   0.00000  Uiso   1.00
F249   F     0.20487   0.44660   0.42030   0.00000  Uiso   1.00
H250   H     0.26864   0.42574   0.02190   0.00000  Uiso   1.00
H251   H     0.07447   0.37764   0.30335   0.00000  Uiso   1.00
H252   H     0.10869   0.37159   0.33431   0.00000  Uiso   1.00
H253   H     0.06057   0.33714   0.33521   0.00000  Uiso   1.00
H254   H     0.04143   0.49361   0.38573   0.00000  Uiso   1.00
H255   H     0.01277   0.53512   0.38204   0.00000  Uiso   1.00
H256   H     0.00758   0.52064   0.42993   0.00000  Uiso   1.00
H257   H     0.14391   0.49969   0.10181   0.00000  Uiso   1.00
H258   H     0.24859   0.42846   0.46227   0.00000  Uiso   1.00
H259   H     0.04762   0.55141   0.47884   0.00000  Uiso   1.00
H260   H     0.18739   0.50216   0.40252   0.00000  Uiso   1.00
H261   H     0.09925   0.50824   0.07383   0.00000  Uiso   1.00
H262   H     0.01931   0.45952   0.32563   0.00000  Uiso   1.00
H263   H     0.00008   0.42087   0.29031   0.00000  Uiso   1.00
H264   H     0.29825   0.43561   0.33795   0.00000  Uiso   1.00
O265   O     0.16667   0.50000   0.25000   0.00000  Uiso   1.00
O266   O     0.15693   0.45726   0.16625   0.00000  Uiso   1.00
O267   O     0.12687   0.53979   0.33749   0.00000  Uiso   1.00
O268   O     0.21088   0.50826   0.15877   0.00000  Uiso   1.00
O269   O     0.17198   0.49468   0.33749   0.00000  Uiso   1.00
O270   O     0.31110   0.47960   0.29912   0.00000  Uiso   1.00
O271   O     0.11069   0.66024   0.28550   0.00000  Uiso   1.00
O272   O     0.06554   0.55426   0.40282   0.00000  Uiso   1.00
O273   O     0.17849   0.41434   0.27820   0.00000  Uiso   1.00
O274   O     0.14581   0.59469   0.26767   0.00000  Uiso   1.00
O275   O     0.07452   0.46584   0.23607   0.00000  Uiso   1.00
O276   O     0.26785   0.52512   0.21805   0.00000  Uiso   1.00
O277   O     0.06990   0.52293   0.27820   0.00000  Uiso   1.00
O278   O     0.25440   0.48610   0.26767   0.00000  Uiso   1.00
O279   O     0.13800   0.40236   0.23607   0.00000  Uiso   1.00
O280   O     0.20437   0.58860   0.21806   0.00000  Uiso   1.00
Zn281  Zn    0.19244   0.47423   0.28277   0.00000  Uiso   1.00
Zn282  Zn    0.13459   0.45711   0.22257   0.00000  Uiso   1.00
Zn283  Zn    0.21166   0.52997   0.21188   0.00000  Uiso   1.00
Zn284  Zn    0.12798   0.53868   0.28277   0.00000  Uiso   1.00
C285   C     0.38609   0.49374   0.25848   0.00000  Uiso   1.00
C286   C     0.53073   0.46063   0.45913   0.00000  Uiso   1.00
C287   C     0.55569   0.44645   0.47901   0.00000  Uiso   1.00
C288   C     0.61428   0.50675   0.24139   0.00000  Uiso   1.00
C289   C     0.54711   0.45476   0.01974   0.00000  Uiso   1.00
C290   C     0.51084   0.47564   0.04179   0.00000  Uiso   1.00
C291   C     0.57430   0.44176   0.03869   0.00000  Uiso   1.00
C292   C     0.56626   0.44962   0.07943   0.00000  Uiso   1.00
C293   C     0.50321   0.48286   0.08308   0.00000  Uiso   1.00
C294   C     0.66009   0.50730   0.23744   0.00000  Uiso   1.00
C295   C     0.34017   0.49112   0.26397   0.00000  Uiso   1.00
C296   C     0.42400   0.53855   0.42138   0.00000  Uiso   1.00
C297   C     0.51391   0.65578   0.24020   0.00000  Uiso   1.00
C298   C     0.48306   0.34568   0.26311   0.00000  Uiso   1.00
C299   C     0.48949   0.38965   0.25867   0.00000  Uiso   1.00
C300   C     0.50995   0.61101   0.24163   0.00000  Uiso   1.00
C301   C     0.52159   0.47857   0.14410   0.00000  Uiso   1.00
C302   C     0.47818   0.52068   0.35630   0.00000  Uiso   1.00
C303   C     0.46391   0.52433   0.39976   0.00000  Uiso   1.00
C304   C     0.53056   0.46997   0.10153   0.00000  Uiso   1.00
C305   C     0.41071   0.53857   0.46237   0.00000  Uiso   1.00
C306   C     0.65835   0.44751   0.31349   0.00000  Uiso   1.00
C307   C     0.48883   0.50910   0.41944   0.00000  Uiso   1.00
C308   C     0.42135   0.35506   0.31576   0.00000  Uiso   1.00
C309   C     0.36379   0.52429   0.40032   0.00000  Uiso   1.00
C310   C     0.47365   0.50454   0.45996   0.00000  Uiso   1.00
C311   C     0.43493   0.52159   0.48174   0.00000  Uiso   1.00
C312   C     0.49672   0.48520   0.47968   0.00000  Uiso   1.00
C313   C     0.48436   0.48948   0.02174   0.00000  Uiso   1.00
C314   C     0.44562   0.50684   0.04231   0.00000  Uiso   1.00
C315   C     0.42097   0.52178   0.02262   0.00000  Uiso   1.00
F316   F     0.38367   0.53748   0.04399   0.00000  Uiso   1.00
F317   F     0.35578   0.52328   0.20565   0.00000  Uiso   1.00
F318   F     0.55010   0.34054   0.21558   0.00000  Uiso   1.00
F319   F     0.59302   0.43715   0.09734   0.00000  Uiso   1.00
F320   F     0.53821   0.44660   0.42030   0.00000  Uiso   1.00
H321   H     0.60197   0.42574   0.02190   0.00000  Uiso   1.00
H322   H     0.40780   0.37764   0.30335   0.00000  Uiso   1.00
H323   H     0.44203   0.37159   0.33431   0.00000  Uiso   1.00
H324   H     0.39390   0.33714   0.33521   0.00000  Uiso   1.00
H325   H     0.37476   0.49361   0.38573   0.00000  Uiso   1.00
H326   H     0.34610   0.53512   0.38204   0.00000  Uiso   1.00
H327   H     0.34092   0.52064   0.42993   0.00000  Uiso   1.00
H328   H     0.47724   0.49969   0.10181   0.00000  Uiso   1.00
H329   H     0.58192   0.42846   0.46227   0.00000  Uiso   1.00
H330   H     0.38096   0.55141   0.47884   0.00000  Uiso   1.00
H331   H     0.52072   0.50216   0.40252   0.00000  Uiso   1.00
H332   H     0.43258   0.50824   0.07383   0.00000  Uiso   1.00
H333   H     0.35264   0.45952   0.32563   0.00000  Uiso   1.00
H334   H     0.33341   0.42087   0.29031   0.00000  Uiso   1.00
H335   H     0.63158   0.43561   0.33795   0.00000  Uiso   1.00
O336   O     0.50000   0.50000   0.25000   0.00000  Uiso   1.00
O337   O     0.49027   0.45726   0.16625   0.00000  Uiso   1.00
O338   O     0.46020   0.53979   0.33749   0.00000  Uiso   1.00
O339   O     0.54421   0.50826   0.15877   0.00000  Uiso   1.00
O340   O     0.50532   0.49468   0.33749   0.00000  Uiso   1.00
O341   O     0.64443   0.47960   0.29912   0.00000  Uiso   1.00
O342   O     0.44403   0.66024   0.28550   0.00000  Uiso   1.00
O343   O     0.39887   0.55426   0.40282   0.00000  Uiso   1.00
O344   O     0.51182   0.41434   0.27820   0.00000  Uiso   1.00
O345   O     0.47914   0.59469   0.26767   0.00000  Uiso   1.00
O346   O     0.40785   0.46584   0.23607   0.00000  Uiso   1.00
O347   O     0.60119   0.52512   0.21805   0.00000  Uiso   1.00
O348   O     0.40323   0.52293   0.27820   0.00000  Uiso   1.00
O349   O     0.58773   0.48610   0.26767   0.00000  Uiso   1.00
O350   O     0.47133   0.40236   0.23607   0.00000  Uiso   1.00
O351   O     0.53771   0.58860   0.21806   0.00000  Uiso   1.00
Zn352  Zn    0.52577   0.47423   0.28277   0.00000  Uiso   1.00
Zn353  Zn    0.46792   0.45711   0.22257   0.00000  Uiso   1.00
Zn354  Zn    0.54500   0.52997   0.21188   0.00000  Uiso   1.00
Zn355  Zn    0.46131   0.53868   0.28277   0.00000  Uiso   1.00
C356   C     0.71943   0.49374   0.25848   0.00000  Uiso   1.00
C357   C     0.86407   0.46063   0.45913   0.00000  Uiso   1.00
C358   C     0.88903   0.44645   0.47901   0.00000  Uiso   1.00
C359   C     0.94761   0.50675   0.24139   0.00000  Uiso   1.00
C360   C     0.88045   0.45476   0.01974   0.00000  Uiso   1.00
C361   C     0.84417   0.47564   0.04179   0.00000  Uiso   1.00
C362   C     0.90764   0.44176   0.03869   0.00000  Uiso   1.00
C363   C     0.89959   0.44962   0.07943   0.00000  Uiso   1.00
C364   C     0.83654   0.48286   0.08308   0.00000  Uiso   1.00
C365   C     0.99343   0.50730   0.23744   0.00000  Uiso   1.00
C366   C     0.67351   0.49112   0.26397   0.00000  Uiso   1.00
C367   C     0.75734   0.53855   0.42138   0.00000  Uiso   1.00
C368   C     0.84724   0.65578   0.24020   0.00000  Uiso   1.00
C369   C     0.81639   0.34568   0.26311   0.00000  Uiso   1.00
C370   C     0.82282   0.38965   0.25867   0.00000  Uiso   1.00
C371   C     0.84328   0.61101   0.24163   0.00000  Uiso   1.00
C372   C     0.85492   0.47857   0.14410   0.00000  Uiso   1.00
C373   C     0.81151   0.52068   0.35630   0.00000  Uiso   1.00
C374   C     0.79724   0.52433   0.39976   0.00000  Uiso   1.00
C375   C     0.86389   0.46997   0.10153   0.00000  Uiso   1.00
C376   C     0.74404   0.53857   0.46237   0.00000  Uiso   1.00
C377   C     0.99168   0.44751   0.31349   0.00000  Uiso   1.00
C378   C     0.82216   0.50910   0.41944   0.00000  Uiso   1.00
C379   C     0.75468   0.35506   0.31576   0.00000  Uiso   1.00
C380   C     0.69713   0.52429   0.40032   0.00000  Uiso   1.00
C381   C     0.80698   0.50454   0.45996   0.00000  Uiso   1.00
C382   C     0.76827   0.52159   0.48174   0.00000  Uiso   1.00
C383   C     0.83006   0.48520   0.47968   0.00000  Uiso   1.00
C384   C     0.81770   0.48948   0.02174   0.00000  Uiso   1.00
C385   C     0.77895   0.50684   0.04231   0.00000  Uiso   1.00
C386   C     0.75430   0.52178   0.02262   0.00000  Uiso   1.00
F387   F     0.71700   0.53748   0.04399   0.00000  Uiso   1.00
F388   F     0.68912   0.52328   0.20565   0.00000  Uiso   1.00
F389   F     0.88343   0.34054   0.21558   0.00000  Uiso   1.00
F390   F     0.92635   0.43715   0.09734   0.00000  Uiso   1.00
F391   F     0.87154   0.44660   0.42030   0.00000  Uiso   1.00
H392   H     0.93531   0.42574   0.02190   0.00000  Uiso   1.00
H393   H     0.74113   0.37764   0.30335   0.00000  Uiso   1.00
H394   H     0.77536   0.37159   0.33431   0.00000  Uiso   1.00
H395   H     0.72723   0.33714   0.33521   0.00000  Uiso   1.00
H396   H     0.70810   0.49361   0.38573   0.00000  Uiso   1.00
H397   H     0.67943   0.53512   0.38204   0.00000  Uiso   1.00
H398   H     0.67425   0.52064   0.42993   0.00000  Uiso   1.00
H399   H     0.81057   0.49969   0.10181   0.00000  Uiso   1.00
H400   H     0.91525   0.42846   0.46227   0.00000  Uiso   1.00
H401   H     0.71429   0.55141   0.47884   0.00000  Uiso   1.00
H402   H     0.85405   0.50216   0.40252   0.00000  Uiso   1.00
H403   H     0.76592   0.50824   0.07383   0.00000  Uiso   1.00
H404   H     0.68597   0.45952   0.32563   0.00000  Uiso   1.00
H405   H     0.66674   0.42087   0.29031   0.00000  Uiso   1.00
H406   H     0.96491   0.43561   0.33795   0.00000  Uiso   1.00
O407   O     0.83333   0.50000   0.25000   0.00000  Uiso   1.00
O408   O     0.82360   0.45726   0.16625   0.00000  Uiso   1.00
O409   O     0.79354   0.53979   0.33749   0.00000  Uiso   1.00
O410   O     0.87755   0.50826   0.15877   0.00000  Uiso   1.00
O411   O     0.83865   0.49468   0.33749   0.00000  Uiso   1.00
O412   O     0.97776   0.47960   0.29912   0.00000  Uiso   1.00
O413   O     0.77736   0.66024   0.28550   0.00000  Uiso   1.00
O414   O     0.73220   0.55426   0.40282   0.00000  Uiso   1.00
O415   O     0.84515   0.41434   0.27820   0.00000  Uiso   1.00
O416   O     0.81247   0.59469   0.26767   0.00000  Uiso   1.00
O417   O     0.74119   0.46584   0.23607   0.00000  Uiso   1.00
O418   O     0.93452   0.52512   0.21805   0.00000  Uiso   1.00
O419   O     0.73656   0.52293   0.27820   0.00000  Uiso   1.00
O420   O     0.92106   0.48610   0.26767   0.00000  Uiso   1.00
O421   O     0.80467   0.40236   0.23607   0.00000  Uiso   1.00
O422   O     0.87104   0.58860   0.21806   0.00000  Uiso   1.00
Zn423  Zn    0.85910   0.47423   0.28277   0.00000  Uiso   1.00
Zn424  Zn    0.80125   0.45711   0.22257   0.00000  Uiso   1.00
Zn425  Zn    0.87833   0.52997   0.21188   0.00000  Uiso   1.00
Zn426  Zn    0.79465   0.53868   0.28277   0.00000  Uiso   1.00
C427   C     0.05276   0.82708   0.25848   0.00000  Uiso   1.00
C428   C     0.19740   0.79396   0.45913   0.00000  Uiso   1.00
C429   C     0.22236   0.77979   0.47901   0.00000  Uiso   1.00
C430   C     0.28094   0.84008   0.24139   0.00000  Uiso   1.00
C431   C     0.21378   0.78810   0.01974   0.00000  Uiso   1.00
C432   C     0.17750   0.80898   0.04179   0.00000  Uiso   1.00
C433   C     0.24097   0.77510   0.03869   0.00000  Uiso   1.00
C434   C     0.23292   0.78296   0.07943   0.00000  Uiso   1.00
C435   C     0.16988   0.81620   0.08308   0.00000  Uiso   1.00
C436   C     0.32676   0.84063   0.23744   0.00000  Uiso   1.00
C437   C     0.00684   0.82446   0.26397   0.00000  Uiso   1.00
C438   C     0.09067   0.87188   0.42138   0.00000  Uiso   1.00
C439   C     0.18058   0.98911   0.24020   0.00000  Uiso   1.00
C440   C     0.14973   0.67901   0.26311   0.00000  Uiso   1.00
C441   C     0.15615   0.72299   0.25867   0.00000  Uiso   1.00
C442   C     0.17662   0.94434   0.24163   0.00000  Uiso   1.00
C443   C     0.18825   0.81191   0.14410   0.00000  Uiso   1.00
C444   C     0.14484   0.85402   0.35630   0.00000  Uiso   1.00
C445   C     0.13057   0.85766   0.39976   0.00000  Uiso   1.00
C446   C     0.19722   0.80330   0.10153   0.00000  Uiso   1.00
C447   C     0.07738   0.87191   0.46237   0.00000  Uiso   1.00
C448   C     0.32501   0.78084   0.31349   0.00000  Uiso   1.00
C449   C     0.15550   0.84243   0.41944   0.00000  Uiso   1.00
C450   C     0.08802   0.68840   0.31576   0.00000  Uiso   1.00
C451   C     0.03046   0.85762   0.40032   0.00000  Uiso   1.00
C452   C     0.14032   0.83787   0.45996   0.00000  Uiso   1.00
C453   C     0.10160   0.85492   0.48174   0.00000  Uiso   1.00
C454   C     0.16339   0.81854   0.47968   0.00000  Uiso   1.00
C455   C     0.15103   0.82281   0.02174   0.00000  Uiso   1.00
C456   C     0.11229   0.84017   0.04231   0.00000  Uiso   1.00
C457   C     0.08764   0.85512   0.02262   0.00000  Uiso   1.00
F458   F     0.05034   0.87081   0.04399   0.00000  Uiso   1.00
F459   F     0.02245   0.85662   0.20565   0.00000  Uiso   1.00
F460   F     0.21676   0.67387   0.21558   0.00000  Uiso   1.00
F461   F     0.25968   0.77048   0.09734   0.00000  Uiso   1.00
F462   F     0.20487   0.77993   0.42030   0.00000  Uiso   1.00
H463   H     0.26864   0.75907   0.02190   0.00000  Uiso   1.00
H464   H     0.07447   0.71097   0.30335   0.00000  Uiso   1.00
H465   H     0.10869   0.70492   0.33431   0.00000  Uiso   1.00
H466   H     0.06057   0.67047   0.33521   0.00000  Uiso   1.00
H467   H     0.04143   0.82695   0.38573   0.00000  Uiso   1.00
H468   H     0.01277   0.86846   0.38204   0.00000  Uiso   1.00
H469   H     0.00758   0.85398   0.42993   0.00000  Uiso   1.00
H470   H     0.14391   0.83302   0.10181   0.00000  Uiso   1.00
H471   H     0.24859   0.76179   0.46227   0.00000  Uiso   1.00
H472   H     0.04762   0.88474   0.47884   0.00000  Uiso   1.00
H473   H     0.18739   0.83549   0.40252   0.00000  Uiso   1.00
H474   H     0.09925   0.84158   0.07383   0.00000  Uiso   1.00
H475   H     0.01931   0.79285   0.32563   0.00000  Uiso   1.00
H476   H     0.00008   0.75420   0.29031   0.00000  Uiso   1.00
H477   H     0.29825   0.76895   0.33795   0.00000  Uiso   1.00
O478   O     0.16667   0.83333   0.25000   0.00000  Uiso   1.00
O479   O     0.15693   0.79060   0.16625   0.00000  Uiso   1.00
O480   O     0.12687   0.87313   0.33749   0.00000  Uiso   1.00
O481   O     0.21088   0.84159   0.15877   0.00000  Uiso   1.00
O482   O     0.17198   0.82802   0.33749   0.00000  Uiso   1.00
O483   O     0.31110   0.81294   0.29912   0.00000  Uiso   1.00
O484   O     0.11069   0.99357   0.28550   0.00000  Uiso   1.00
O485   O     0.06554   0.88760   0.40282   0.00000  Uiso   1.00
O486   O     0.17849   0.74768   0.27820   0.00000  Uiso   1.00
O487   O     0.14581   0.92803   0.26767   0.00000  Uiso   1.00
O488   O     0.07452   0.79917   0.23607   0.00000  Uiso   1.00
O489   O     0.26785   0.85845   0.21805   0.00000  Uiso   1.00
O490   O     0.06990   0.85627   0.27820   0.00000  Uiso   1.00
O491   O     0.25440   0.81944   0.26767   0.00000  Uiso   1.00
O492   O     0.13800   0.73570   0.23607   0.00000  Uiso   1.00
O493   O     0.20437   0.92193   0.21806   0.00000  Uiso   1.00
Zn494  Zn    0.19244   0.80756   0.28277   0.00000  Uiso   1.00
Zn495  Zn    0.13459   0.79044   0.22257   0.00000  Uiso   1.00
Zn496  Zn    0.21166   0.86331   0.21188   0.00000  Uiso   1.00
Zn497  Zn    0.12798   0.87202   0.28277   0.00000  Uiso   1.00
C498   C     0.38609   0.82708   0.25848   0.00000  Uiso   1.00
C499   C     0.53073   0.79396   0.45913   0.00000  Uiso   1.00
C500   C     0.55569   0.77979   0.47901   0.00000  Uiso   1.00
C501   C     0.61428   0.84008   0.24139   0.00000  Uiso   1.00
C502   C     0.54711   0.78810   0.01974   0.00000  Uiso   1.00
C503   C     0.51084   0.80898   0.04179   0.00000  Uiso   1.00
C504   C     0.57430   0.77510   0.03869   0.00000  Uiso   1.00
C505   C     0.56626   0.78296   0.07943   0.00000  Uiso   1.00
C506   C     0.50321   0.81620   0.08308   0.00000  Uiso   1.00
C507   C     0.66009   0.84063   0.23744   0.00000  Uiso   1.00
C508   C     0.34017   0.82446   0.26397   0.00000  Uiso   1.00
C509   C     0.42400   0.87188   0.42138   0.00000  Uiso   1.00
C510   C     0.51391   0.98911   0.24020   0.00000  Uiso   1.00
C511   C     0.48306   0.67901   0.26311   0.00000  Uiso   1.00
C512   C     0.48949   0.72299   0.25867   0.00000  Uiso   1.00
C513   C     0.50995   0.94434   0.24163   0.00000  Uiso   1.00
C514   C     0.52159   0.81191   0.14410   0.00000  Uiso   1.00
C515   C     0.47818   0.85402   0.35630   0.00000  Uiso   1.00
C516   C     0.46391   0.85766   0.39976   0.00000  Uiso   1.00
C517   C     0.53056   0.80330   0.10153   0.00000  Uiso   1.00
C518   C     0.41071   0.87191   0.46237   0.00000  Uiso   1.00
C519   C     0.65835   0.78084   0.31349   0.00000  Uiso   1.00
C520   C     0.48883   0.84243   0.41944   0.00000  Uiso   1.00
C521   C     0.42135   0.68840   0.31576   0.00000  Uiso   1.00
C522   C     0.36379   0.85762   0.40032   0.00000  Uiso   1.00
C523   C     0.47365   0.83787   0.45996   0.00000  Uiso   1.00
C524   C     0.43493   0.85492   0.48174   0.00000  Uiso   1.00
C525   C     0.49672   0.81854   0.47968   0.00000  Uiso   1.00
C526   C     0.48436   0.82281   0.02174   0.00000  Uiso   1.00
C527   C     0.44562   0.84017   0.04231   0.00000  Uiso   1.00
C528   C     0.42097   0.85512   0.02262   0.00000  Uiso   1.00
F529   F     0.38367   0.87081   0.04399   0.00000  Uiso   1.00
F530   F     0.35578   0.85662   0.20565   0.00000  Uiso   1.00
F531   F     0.55010   0.67387   0.21558   0.00000  Uiso   1.00
F532   F     0.59302   0.77048   0.09734   0.00000  Uiso   1.00
F533   F     0.53821   0.77993   0.42030   0.00000  Uiso   1.00
H534   H     0.60197   0.75907   0.02190   0.00000  Uiso   1.00
H535   H     0.40780   0.71097   0.30335   0.00000  Uiso   1.00
H536   H     0.44203   0.70492   0.33431   0.00000  Uiso   1.00
H537   H     0.39390   0.67047   0.33521   0.00000  Uiso   1.00
H538   H     0.37476   0.82695   0.38573   0.00000  Uiso   1.00
H539   H     0.34610   0.86846   0.38204   0.00000  Uiso   1.00
H540   H     0.34092   0.85398   0.42993   0.00000  Uiso   1.00
H541   H     0.47724   0.83302   0.10181   0.00000  Uiso   1.00
H542   H     0.58192   0.76179   0.46227   0.00000  Uiso   1.00
H543   H     0.38096   0.88474   0.47884   0.00000  Uiso   1.00
H544   H     0.52072   0.83549   0.40252   0.00000  Uiso   1.00
H545   H     0.43258   0.84158   0.07383   0.00000  Uiso   1.00
H546   H     0.35264   0.79285   0.32563   0.00000  Uiso   1.00
H547   H     0.33341   0.75420   0.29031   0.00000  Uiso   1.00
H548   H     0.63158   0.76895   0.33795   0.00000  Uiso   1.00
O549   O     0.50000   0.83333   0.25000   0.00000  Uiso   1.00
O550   O     0.49027   0.79060   0.16625   0.00000  Uiso   1.00
O551   O     0.46020   0.87313   0.33749   0.00000  Uiso   1.00
O552   O     0.54421   0.84159   0.15877   0.00000  Uiso   1.00
O553   O     0.50532   0.82802   0.33749   0.00000  Uiso   1.00
O554   O     0.64443   0.81294   0.29912   0.00000  Uiso   1.00
O555   O     0.44403   0.99357   0.28550   0.00000  Uiso   1.00
O556   O     0.39887   0.88760   0.40282   0.00000  Uiso   1.00
O557   O     0.51182   0.74768   0.27820   0.00000  Uiso   1.00
O558   O     0.47914   0.92803   0.26767   0.00000  Uiso   1.00
O559   O     0.40785   0.79917   0.23607   0.00000  Uiso   1.00
O560   O     0.60119   0.85845   0.21805   0.00000  Uiso   1.00
O561   O     0.40323   0.85627   0.27820   0.00000  Uiso   1.00
O562   O     0.58773   0.81944   0.26767   0.00000  Uiso   1.00
O563   O     0.47133   0.73570   0.23607   0.00000  Uiso   1.00
O564   O     0.53771   0.92193   0.21806   0.00000  Uiso   1.00
Zn565  Zn    0.52577   0.80756   0.28277   0.00000  Uiso   1.00
Zn566  Zn    0.46792   0.79044   0.22257   0.00000  Uiso   1.00
Zn567  Zn    0.54500   0.86331   0.21188   0.00000  Uiso   1.00
Zn568  Zn    0.46131   0.87202   0.28277   0.00000  Uiso   1.00
C569   C     0.71943   0.82708   0.25848   0.00000  Uiso   1.00
C570   C     0.86407   0.79396   0.45913   0.00000  Uiso   1.00
C571   C     0.88903   0.77979   0.47901   0.00000  Uiso   1.00
C572   C     0.94761   0.84008   0.24139   0.00000  Uiso   1.00
C573   C     0.88045   0.78810   0.01974   0.00000  Uiso   1.00
C574   C     0.84417   0.80898   0.04179   0.00000  Uiso   1.00
C575   C     0.90764   0.77510   0.03869   0.00000  Uiso   1.00
C576   C     0.89959   0.78296   0.07943   0.00000  Uiso   1.00
C577   C     0.83654   0.81620   0.08308   0.00000  Uiso   1.00
C578   C     0.99343   0.84063   0.23744   0.00000  Uiso   1.00
C579   C     0.67351   0.82446   0.26397   0.00000  Uiso   1.00
C580   C     0.75734   0.87188   0.42138   0.00000  Uiso   1.00
C581   C     0.84724   0.98911   0.24020   0.00000  Uiso   1.00
C582   C     0.81639   0.67901   0.26311   0.00000  Uiso   1.00
C583   C     0.82282   0.72299   0.25867   0.00000  Uiso   1.00
C584   C     0.84328   0.94434   0.24163   0.00000  Uiso   1.00
C585   C     0.85492   0.81191   0.14410   0.00000  Uiso   1.00
C586   C     0.81151   0.85402   0.35630   0.00000  Uiso   1.00
C587   C     0.79724   0.85766   0.39976   0.00000  Uiso   1.00
C588   C     0.86389   0.80330   0.10153   0.00000  Uiso   1.00
C589   C     0.74404   0.87191   0.46237   0.00000  Uiso   1.00
C590   C     0.99168   0.78084   0.31349   0.00000  Uiso   1.00
C591   C     0.82216   0.84243   0.41944   0.00000  Uiso   1.00
C592   C     0.75468   0.68840   0.31576   0.00000  Uiso   1.00
C593   C     0.69713   0.85762   0.40032   0.00000  Uiso   1.00
C594   C     0.80698   0.83787   0.45996   0.00000  Uiso   1.00
C595   C     0.76827   0.85492   0.48174   0.00000  Uiso   1.00
C596   C     0.83006   0.81854   0.47968   0.00000  Uiso   1.00
C597   C     0.81770   0.82281   0.02174   0.00000  Uiso   1.00
C598   C     0.77895   0.84017   0.04231   0.00000  Uiso   1.00
C599   C     0.75430   0.85512   0.02262   0.00000  Uiso   1.00
F600   F     0.71700   0.87081   0.04399   0.00000  Uiso   1.00
F601   F     0.68912   0.85662   0.20565   0.00000  Uiso   1.00
F602   F     0.88343   0.67387   0.21558   0.00000  Uiso   1.00
F603   F     0.92635   0.77048   0.09734   0.00000  Uiso   1.00
F604   F     0.87154   0.77993   0.42030   0.00000  Uiso   1.00
H605   H     0.93531   0.75907   0.02190   0.00000  Uiso   1.00
H606   H     0.74113   0.71097   0.30335   0.00000  Uiso   1.00
H607   H     0.77536   0.70492   0.33431   0.00000  Uiso   1.00
H608   H     0.72723   0.67047   0.33521   0.00000  Uiso   1.00
H609   H     0.70810   0.82695   0.38573   0.00000  Uiso   1.00
H610   H     0.67943   0.86846   0.38204   0.00000  Uiso   1.00
H611   H     0.67425   0.85398   0.42993   0.00000  Uiso   1.00
H612   H     0.81057   0.83302   0.10181   0.00000  Uiso   1.00
H613   H     0.91525   0.76179   0.46227   0.00000  Uiso   1.00
H614   H     0.71429   0.88474   0.47884   0.00000  Uiso   1.00
H615   H     0.85405   0.83549   0.40252   0.00000  Uiso   1.00
H616   H     0.76592   0.84158   0.07383   0.00000  Uiso   1.00
H617   H     0.68597   0.79285   0.32563   0.00000  Uiso   1.00
H618   H     0.66674   0.75420   0.29031   0.00000  Uiso   1.00
H619   H     0.96491   0.76895   0.33795   0.00000  Uiso   1.00
O620   O     0.83333   0.83333   0.25000   0.00000  Uiso   1.00
O621   O     0.82360   0.79060   0.16625   0.00000  Uiso   1.00
O622   O     0.79354   0.87313   0.33749   0.00000  Uiso   1.00
O623   O     0.87755   0.84159   0.15877   0.00000  Uiso   1.00
O624   O     0.83865   0.82802   0.33749   0.00000  Uiso   1.00
O625   O     0.97776   0.81294   0.29912   0.00000  Uiso   1.00
O626   O     0.77736   0.99357   0.28550   0.00000  Uiso   1.00
O627   O     0.73220   0.88760   0.40282   0.00000  Uiso   1.00
O628   O     0.84515   0.74768   0.27820   0.00000  Uiso   1.00
O629   O     0.81247   0.92803   0.26767   0.00000  Uiso   1.00
O630   O     0.74119   0.79917   0.23607   0.00000  Uiso   1.00
O631   O     0.93452   0.85845   0.21805   0.00000  Uiso   1.00
O632   O     0.73656   0.85627   0.27820   0.00000  Uiso   1.00
O633   O     0.92106   0.81944   0.26767   0.00000  Uiso   1.00
O634   O     0.80467   0.73570   0.23607   0.00000  Uiso   1.00
O635   O     0.87104   0.92193   0.21806   0.00000  Uiso   1.00
Zn636  Zn    0.85910   0.80756   0.28277   0.00000  Uiso   1.00
Zn637  Zn    0.80125   0.79044   0.22257   0.00000  Uiso   1.00
Zn638  Zn    0.87833   0.86331   0.21188   0.00000  Uiso   1.00
Zn639  Zn    0.79465   0.87202   0.28277   0.00000  Uiso   1.00
C640   C     0.05276   0.16041   0.75848   0.00000  Uiso   1.00
C641   C     0.19740   0.12730   0.95913   0.00000  Uiso   1.00
C642   C     0.22236   0.11312   0.97901   0.00000  Uiso   1.00
C643   C     0.28094   0.17342   0.74139   0.00000  Uiso   1.00
C644   C     0.21378   0.12143   0.51974   0.00000  Uiso   1.00
C645   C     0.17750   0.14231   0.54179   0.00000  Uiso   1.00
C646   C     0.24097   0.10843   0.53869   0.00000  Uiso   1.00
C647   C     0.23292   0.11629   0.57943   0.00000  Uiso   1.00
C648   C     0.16988   0.14953   0.58308   0.00000  Uiso   1.00
C649   C     0.32676   0.17397   0.73744   0.00000  Uiso   1.00
C650   C     0.00684   0.15779   0.76397   0.00000  Uiso   1.00
C651   C     0.09067   0.20522   0.92138   0.00000  Uiso   1.00
C652   C     0.18058   0.32245   0.74020   0.00000  Uiso   1.00
C653   C     0.14973   0.01234   0.76311   0.00000  Uiso   1.00
C654   C     0.15615   0.05632   0.75867   0.00000  Uiso   1.00
C655   C     0.17662   0.27768   0.74163   0.00000  Uiso   1.00
C656   C     0.18825   0.14524   0.64410   0.00000  Uiso   1.00
C657   C     0.14484   0.18735   0.85630   0.00000  Uiso   1.00
C658   C     0.13057   0.19100   0.89976   0.00000  Uiso   1.00
C659   C     0.19722   0.13663   0.60153   0.00000  Uiso   1.00
C660   C     0.07738   0.20524   0.96237   0.00000  Uiso   1.00
C661   C     0.32501   0.11417   0.81349   0.00000  Uiso   1.00
C662   C     0.15550   0.17576   0.91944   0.00000  Uiso   1.00
C663   C     0.08802   0.02173   0.81576   0.00000  Uiso   1.00
C664   C     0.03046   0.19095   0.90032   0.00000  Uiso   1.00
C665   C     0.14032   0.17121   0.95996   0.00000  Uiso   1.00
C666   C     0.10160   0.18825   0.98174   0.00000  Uiso   1.00
C667   C     0.16339   0.15187   0.97968   0.00000  Uiso   1.00
C668   C     0.15103   0.15615   0.52174   0.00000  Uiso   1.00
C669   C     0.11229   0.17351   0.54231   0.00000  Uiso   1.00
C670   C     0.08764   0.18845   0.52262   0.00000  Uiso   1.00
F671   F     0.05034   0.20415   0.54399   0.00000  Uiso   1.00
F672   F     0.02245   0.18995   0.70565   0.00000  Uiso   1.00
F673   F     0.21676   0.00721   0.71558   0.00000  Uiso   1.00
F674   F     0.25968   0.10381   0.59734   0.00000  Uiso   1.00
F675   F     0.20487   0.11326   0.92030   0.00000  Uiso   1.00
H676   H     0.26864   0.09240   0.52190   0.00000  Uiso   1.00
H677   H     0.07447   0.04430   0.80335   0.00000  Uiso   1.00
H678   H     0.10869   0.03825   0.83431   0.00000  Uiso   1.00
H679   H     0.06057   0.00380   0.83521   0.00000  Uiso   1.00
H680   H     0.04143   0.16028   0.88573   0.00000  Uiso   1.00
H681   H     0.01277   0.20179   0.88204   0.00000  Uiso   1.00
H682   H     0.00758   0.18731   0.92993   0.00000  Uiso   1.00
H683   H     0.14391   0.16636   0.60181   0.00000  Uiso   1.00
H684   H     0.24859   0.09513   0.96227   0.00000  Uiso   1.00
H685   H     0.04762   0.21808   0.97884   0.00000  Uiso   1.00
H686   H     0.18739   0.16882   0.90252   0.00000  Uiso   1.00
H687   H     0.09925   0.17491   0.57383   0.00000  Uiso   1.00
H688   H     0.01931   0.12619   0.82563   0.00000  Uiso   1.00
H689   H     0.00008   0.08753   0.79031   0.00000  Uiso   1.00
H690   H     0.29825   0.10228   0.83795   0.00000  Uiso   1.00
O691   O     0.16667   0.16667   0.75000   0.00000  Uiso   1.00
O692   O     0.15693   0.12393   0.66625   0.00000  Uiso   1.00
O693   O     0.12687   0.20646   0.83749   0.00000  Uiso   1.00
O694   O     0.21088   0.17493   0.65877   0.00000  Uiso   1.00
O695   O     0.17198   0.16135   0.83749   0.00000  Uiso   1.00
O696   O     0.31110   0.14627   0.79912   0.00000  Uiso   1.00
O697   O     0.11069   0.32691   0.78550   0.00000  Uiso   1.00
O698   O     0.06554   0.22093   0.90282   0.00000  Uiso   1.00
O699   O     0.17849   0.08101   0.77820   0.00000  Uiso   1.00
O700   O     0.14581   0.26136   0.76767   0.00000  Uiso   1.00
O701   O     0.07452   0.13251   0.73607   0.00000  Uiso   1.00
O702   O     0.26785   0.19179   0.71805   0.00000  Uiso   1.00
O703   O     0.06990   0.18960   0.77820   0.00000  Uiso   1.00
O704   O     0.25440   0.15277   0.76767   0.00000  Uiso   1.00
O705   O     0.13800   0.06903   0.73607   0.00000  Uiso   1.00
O706   O     0.20437   0.25527   0.71806   0.00000  Uiso   1.00
Zn707  Zn    0.19244   0.14090   0.78277   0.00000  Uiso   1.00
Zn708  Zn    0.13459   0.12378   0.72257   0.00000  Uiso   1.00
Zn709  Zn    0.21166   0.19664   0.71188   0.00000  Uiso   1.00
Zn710  Zn    0.12798   0.20535   0.78277   0.00000  Uiso   1.00
C711   C     0.38609   0.16041   0.75848   0.00000  Uiso   1.00
C712   C     0.53073   0.12730   0.95913   0.00000  Uiso   1.00
C713   C     0.55569   0.11312   0.97901   0.00000  Uiso   1.00
C714   C     0.61428   0.17342   0.74139   0.00000  Uiso   1.00
C715   C     0.54711   0.12143   0.51974   0.00000  Uiso   1.00
C716   C     0.51084   0.14231   0.54179   0.00000  Uiso   1.00
C717   C     0.57430   0.10843   0.53869   0.00000  Uiso   1.00
C718   C     0.56626   0.11629   0.57943   0.00000  Uiso   1.00
C719   C     0.50321   0.14953   0.58308   0.00000  Uiso   1.00
C720   C     0.66009   0.17397   0.73744   0.00000  Uiso   1.00
C721   C     0.34017   0.15779   0.76397   0.00000  Uiso   1.00
C722   C     0.42400   0.20522   0.92138   0.00000  Uiso   1.00
C723   C     0.51391   0.32245   0.74020   0.00000  Uiso   1.00
C724   C     0.48306   0.01234   0.76311   0.00000  Uiso   1.00
C725   C     0.48949   0.05632   0.75867   0.00000  Uiso   1.00
C726   C     0.50995   0.27768   0.74163   0.00000  Uiso   1.00
C727   C     0.52159   0.14524   0.64410   0.00000  Uiso   1.00
C728   C     0.47818   0.18735   0.85630   0.00000  Uiso   1.00
C729   C     0.46391   0.19100   0.89976   0.00000  Uiso   1.00
C730   C     0.53056   0.13663   0.60153   0.00000  Uiso   1.00
C731   C     0.41071   0.20524   0.96237   0.00000  Uiso   1.00
C732   C     0.65835   0.11417   0.81349   0.00000  Uiso   1.00
C733   C     0.48883   0.17576   0.91944   0.00000  Uiso   1.00
C734   C     0.42135   0.02173   0.81576   0.00000  Uiso   1.00
C735   C     0.36379   0.19095   0.90032   0.00000  Uiso   1.00
C736   C     0.47365   0.17121   0.95996   0.00000  Uiso   1.00
C737   C     0.43493   0.18825   0.98174   0.00000  Uiso   1.00
C738   C     0.49672   0.15187   0.97968   0.00000  Uiso   1.00
C739   C     0.48436   0.15615   0.52174   0.00000  Uiso   1.00
C740   C     0.44562   0.17351   0.54231   0.00000  Uiso   1.00
C741   C     0.42097   0.18845   0.52262   0.00000  Uiso   1.00
F742   F     0.38367   0.20415   0.54399   0.00000  Uiso   1.00
F743   F     0.35578   0.18995   0.70565   0.00000  Uiso   1.00
F744   F     0.55010   0.00721   0.71558   0.00000  Uiso   1.00
F745   F     0.59302   0.10381   0.59734   0.00000  Uiso   1.00
F746   F     0.53821   0.11326   0.92030   0.00000  Uiso   1.00
H747   H     0.60197   0.09240   0.52190   0.00000  Uiso   1.00
H748   H     0.40780   0.04430   0.80335   0.00000  Uiso   1.00
H749   H     0.44203   0.03825   0.83431   0.00000  Uiso   1.00
H750   H     0.39390   0.00380   0.83521   0.00000  Uiso   1.00
H751   H     0.37476   0.16028   0.88573   0.00000  Uiso   1.00
H752   H     0.34610   0.20179   0.88204   0.00000  Uiso   1.00
H753   H     0.34092   0.18731   0.92993   0.00000  Uiso   1.00
H754   H     0.47724   0.16636   0.60181   0.00000  Uiso   1.00
H755   H     0.58192   0.09513   0.96227   0.00000  Uiso   1.00
H756   H     0.38096   0.21808   0.97884   0.00000  Uiso   1.00
H757   H     0.52072   0.16882   0.90252   0.00000  Uiso   1.00
H758   H     0.43258   0.17491   0.57383   0.00000  Uiso   1.00
H759   H     0.35264   0.12619   0.82563   0.00000  Uiso   1.00
H760   H     0.33341   0.08753   0.79031   0.00000  Uiso   1.00
H761   H     0.63158   0.10228   0.83795   0.00000  Uiso   1.00
O762   O     0.50000   0.16667   0.75000   0.00000  Uiso   1.00
O763   O     0.49027   0.12393   0.66625   0.00000  Uiso   1.00
O764   O     0.46020   0.20646   0.83749   0.00000  Uiso   1.00
O765   O     0.54421   0.17493   0.65877   0.00000  Uiso   1.00
O766   O     0.50532   0.16135   0.83749   0.00000  Uiso   1.00
O767   O     0.64443   0.14627   0.79912   0.00000  Uiso   1.00
O768   O     0.44403   0.32691   0.78550   0.00000  Uiso   1.00
O769   O     0.39887   0.22093   0.90282   0.00000  Uiso   1.00
O770   O     0.51182   0.08101   0.77820   0.00000  Uiso   1.00
O771   O     0.47914   0.26136   0.76767   0.00000  Uiso   1.00
O772   O     0.40785   0.13251   0.73607   0.00000  Uiso   1.00
O773   O     0.60119   0.19179   0.71805   0.00000  Uiso   1.00
O774   O     0.40323   0.18960   0.77820   0.00000  Uiso   1.00
O775   O     0.58773   0.15277   0.76767   0.00000  Uiso   1.00
O776   O     0.47133   0.06903   0.73607   0.00000  Uiso   1.00
O777   O     0.53771   0.25527   0.71806   0.00000  Uiso   1.00
Zn778  Zn    0.52577   0.14090   0.78277   0.00000  Uiso   1.00
Zn779  Zn    0.46792   0.12378   0.72257   0.00000  Uiso   1.00
Zn780  Zn    0.54500   0.19664   0.71188   0.00000  Uiso   1.00
Zn781  Zn    0.46131   0.20535   0.78277   0.00000  Uiso   1.00
C782   C     0.71943   0.16041   0.75848   0.00000  Uiso   1.00
C783   C     0.86407   0.12730   0.95913   0.00000  Uiso   1.00
C784   C     0.88903   0.11312   0.97901   0.00000  Uiso   1.00
C785   C     0.94761   0.17342   0.74139   0.00000  Uiso   1.00
C786   C     0.88045   0.12143   0.51974   0.00000  Uiso   1.00
C787   C     0.84417   0.14231   0.54179   0.00000  Uiso   1.00
C788   C     0.90764   0.10843   0.53869   0.00000  Uiso   1.00
C789   C     0.89959   0.11629   0.57943   0.00000  Uiso   1.00
C790   C     0.83654   0.14953   0.58308   0.00000  Uiso   1.00
C791   C     0.99343   0.17397   0.73744   0.00000  Uiso   1.00
C792   C     0.67351   0.15779   0.76397   0.00000  Uiso   1.00
C793   C     0.75734   0.20522   0.92138   0.00000  Uiso   1.00
C794   C     0.84724   0.32245   0.74020   0.00000  Uiso   1.00
C795   C     0.81639   0.01234   0.76311   0.00000  Uiso   1.00
C796   C     0.82282   0.05632   0.75867   0.00000  Uiso   1.00
C797   C     0.84328   0.27768   0.74163   0.00000  Uiso   1.00
C798   C     0.85492   0.14524   0.64410   0.00000  Uiso   1.00
C799   C     0.81151   0.18735   0.85630   0.00000  Uiso   1.00
C800   C     0.79724   0.19100   0.89976   0.00000  Uiso   1.00
C801   C     0.86389   0.13663   0.60153   0.00000  Uiso   1.00
C802   C     0.74404   0.20524   0.96237   0.00000  Uiso   1.00
C803   C     0.99168   0.11417   0.81349   0.00000  Uiso   1.00
C804   C     0.82216   0.17576   0.91944   0.00000  Uiso   1.00
C805   C     0.75468   0.02173   0.81576   0.00000  Uiso   1.00
C806   C     0.69713   0.19095   0.90032   0.00000  Uiso   1.00
C807   C     0.80698   0.17121   0.95996   0.00000  Uiso   1.00
C808   C     0.76827   0.18825   0.98174   0.00000  Uiso   1.00
C809   C     0.83006   0.15187   0.97968   0.00000  Uiso   1.00
C810   C     0.81770   0.15615   0.52174   0.00000  Uiso   1.00
C811   C     0.77895   0.17351   0.54231   0.00000  Uiso   1.00
C812   C     0.75430   0.18845   0.52262   0.00000  Uiso   1.00
F813   F     0.71700   0.20415   0.54399   0.00000  Uiso   1.00
F814   F     0.68912   0.18995   0.70565   0.00000  Uiso   1.00
F815   F     0.88343   0.00721   0.71558   0.00000  Uiso   1.00
F816   F     0.92635   0.10381   0.59734   0.00000  Uiso   1.00
F817   F     0.87154   0.11326   0.92030   0.00000  Uiso   1.00
H818   H     0.93531   0.09240   0.52190   0.00000  Uiso   1.00
H819   H     0.74113   0.04430   0.80335   0.00000  Uiso   1.00
H820   H     0.77536   0.03825   0.83431   0.00000  Uiso   1.00
H821   H     0.72723   0.00380   0.83521   0.00000  Uiso   1.00
H822   H     0.70810   0.16028   0.88573   0.00000  Uiso   1.00
H823   H     0.67943   0.20179   0.88204   0.00000  Uiso   1.00
H824   H     0.67425   0.18731   0.92993   0.00000  Uiso   1.00
H825   H     0.81057   0.16636   0.60181   0.00000  Uiso   1.00
H826   H     0.91525   0.09513   0.96227   0.00000  Uiso   1.00
H827   H     0.71429   0.21808   0.97884   0.00000  Uiso   1.00
H828   H     0.85405   0.16882   0.90252   0.00000  Uiso   1.00
H829   H     0.76592   0.17491   0.57383   0.00000  Uiso   1.00
H830   H     0.68597   0.12619   0.82563   0.00000  Uiso   1.00
H831   H     0.66674   0.08753   0.79031   0.00000  Uiso   1.00
H832   H     0.96491   0.10228   0.83795   0.00000  Uiso   1.00
O833   O     0.83333   0.16667   0.75000   0.00000  Uiso   1.00
O834   O     0.82360   0.12393   0.66625   0.00000  Uiso   1.00
O835   O     0.79354   0.20646   0.83749   0.00000  Uiso   1.00
O836   O     0.87755   0.17493   0.65877   0.00000  Uiso   1.00
O837   O     0.83865   0.16135   0.83749   0.00000  Uiso   1.00
O838   O     0.97776   0.14627   0.79912   0.00000  Uiso   1.00
O839   O     0.77736   0.32691   0.78550   0.00000  Uiso   1.00
O840   O     0.73220   0.22093   0.90282   0.00000  Uiso   1.00
O841   O     0.84515   0.08101   0.77820   0.00000  Uiso   1.00
O842   O     0.81247   0.26136   0.76767   0.00000  Uiso   1.00
O843   O     0.74119   0.13251   0.73607   0.00000  Uiso   1.00
O844   O     0.93452   0.19179   0.71805   0.00000  Uiso   1.00
O845   O     0.73656   0.18960   0.77820   0.00000  Uiso   1.00
O846   O     0.92106   0.15277   0.76767   0.00000  Uiso   1.00
O847   O     0.80467   0.06903   0.73607   0.00000  Uiso   1.00
O848   O     0.87104   0.25527   0.71806   0.00000  Uiso   1.00
Zn849  Zn    0.85910   0.14090   0.78277   0.00000  Uiso   1.00
Zn850  Zn    0.80125   0.12378   0.72257   0.00000  Uiso   1.00
Zn851  Zn    0.87833   0.19664   0.71188   0.00000  Uiso   1.00
Zn852  Zn    0.79465   0.20535   0.78277   0.00000  Uiso   1.00
C853   C     0.05276   0.49374   0.75848   0.00000  Uiso   1.00
C854   C     0.19740   0.46063   0.95913   0.00000  Uiso   1.00
C855   C     0.22236   0.44645   0.97901   0.00000  Uiso   1.00
C856   C     0.28094   0.50675   0.74139   0.00000  Uiso   1.00
C857   C     0.21378   0.45476   0.51974   0.00000  Uiso   1.00
C858   C     0.17750   0.47564   0.54179   0.00000  Uiso   1.00
C859   C     0.24097   0.44176   0.53869   0.00000  Uiso   1.00
C860   C     0.23292   0.44962   0.57943   0.00000  Uiso   1.00
C861   C     0.16988   0.48286   0.58308   0.00000  Uiso   1.00
C862   C     0.32676   0.50730   0.73744   0.00000  Uiso   1.00
C863   C     0.00684   0.49112   0.76397   0.00000  Uiso   1.00
C864   C     0.09067   0.53855   0.92138   0.00000  Uiso   1.00
C865   C     0.18058   0.65578   0.74020   0.00000  Uiso   1.00
C866   C     0.14973   0.34568   0.76311   0.00000  Uiso   1.00
C867   C     0.15615   0.38965   0.75867   0.00000  Uiso   1.00
C868   C     0.17662   0.61101   0.74163   0.00000  Uiso   1.00
C869   C     0.18825   0.47857   0.64410   0.00000  Uiso   1.00
C870   C     0.14484   0.52068   0.85630   0.00000  Uiso   1.00
C871   C     0.13057   0.52433   0.89976   0.00000  Uiso   1.00
C872   C     0.19722   0.46997   0.60153   0.00000  Uiso   1.00
C873   C     0.07738   0.53857   0.96237   0.00000  Uiso   1.00
C874   C     0.32501   0.44751   0.81349   0.00000  Uiso   1.00
C875   C     0.15550   0.50910   0.91944   0.00000  Uiso   1.00
C876   C     0.08802   0.35506   0.81576   0.00000  Uiso   1.00
C877   C     0.03046   0.52429   0.90032   0.00000  Uiso   1.00
C878   C     0.14032   0.50454   0.95996   0.00000  Uiso   1.00
C879   C     0.10160   0.52159   0.98174   0.00000  Uiso   1.00
C880   C     0.16339   0.48520   0.97968   0.00000  Uiso   1.00
C881   C     0.15103   0.48948   0.52174   0.00000  Uiso   1.00
C882   C     0.11229   0.50684   0.54231   0.00000  Uiso   1.00
C883   C     0.08764   0.52178   0.52262   0.00000  Uiso   1.00
F884   F     0.05034   0.53748   0.54399   0.00000  Uiso   1.00
F885   F     0.02245   0.52328   0.70565   0.00000  Uiso   1.00
F886   F     0.21676   0.34054   0.71558   0.00000  Uiso   1.00
F887   F     0.25968   0.43715   0.59734   0.00000  Uiso   1.00
F888   F     0.20487   0.44660   0.92030   0.00000  Uiso   1.00
H889   H     0.26864   0.42574   0.52190   0.00000  Uiso   1.00
H890   H     0.07447   0.37764   0.80335   0.00000  Uiso   1.00
H891   H     0.10869   0.37159   0.83431   0.00000  Uiso   1.00
H892   H     0.06057   0.33714   0.83521   0.00000  Uiso   1.00
H893   H     0.04143   0.49361   0.88573   0.00000  Uiso   1.00
H894   H     0.01277   0.53512   0.88204   0.00000  Uiso   1.00
H895   H     0.00758   0.52064   0.92993   0.00000  Uiso   1.00
H896   H     0.14391   0.49969   0.60181   0.00000  Uiso   1.00
H897   H     0.24859   0.42846   0.96227   0.00000  Uiso   1.00
H898   H     0.04762   0.55141   0.97884   0.00000  Uiso   1.00
H899   H     0.18739   0.50216   0.90252   0.00000  Uiso   1.00
H900   H     0.09925   0.50824   0.57383   0.00000  Uiso   1.00
H901   H     0.01931   0.45952   0.82563   0.00000  Uiso   1.00
H902   H     0.00008   0.42087   0.79031   0.00000  Uiso   1.00
H903   H     0.29825   0.43561   0.83795   0.00000  Uiso   1.00
O904   O     0.16667   0.50000   0.75000   0.00000  Uiso   1.00
O905   O     0.15693   0.45726   0.66625   0.00000  Uiso   1.00
O906   O     0.12687   0.53979   0.83749   0.00000  Uiso   1.00
O907   O     0.21088   0.50826   0.65877   0.00000  Uiso   1.00
O908   O     0.17198   0.49468   0.83749   0.00000  Uiso   1.00
O909   O     0.31110   0.47960   0.79912   0.00000  Uiso   1.00
O910   O     0.11069   0.66024   0.78550   0.00000  Uiso   1.00
O911   O     0.06554   0.55426   0.90282   0.00000  Uiso   1.00
O912   O     0.17849   0.41434   0.77820   0.00000  Uiso   1.00
O913   O     0.14581   0.59469   0.76767   0.00000  Uiso   1.00
O914   O     0.07452   0.46584   0.73607   0.00000  Uiso   1.00
O915   O     0.26785   0.52512   0.71805   0.00000  Uiso   1.00
O916   O     0.06990   0.52293   0.77820   0.00000  Uiso   1.00
O917   O     0.25440   0.48610   0.76767   0.00000  Uiso   1.00
O918   O     0.13800   0.40236   0.73607   0.00000  Uiso   1.00
O919   O     0.20437   0.58860   0.71806   0.00000  Uiso   1.00
Zn920  Zn    0.19244   0.47423   0.78277   0.00000  Uiso   1.00
Zn921  Zn    0.13459   0.45711   0.72257   0.00000  Uiso   1.00
Zn922  Zn    0.21166   0.52997   0.71188   0.00000  Uiso   1.00
Zn923  Zn    0.12798   0.53868   0.78277   0.00000  Uiso   1.00
C924   C     0.38609   0.49374   0.75848   0.00000  Uiso   1.00
C925   C     0.53073   0.46063   0.95913   0.00000  Uiso   1.00
C926   C     0.55569   0.44645   0.97901   0.00000  Uiso   1.00
C927   C     0.61428   0.50675   0.74139   0.00000  Uiso   1.00
C928   C     0.54711   0.45476   0.51974   0.00000  Uiso   1.00
C929   C     0.51084   0.47564   0.54179   0.00000  Uiso   1.00
C930   C     0.57430   0.44176   0.53869   0.00000  Uiso   1.00
C931   C     0.56626   0.44962   0.57943   0.00000  Uiso   1.00
C932   C     0.50321   0.48286   0.58308   0.00000  Uiso   1.00
C933   C     0.66009   0.50730   0.73744   0.00000  Uiso   1.00
C934   C     0.34017   0.49112   0.76397   0.00000  Uiso   1.00
C935   C     0.42400   0.53855   0.92138   0.00000  Uiso   1.00
C936   C     0.51391   0.65578   0.74020   0.00000  Uiso   1.00
C937   C     0.48306   0.34568   0.76311   0.00000  Uiso   1.00
C938   C     0.48949   0.38965   0.75867   0.00000  Uiso   1.00
C939   C     0.50995   0.61101   0.74163   0.00000  Uiso   1.00
C940   C     0.52159   0.47857   0.64410   0.00000  Uiso   1.00
C941   C     0.47818   0.52068   0.85630   0.00000  Uiso   1.00
C942   C     0.46391   0.52433   0.89976   0.00000  Uiso   1.00
C943   C     0.53056   0.46997   0.60153   0.00000  Uiso   1.00
C944   C     0.41071   0.53857   0.96237   0.00000  Uiso   1.00
C945   C     0.65835   0.44751   0.81349   0.00000  Uiso   1.00
C946   C     0.48883   0.50910   0.91944   0.00000  Uiso   1.00
C947   C     0.42135   0.35506   0.81576   0.00000  Uiso   1.00
C948   C     0.36379   0.52429   0.90032   0.00000  Uiso   1.00
C949   C     0.47365   0.50454   0.95996   0.00000  Uiso   1.00
C950   C     0.43493   0.52159   0.98174   0.00000  Uiso   1.00
C951   C     0.49672   0.48520   0.97968   0.00000  Uiso   1.00
C952   C     0.48436   0.48948   0.52174   0.00000  Uiso   1.00
C953   C     0.44562   0.50684   0.54231   0.00000  Uiso   1.00
C954   C     0.42097   0.52178   0.52262   0.00000  Uiso   1.00
F955   F     0.38367   0.53748   0.54399   0.00000  Uiso   1.00
F956   F     0.35578   0.52328   0.70565   0.00000  Uiso   1.00
F957   F     0.55010   0.34054   0.71558   0.00000  Uiso   1.00
F958   F     0.59302   0.43715   0.59734   0.00000  Uiso   1.00
F959   F     0.53821   0.44660   0.92030   0.00000  Uiso   1.00
H960   H     0.60197   0.42574   0.52190   0.00000  Uiso   1.00
H961   H     0.40780   0.37764   0.80335   0.00000  Uiso   1.00
H962   H     0.44203   0.37159   0.83431   0.00000  Uiso   1.00
H963   H     0.39390   0.33714   0.83521   0.00000  Uiso   1.00
H964   H     0.37476   0.49361   0.88573   0.00000  Uiso   1.00
H965   H     0.34610   0.53512   0.88204   0.00000  Uiso   1.00
H966   H     0.34092   0.52064   0.92993   0.00000  Uiso   1.00
H967   H     0.47724   0.49969   0.60181   0.00000  Uiso   1.00
H968   H     0.58192   0.42846   0.96227   0.00000  Uiso   1.00
H969   H     0.38096   0.55141   0.97884   0.00000  Uiso   1.00
H970   H     0.52072   0.50216   0.90252   0.00000  Uiso   1.00
H971   H     0.43258   0.50824   0.57383   0.00000  Uiso   1.00
H972   H     0.35264   0.45952   0.82563   0.00000  Uiso   1.00
H973   H     0.33341   0.42087   0.79031   0.00000  Uiso   1.00
H974   H     0.63158   0.43561   0.83795   0.00000  Uiso   1.00
O975   O     0.50000   0.50000   0.75000   0.00000  Uiso   1.00
O976   O     0.49027   0.45726   0.66625   0.00000  Uiso   1.00
O977   O     0.46020   0.53979   0.83749   0.00000  Uiso   1.00
O978   O     0.54421   0.50826   0.65877   0.00000  Uiso   1.00
O979   O     0.50532   0.49468   0.83749   0.00000  Uiso   1.00
O980   O     0.64443   0.47960   0.79912   0.00000  Uiso   1.00
O981   O     0.44403   0.66024   0.78550   0.00000  Uiso   1.00
O982   O     0.39887   0.55426   0.90282   0.00000  Uiso   1.00
O983   O     0.51182   0.41434   0.77820   0.00000  Uiso   1.00
O984   O     0.47914   0.59469   0.76767   0.00000  Uiso   1.00
O985   O     0.40785   0.46584   0.73607   0.00000  Uiso   1.00
O986   O     0.60119   0.52512   0.71805   0.00000  Uiso   1.00
O987   O     0.40323   0.52293   0.77820   0.00000  Uiso   1.00
O988   O     0.58773   0.48610   0.76767   0.00000  Uiso   1.00
O989   O     0.47133   0.40236   0.73607   0.00000  Uiso   1.00
O990   O     0.53771   0.58860   0.71806   0.00000  Uiso   1.00
Zn991  Zn    0.52577   0.47423   0.78277   0.00000  Uiso   1.00
Zn992  Zn    0.46792   0.45711   0.72257   0.00000  Uiso   1.00
Zn993  Zn    0.54500   0.52997   0.71188   0.00000  Uiso   1.00
Zn994  Zn    0.46131   0.53868   0.78277   0.00000  Uiso   1.00
C995   C     0.71943   0.49374   0.75848   0.00000  Uiso   1.00
C996   C     0.86407   0.46063   0.95913   0.00000  Uiso   1.00
C997   C     0.88903   0.44645   0.97901   0.00000  Uiso   1.00
C998   C     0.94761   0.50675   0.74139   0.00000  Uiso   1.00
C999   C     0.88045   0.45476   0.51974   0.00000  Uiso   1.00
C1000  C     0.84417   0.47564   0.54179   0.00000  Uiso   1.00
C1001  C     0.90764   0.44176   0.53869   0.00000  Uiso   1.00
C1002  C     0.89959   0.44962   0.57943   0.00000  Uiso   1.00
C1003  C     0.83654   0.48286   0.58308   0.00000  Uiso   1.00
C1004  C     0.99343   0.50730   0.73744   0.00000  Uiso   1.00
C1005  C     0.67351   0.49112   0.76397   0.00000  Uiso   1.00
C1006  C     0.75734   0.53855   0.92138   0.00000  Uiso   1.00
C1007  C     0.84724   0.65578   0.74020   0.00000  Uiso   1.00
C1008  C     0.81639   0.34568   0.76311   0.00000  Uiso   1.00
C1009  C     0.82282   0.38965   0.75867   0.00000  Uiso   1.00
C1010  C     0.84328   0.61101   0.74163   0.00000  Uiso   1.00
C1011  C     0.85492   0.47857   0.64410   0.00000  Uiso   1.00
C1012  C     0.81151   0.52068   0.85630   0.00000  Uiso   1.00
C1013  C     0.79724   0.52433   0.89976   0.00000  Uiso   1.00
C1014  C     0.86389   0.46997   0.60153   0.00000  Uiso   1.00
C1015  C     0.74404   0.53857   0.96237   0.00000  Uiso   1.00
C1016  C     0.99168   0.44751   0.81349   0.00000  Uiso   1.00
C1017  C     0.82216   0.50910   0.91944   0.00000  Uiso   1.00
C1018  C     0.75468   0.35506   0.81576   0.00000  Uiso   1.00
C1019  C     0.69713   0.52429   0.90032   0.00000  Uiso   1.00
C1020  C     0.80698   0.50454   0.95996   0.00000  Uiso   1.00
C1021  C     0.76827   0.52159   0.98174   0.00000  Uiso   1.00
C1022  C     0.83006   0.48520   0.97968   0.00000  Uiso   1.00
C1023  C     0.81770   0.48948   0.52174   0.00000  Uiso   1.00
C1024  C     0.77895   0.50684   0.54231   0.00000  Uiso   1.00
C1025  C     0.75430   0.52178   0.52262   0.00000  Uiso   1.00
F1026  F     0.71700   0.53748   0.54399   0.00000  Uiso   1.00
F1027  F     0.68912   0.52328   0.70565   0.00000  Uiso   1.00
F1028  F     0.88343   0.34054   0.71558   0.00000  Uiso   1.00
F1029  F     0.92635   0.43715   0.59734   0.00000  Uiso   1.00
F1030  F     0.87154   0.44660   0.92030   0.00000  Uiso   1.00
H1031  H     0.93531   0.42574   0.52190   0.00000  Uiso   1.00
H1032  H     0.74113   0.37764   0.80335   0.00000  Uiso   1.00
H1033  H     0.77536   0.37159   0.83431   0.00000  Uiso   1.00
H1034  H     0.72723   0.33714   0.83521   0.00000  Uiso   1.00
H1035  H     0.70810   0.49361   0.88573   0.00000  Uiso   1.00
H1036  H     0.67943   0.53512   0.88204   0.00000  Uiso   1.00
H1037  H     0.67425   0.52064   0.92993   0.00000  Uiso   1.00
H1038  H     0.81057   0.49969   0.60181   0.00000  Uiso   1.00
H1039  H     0.91525   0.42846   0.96227   0.00000  Uiso   1.00
H1040  H     0.71429   0.55141   0.97884   0.00000  Uiso   1.00
H1041  H     0.85405   0.50216   0.90252   0.00000  Uiso   1.00
H1042  H     0.76592   0.50824   0.57383   0.00000  Uiso   1.00
H1043  H     0.68597   0.45952   0.82563   0.00000  Uiso   1.00
H1044  H     0.66674   0.42087   0.79031   0.00000  Uiso   1.00
H1045  H     0.96491   0.43561   0.83795   0.00000  Uiso   1.00
O1046  O     0.83333   0.50000   0.75000   0.00000  Uiso   1.00
O1047  O     0.82360   0.45726   0.66625   0.00000  Uiso   1.00
O1048  O     0.79354   0.53979   0.83749   0.00000  Uiso   1.00
O1049  O     0.87755   0.50826   0.65877   0.00000  Uiso   1.00
O1050  O     0.83865   0.49468   0.83749   0.00000  Uiso   1.00
O1051  O     0.97776   0.47960   0.79912   0.00000  Uiso   1.00
O1052  O     0.77736   0.66024   0.78550   0.00000  Uiso   1.00
O1053  O     0.73220   0.55426   0.90282   0.00000  Uiso   1.00
O1054  O     0.84515   0.41434   0.77820   0.00000  Uiso   1.00
O1055  O     0.81247   0.59469   0.76767   0.00000  Uiso   1.00
O1056  O     0.74119   0.46584   0.73607   0.00000  Uiso   1.00
O1057  O     0.93452   0.52512   0.71805   0.00000  Uiso   1.00
O1058  O     0.73656   0.52293   0.77820   0.00000  Uiso   1.00
O1059  O     0.92106   0.48610   0.76767   0.00000  Uiso   1.00
O1060  O     0.80467   0.40236   0.73607   0.00000  Uiso   1.00
O1061  O     0.87104   0.58860   0.71806   0.00000  Uiso   1.00
Zn1062 Zn    0.85910   0.47423   0.78277   0.00000  Uiso   1.00
Zn1063 Zn    0.80125   0.45711   0.72257   0.00000  Uiso   1.00
Zn1064 Zn    0.87833   0.52997   0.71188   0.00000  Uiso   1.00
Zn1065 Zn    0.79465   0.53868   0.78277   0.00000  Uiso   1.00
C1066  C     0.05276   0.82708   0.75848   0.00000  Uiso   1.00
C1067  C     0.19740   0.79396   0.95913   0.00000  Uiso   1.00
C1068  C     0.22236   0.77979   0.97901   0.00000  Uiso   1.00
C1069  C     0.28094   0.84008   0.74139   0.00000  Uiso   1.00
C1070  C     0.21378   0.78810   0.51974   0.00000  Uiso   1.00
C1071  C     0.17750   0.80898   0.54179   0.00000  Uiso   1.00
C1072  C     0.24097   0.77510   0.53869   0.00000  Uiso   1.00
C1073  C     0.23292   0.78296   0.57943   0.00000  Uiso   1.00
C1074  C     0.16988   0.81620   0.58308   0.00000  Uiso   1.00
C1075  C     0.32676   0.84063   0.73744   0.00000  Uiso   1.00
C1076  C     0.00684   0.82446   0.76397   0.00000  Uiso   1.00
C1077  C     0.09067   0.87188   0.92138   0.00000  Uiso   1.00
C1078  C     0.18058   0.98911   0.74020   0.00000  Uiso   1.00
C1079  C     0.14973   0.67901   0.76311   0.00000  Uiso   1.00
C1080  C     0.15615   0.72299   0.75867   0.00000  Uiso   1.00
C1081  C     0.17662   0.94434   0.74163   0.00000  Uiso   1.00
C1082  C     0.18825   0.81191   0.64410   0.00000  Uiso   1.00
C1083  C     0.14484   0.85402   0.85630   0.00000  Uiso   1.00
C1084  C     0.13057   0.85766   0.89976   0.00000  Uiso   1.00
C1085  C     0.19722   0.80330   0.60153   0.00000  Uiso   1.00
C1086  C     0.07738   0.87191   0.96237   0.00000  Uiso   1.00
C1087  C     0.32501   0.78084   0.81349   0.00000  Uiso   1.00
C1088  C     0.15550   0.84243   0.91944   0.00000  Uiso   1.00
C1089  C     0.08802   0.68840   0.81576   0.00000  Uiso   1.00
C1090  C     0.03046   0.85762   0.90032   0.00000  Uiso   1.00
C1091  C     0.14032   0.83787   0.95996   0.00000  Uiso   1.00
C1092  C     0.10160   0.85492   0.98174   0.00000  Uiso   1.00
C1093  C     0.16339   0.81854   0.97968   0.00000  Uiso   1.00
C1094  C     0.15103   0.82281   0.52174   0.00000  Uiso   1.00
C1095  C     0.11229   0.84017   0.54231   0.00000  Uiso   1.00
C1096  C     0.08764   0.85512   0.52262   0.00000  Uiso   1.00
F1097  F     0.05034   0.87081   0.54399   0.00000  Uiso   1.00
F1098  F     0.02245   0.85662   0.70565   0.00000  Uiso   1.00
F1099  F     0.21676   0.67387   0.71558   0.00000  Uiso   1.00
F1100  F     0.25968   0.77048   0.59734   0.00000  Uiso   1.00
F1101  F     0.20487   0.77993   0.92030   0.00000  Uiso   1.00
H1102  H     0.26864   0.75907   0.52190   0.00000  Uiso   1.00
H1103  H     0.07447   0.71097   0.80335   0.00000  Uiso   1.00
H1104  H     0.10869   0.70492   0.83431   0.00000  Uiso   1.00
H1105  H     0.06057   0.67047   0.83521   0.00000  Uiso   1.00
H1106  H     0.04143   0.82695   0.88573   0.00000  Uiso   1.00
H1107  H     0.01277   0.86846   0.88204   0.00000  Uiso   1.00
H1108  H     0.00758   0.85398   0.92993   0.00000  Uiso   1.00
H1109  H     0.14391   0.83302   0.60181   0.00000  Uiso   1.00
H1110  H     0.24859   0.76179   0.96227   0.00000  Uiso   1.00
H1111  H     0.04762   0.88474   0.97884   0.00000  Uiso   1.00
H1112  H     0.18739   0.83549   0.90252   0.00000  Uiso   1.00
H1113  H     0.09925   0.84158   0.57383   0.00000  Uiso   1.00
H1114  H     0.01931   0.79285   0.82563   0.00000  Uiso   1.00
H1115  H     0.00008   0.75420   0.79031   0.00000  Uiso   1.00
H1116  H     0.29825   0.76895   0.83795   0.00000  Uiso   1.00
O1117  O     0.16667   0.83333   0.75000   0.00000  Uiso   1.00
O1118  O     0.15693   0.79060   0.66625   0.00000  Uiso   1.00
O1119  O     0.12687   0.87313   0.83749   0.00000  Uiso   1.00
O1120  O     0.21088   0.84159   0.65877   0.00000  Uiso   1.00
O1121  O     0.17198   0.82802   0.83749   0.00000  Uiso   1.00
O1122  O     0.31110   0.81294   0.79912   0.00000  Uiso   1.00
O1123  O     0.11069   0.99357   0.78550   0.00000  Uiso   1.00
O1124  O     0.06554   0.88760   0.90282   0.00000  Uiso   1.00
O1125  O     0.17849   0.74768   0.77820   0.00000  Uiso   1.00
O1126  O     0.14581   0.92803   0.76767   0.00000  Uiso   1.00
O1127  O     0.07452   0.79917   0.73607   0.00000  Uiso   1.00
O1128  O     0.26785   0.85845   0.71805   0.00000  Uiso   1.00
O1129  O     0.06990   0.85627   0.77820   0.00000  Uiso   1.00
O1130  O     0.25440   0.81944   0.76767   0.00000  Uiso   1.00
O1131  O     0.13800   0.73570   0.73607   0.00000  Uiso   1.00
O1132  O     0.20437   0.92193   0.71806   0.00000  Uiso   1.00
Zn1133 Zn    0.19244   0.80756   0.78277   0.00000  Uiso   1.00
Zn1134 Zn    0.13459   0.79044   0.72257   0.00000  Uiso   1.00
Zn1135 Zn    0.21166   0.86331   0.71188   0.00000  Uiso   1.00
Zn1136 Zn    0.12798   0.87202   0.78277   0.00000  Uiso   1.00
C1137  C     0.38609   0.82708   0.75848   0.00000  Uiso   1.00
C1138  C     0.53073   0.79396   0.95913   0.00000  Uiso   1.00
C1139  C     0.55569   0.77979   0.97901   0.00000  Uiso   1.00
C1140  C     0.61428   0.84008   0.74139   0.00000  Uiso   1.00
C1141  C     0.54711   0.78810   0.51974   0.00000  Uiso   1.00
C1142  C     0.51084   0.80898   0.54179   0.00000  Uiso   1.00
C1143  C     0.57430   0.77510   0.53869   0.00000  Uiso   1.00
C1144  C     0.56626   0.78296   0.57943   0.00000  Uiso   1.00
C1145  C     0.50321   0.81620   0.58308   0.00000  Uiso   1.00
C1146  C     0.66009   0.84063   0.73744   0.00000  Uiso   1.00
C1147  C     0.34017   0.82446   0.76397   0.00000  Uiso   1.00
C1148  C     0.42400   0.87188   0.92138   0.00000  Uiso   1.00
C1149  C     0.51391   0.98911   0.74020   0.00000  Uiso   1.00
C1150  C     0.48306   0.67901   0.76311   0.00000  Uiso   1.00
C1151  C     0.48949   0.72299   0.75867   0.00000  Uiso   1.00
C1152  C     0.50995   0.94434   0.74163   0.00000  Uiso   1.00
C1153  C     0.52159   0.81191   0.64410   0.00000  Uiso   1.00
C1154  C     0.47818   0.85402   0.85630   0.00000  Uiso   1.00
C1155  C     0.46391   0.85766   0.89976   0.00000  Uiso   1.00
C1156  C     0.53056   0.80330   0.60153   0.00000  Uiso   1.00
C1157  C     0.41071   0.87191   0.96237   0.00000  Uiso   1.00
C1158  C     0.65835   0.78084   0.81349   0.00000  Uiso   1.00
C1159  C     0.48883   0.84243   0.91944   0.00000  Uiso   1.00
C1160  C     0.42135   0.68840   0.81576   0.00000  Uiso   1.00
C1161  C     0.36379   0.85762   0.90032   0.00000  Uiso   1.00
C1162  C     0.47365   0.83787   0.95996   0.00000  Uiso   1.00
C1163  C     0.43493   0.85492   0.98174   0.00000  Uiso   1.00
C1164  C     0.49672   0.81854   0.97968   0.00000  Uiso   1.00
C1165  C     0.48436   0.82281   0.52174   0.00000  Uiso   1.00
C1166  C     0.44562   0.84017   0.54231   0.00000  Uiso   1.00
C1167  C     0.42097   0.85512   0.52262   0.00000  Uiso   1.00
F1168  F     0.38367   0.87081   0.54399   0.00000  Uiso   1.00
F1169  F     0.35578   0.85662   0.70565   0.00000  Uiso   1.00
F1170  F     0.55010   0.67387   0.71558   0.00000  Uiso   1.00
F1171  F     0.59302   0.77048   0.59734   0.00000  Uiso   1.00
F1172  F     0.53821   0.77993   0.92030   0.00000  Uiso   1.00
H1173  H     0.60197   0.75907   0.52190   0.00000  Uiso   1.00
H1174  H     0.40780   0.71097   0.80335   0.00000  Uiso   1.00
H1175  H     0.44203   0.70492   0.83431   0.00000  Uiso   1.00
H1176  H     0.39390   0.67047   0.83521   0.00000  Uiso   1.00
H1177  H     0.37476   0.82695   0.88573   0.00000  Uiso   1.00
H1178  H     0.34610   0.86846   0.88204   0.00000  Uiso   1.00
H1179  H     0.34092   0.85398   0.92993   0.00000  Uiso   1.00
H1180  H     0.47724   0.83302   0.60181   0.00000  Uiso   1.00
H1181  H     0.58192   0.76179   0.96227   0.00000  Uiso   1.00
H1182  H     0.38096   0.88474   0.97884   0.00000  Uiso   1.00
H1183  H     0.52072   0.83549   0.90252   0.00000  Uiso   1.00
H1184  H     0.43258   0.84158   0.57383   0.00000  Uiso   1.00
H1185  H     0.35264   0.79285   0.82563   0.00000  Uiso   1.00
H1186  H     0.33341   0.75420   0.79031   0.00000  Uiso   1.00
H1187  H     0.63158   0.76895   0.83795   0.00000  Uiso   1.00
O1188  O     0.50000   0.83333   0.75000   0.00000  Uiso   1.00
O1189  O     0.49027   0.79060   0.66625   0.00000  Uiso   1.00
O1190  O     0.46020   0.87313   0.83749   0.00000  Uiso   1.00
O1191  O     0.54421   0.84159   0.65877   0.00000  Uiso   1.00
O1192  O     0.50532   0.82802   0.83749   0.00000  Uiso   1.00
O1193  O     0.64443   0.81294   0.79912   0.00000  Uiso   1.00
O1194  O     0.44403   0.99357   0.78550   0.00000  Uiso   1.00
O1195  O     0.39887   0.88760   0.90282   0.00000  Uiso   1.00
O1196  O     0.51182   0.74768   0.77820   0.00000  Uiso   1.00
O1197  O     0.47914   0.92803   0.76767   0.00000  Uiso   1.00
O1198  O     0.40785   0.79917   0.73607   0.00000  Uiso   1.00
O1199  O     0.60119   0.85845   0.71805   0.00000  Uiso   1.00
O1200  O     0.40323   0.85627   0.77820   0.00000  Uiso   1.00
O1201  O     0.58773   0.81944   0.76767   0.00000  Uiso   1.00
O1202  O     0.47133   0.73570   0.73607   0.00000  Uiso   1.00
O1203  O     0.53771   0.92193   0.71806   0.00000  Uiso   1.00
Zn1204 Zn    0.52577   0.80756   0.78277   0.00000  Uiso   1.00
Zn1205 Zn    0.46792   0.79044   0.72257   0.00000  Uiso   1.00
Zn1206 Zn    0.54500   0.86331   0.71188   0.00000  Uiso   1.00
Zn1207 Zn    0.46131   0.87202   0.78277   0.00000  Uiso   1.00
C1208  C     0.71943   0.82708   0.75848   0.00000  Uiso   1.00
C1209  C     0.86407   0.79396   0.95913   0.00000  Uiso   1.00
C1210  C     0.88903   0.77979   0.97901   0.00000  Uiso   1.00
C1211  C     0.94761   0.84008   0.74139   0.00000  Uiso   1.00
C1212  C     0.88045   0.78810   0.51974   0.00000  Uiso   1.00
C1213  C     0.84417   0.80898   0.54179   0.00000  Uiso   1.00
C1214  C     0.90764   0.77510   0.53869   0.00000  Uiso   1.00
C1215  C     0.89959   0.78296   0.57943   0.00000  Uiso   1.00
C1216  C     0.83654   0.81620   0.58308   0.00000  Uiso   1.00
C1217  C     0.99343   0.84063   0.73744   0.00000  Uiso   1.00
C1218  C     0.67351   0.82446   0.76397   0.00000  Uiso   1.00
C1219  C     0.75734   0.87188   0.92138   0.00000  Uiso   1.00
C1220  C     0.84724   0.98911   0.74020   0.00000  Uiso   1.00
C1221  C     0.81639   0.67901   0.76311   0.00000  Uiso   1.00
C1222  C     0.82282   0.72299   0.75867   0.00000  Uiso   1.00
C1223  C     0.84328   0.94434   0.74163   0.00000  Uiso   1.00
C1224  C     0.85492   0.81191   0.64410   0.00000  Uiso   1.00
C1225  C     0.81151   0.85402   0.85630   0.00000  Uiso   1.00
C1226  C     0.79724   0.85766   0.89976   0.00000  Uiso   1.00
C1227  C     0.86389   0.80330   0.60153   0.00000  Uiso   1.00
C1228  C     0.74404   0.87191   0.96237   0.00000  Uiso   1.00
C1229  C     0.99168   0.78084   0.81349   0.00000  Uiso   1.00
C1230  C     0.82216   0.84243   0.91944   0.00000  Uiso   1.00
C1231  C     0.75468   0.68840   0.81576   0.00000  Uiso   1.00
C1232  C     0.69713   0.85762   0.90032   0.00000  Uiso   1.00
C1233  C     0.80698   0.83787   0.95996   0.00000  Uiso   1.00
C1234  C     0.76827   0.85492   0.98174   0.00000  Uiso   1.00
C1235  C     0.83006   0.81854   0.97968   0.00000  Uiso   1.00
C1236  C     0.81770   0.82281   0.52174   0.00000  Uiso   1.00
C1237  C     0.77895   0.84017   0.54231   0.00000  Uiso   1.00
C1238  C     0.75430   0.85512   0.52262   0.00000  Uiso   1.00
F1239  F     0.71700   0.87081   0.54399   0.00000  Uiso   1.00
F1240  F     0.68912   0.85662   0.70565   0.00000  Uiso   1.00
F1241  F     0.88343   0.67387   0.71558   0.00000  Uiso   1.00
F1242  F     0.92635   0.77048   0.59734   0.00000  Uiso   1.00
F1243  F     0.87154   0.77993   0.92030   0.00000  Uiso   1.00
H1244  H     0.93531   0.75907   0.52190   0.00000  Uiso   1.00
H1245  H     0.74113   0.71097   0.80335   0.00000  Uiso   1.00
H1246  H     0.77536   0.70492   0.83431   0.00000  Uiso   1.00
H1247  H     0.72723   0.67047   0.83521   0.00000  Uiso   1.00
H1248  H     0.70810   0.82695   0.88573   0.00000  Uiso   1.00
H1249  H     0.67943   0.86846   0.88204   0.00000  Uiso   1.00
H1250  H     0.67425   0.85398   0.92993   0.00000  Uiso   1.00
H1251  H     0.81057   0.83302   0.60181   0.00000  Uiso   1.00
H1252  H     0.91525   0.76179   0.96227   0.00000  Uiso   1.00
H1253  H     0.71429   0.88474   0.97884   0.00000  Uiso   1.00
H1254  H     0.85405   0.83549   0.90252   0.00000  Uiso   1.00
H1255  H     0.76592   0.84158   0.57383   0.00000  Uiso   1.00
H1256  H     0.68597   0.79285   0.82563   0.00000  Uiso   1.00
H1257  H     0.66674   0.75420   0.79031   0.00000  Uiso   1.00
H1258  H     0.96491   0.76895   0.83795   0.00000  Uiso   1.00
O1259  O     0.83333   0.83333   0.75000   0.00000  Uiso   1.00
O1260  O     0.82360   0.79060   0.66625   0.00000  Uiso   1.00
O1261  O     0.79354   0.87313   0.83749   0.00000  Uiso   1.00
O1262  O     0.87755   0.84159   0.65877   0.00000  Uiso   1.00
O1263  O     0.83865   0.82802   0.83749   0.00000  Uiso   1.00
O1264  O     0.97776   0.81294   0.79912   0.00000  Uiso   1.00
O1265  O     0.77736   0.99357   0.78550   0.00000  Uiso   1.00
O1266  O     0.73220   0.88760   0.90282   0.00000  Uiso   1.00
O1267  O     0.84515   0.74768   0.77820   0.00000  Uiso   1.00
O1268  O     0.81247   0.92803   0.76767   0.00000  Uiso   1.00
O1269  O     0.74119   0.79917   0.73607   0.00000  Uiso   1.00
O1270  O     0.93452   0.85845   0.71805   0.00000  Uiso   1.00
O1271  O     0.73656   0.85627   0.77820   0.00000  Uiso   1.00
O1272  O     0.92106   0.81944   0.76767   0.00000  Uiso   1.00
O1273  O     0.80467   0.73570   0.73607   0.00000  Uiso   1.00
O1274  O     0.87104   0.92193   0.71806   0.00000  Uiso   1.00
Zn1275 Zn    0.85910   0.80756   0.78277   0.00000  Uiso   1.00
Zn1276 Zn    0.80125   0.79044   0.72257   0.00000  Uiso   1.00
Zn1277 Zn    0.87833   0.86331   0.71188   0.00000  Uiso   1.00
Zn1278 Zn    0.79465   0.87202   0.78277   0.00000  Uiso   1.00
loop_
_geom_bond_atom_site_label_1
_geom_bond_atom_site_label_2
_geom_bond_distance
_geom_bond_site_symmetry_2
_ccdc_geom_bond_type
C1     C11     1.446   .     S
C1     O62     1.270   .     A
C1     O64     1.264   .     A
C2     C3      1.387   .     A
C2     F36     1.356   .     S
C2     C28     1.421   .     A
C3     H45     1.084   .     S
C3     C644    1.390   .     S
C4     O63     1.289   .     A
C4     O65     1.275   .     A
C4     C10     1.459   .     S
C5     C6      1.419   .     A
C5     C7      1.403   .     A
C5     C642    1.390   1_554 S
C6     C9      1.411   .     A
C6     C29     1.426   .     A
C7     H37     1.084   .     S
C7     C8      1.391   .     A
C8     C20     1.397   .     A
C8     F35     1.358   .     S
C9     C20     1.393   .     A
C9     H44     1.078   .     S
C10    C82     1.350   .     S
C10    F104    1.363   .     S
C11    C152    1.350   1_455 S
C11    O199    1.398   1_455 S
C12    C19     1.410   .     A
C12    O59     1.383   .     S
C12    C21     1.398   .     A
C13    C16     1.454   .     S
C13    C227    1.346   .     S
C13    F247    1.363   .     S
C14    C15     1.444   .     S
C14    C439    1.346   1_545 S
C14    O484    1.400   1_545 S
C15    O66     1.274   .     A
C15    O60     1.278   .     A
C16    O61     1.265   .     A
C16    O67     1.275   .     A
C17    O55     1.278   .     A
C17    C20     1.453   .     S
C17    O53     1.279   .     A
C18    O56     1.286   .     A
C18    O54     1.281   .     A
C18    C19     1.475   .     S
C19    C23     1.398   .     A
C21    C27     1.403   .     A
C21    H46     1.084   .     S
C22    O57     1.412   .     S
C22    H51     1.109   .     S
C22    H120    1.111   .     S
C22    H121    1.114   .     S
C23    C26     1.407   .     A
C23    H47     1.077   .     S
C24    H39     1.113   .     S
C24    H40     1.109   .     S
C24    H38     1.112   .     S
C24    O484    1.412   1_545 S
C25    H42     1.109   .     S
C25    H43     1.112   .     S
C25    H41     1.114   .     S
C25    O59     1.411   .     S
C26    C28     1.427   .     A
C26    C27     1.418   .     A
C27    C670    1.395   .     S
C28    C668    1.427   .     S
C29    C30     1.414   .     A
C29    C667    1.427   1_554 S
C30    H48     1.076   .     S
C30    C31     1.387   .     A
C31    F32     1.359   .     S
C31    C666    1.395   1_554 S
F33    C152    1.363   1_455 S
F34    C439    1.363   1_545 S
H49    C164    1.111   1_455 S
H50    C164    1.114   1_455 S
O52    Zn71    1.927   .     S
O52    Zn70    1.941   .     S
O52    Zn69    1.948   .     S
O52    Zn68    1.962   .     S
O53    Zn69    1.928   .     S
O54    Zn71    1.938   .     S
O55    Zn70    1.931   .     S
O56    Zn68    1.920   .     S
O57    C82     1.398   .     S
O58    C227    1.400   .     S
O58    C237    1.412   .     S
O60    Zn68    1.935   .     S
O61    Zn71    1.940   .     S
O62    Zn69    1.930   .     S
O63    Zn70    1.942   .     S
O64    Zn71    1.941   .     S
O65    Zn68    1.932   .     S
O66    Zn69    1.941   .     S
O67    Zn70    1.933   .     S
C72    C82     1.446   .     S
C72    O133    1.270   .     A
C72    O135    1.264   .     A
C73    C74     1.387   .     A
C73    F107    1.356   .     S
C73    C99     1.421   .     A
C74    H116    1.084   .     S
C74    C715    1.390   .     S
C75    O134    1.289   .     A
C75    O136    1.275   .     A
C75    C81     1.459   .     S
C76    C77     1.419   .     A
C76    C78     1.403   .     A
C76    C713    1.390   1_554 S
C77    C80     1.411   .     A
C77    C100    1.426   .     A
C78    H108    1.084   .     S
C78    C79     1.391   .     A
C79    C91     1.397   .     A
C79    F106    1.358   .     S
C80    C91     1.393   .     A
C80    H115    1.078   .     S
C81    C153    1.350   .     S
C81    F175    1.363   .     S
C83    C90     1.410   .     A
C83    O130    1.383   .     S
C83    C92     1.398   .     A
C84    C87     1.454   .     S
C84    C298    1.346   .     S
C84    F318    1.363   .     S
C85    C86     1.444   .     S
C85    C510    1.346   1_545 S
C85    O555    1.400   1_545 S
C86    O137    1.274   .     A
C86    O131    1.278   .     A
C87    O132    1.265   .     A
C87    O138    1.275   .     A
C88    O126    1.278   .     A
C88    C91     1.453   .     S
C88    O124    1.279   .     A
C89    O127    1.286   .     A
C89    O125    1.281   .     A
C89    C90     1.475   .     S
C90    C94     1.398   .     A
C92    C98     1.403   .     A
C92    H117    1.084   .     S
C93    O128    1.412   .     S
C93    H122    1.109   .     S
C93    H191    1.111   .     S
C93    H192    1.114   .     S
C94    C97     1.407   .     A
C94    H118    1.077   .     S
C95    H110    1.113   .     S
C95    H111    1.109   .     S
C95    H109    1.112   .     S
C95    O555    1.412   1_545 S
C96    H113    1.109   .     S
C96    H114    1.112   .     S
C96    H112    1.114   .     S
C96    O130    1.411   .     S
C97    C99     1.427   .     A
C97    C98     1.418   .     A
C98    C741    1.395   .     S
C99    C739    1.427   .     S
C100   C101    1.414   .     A
C100   C738    1.427   1_554 S
C101   H119    1.076   .     S
C101   C102    1.387   .     A
C102   F103    1.359   .     S
C102   C737    1.395   1_554 S
F105   C510    1.363   1_545 S
O123   Zn142   1.927   .     S
O123   Zn141   1.941   .     S
O123   Zn140   1.948   .     S
O123   Zn139   1.962   .     S
O124   Zn140   1.928   .     S
O125   Zn142   1.938   .     S
O126   Zn141   1.931   .     S
O127   Zn139   1.920   .     S
O128   C153    1.398   .     S
O129   C298    1.400   .     S
O129   C308    1.412   .     S
O131   Zn139   1.935   .     S
O132   Zn142   1.940   .     S
O133   Zn140   1.930   .     S
O134   Zn141   1.942   .     S
O135   Zn142   1.941   .     S
O136   Zn139   1.932   .     S
O137   Zn140   1.941   .     S
O138   Zn141   1.933   .     S
C143   C153    1.446   .     S
C143   O204    1.270   .     A
C143   O206    1.264   .     A
C144   C145    1.387   .     A
C144   F178    1.356   .     S
C144   C170    1.421   .     A
C145   H187    1.084   .     S
C145   C786    1.390   .     S
C146   O205    1.289   .     A
C146   O207    1.275   .     A
C146   C152    1.459   .     S
C147   C148    1.419   .     A
C147   C149    1.403   .     A
C147   C784    1.390   1_554 S
C148   C151    1.411   .     A
C148   C171    1.426   .     A
C149   H179    1.084   .     S
C149   C150    1.391   .     A
C150   C162    1.397   .     A
C150   F177    1.358   .     S
C151   C162    1.393   .     A
C151   H186    1.078   .     S
C152   C11     1.350   1_655 S
C152   F33     1.363   1_655 S
C154   C161    1.410   .     A
C154   O201    1.383   .     S
C154   C163    1.398   .     A
C155   C158    1.454   .     S
C155   C369    1.346   .     S
C155   F389    1.363   .     S
C156   C157    1.444   .     S
C156   C581    1.346   1_545 S
C156   O626    1.400   1_545 S
C157   O208    1.274   .     A
C157   O202    1.278   .     A
C158   O203    1.265   .     A
C158   O209    1.275   .     A
C159   O197    1.278   .     A
C159   C162    1.453   .     S
C159   O195    1.279   .     A
C160   O198    1.286   .     A
C160   O196    1.281   .     A
C160   C161    1.475   .     S
C161   C165    1.398   .     A
C163   C169    1.403   .     A
C163   H188    1.084   .     S
C164   O199    1.412   .     S
C164   H193    1.109   .     S
C164   H49     1.111   1_655 S
C164   H50     1.114   1_655 S
C165   C168    1.407   .     A
C165   H189    1.077   .     S
C166   H181    1.113   .     S
C166   H182    1.109   .     S
C166   H180    1.112   .     S
C166   O626    1.412   1_545 S
C167   H184    1.109   .     S
C167   H185    1.112   .     S
C167   H183    1.114   .     S
C167   O201    1.411   .     S
C168   C170    1.427   .     A
C168   C169    1.418   .     A
C169   C812    1.395   .     S
C170   C810    1.427   .     S
C171   C172    1.414   .     A
C171   C809    1.427   1_554 S
C172   H190    1.076   .     S
C172   C173    1.387   .     A
C173   F174    1.359   .     S
C173   C808    1.395   1_554 S
F176   C581    1.363   1_545 S
O194   Zn213   1.927   .     S
O194   Zn212   1.941   .     S
O194   Zn211   1.948   .     S
O194   Zn210   1.962   .     S
O195   Zn211   1.928   .     S
O196   Zn213   1.938   .     S
O197   Zn212   1.931   .     S
O198   Zn210   1.920   .     S
O199   C11     1.398   1_655 S
O200   C369    1.400   .     S
O200   C379    1.412   .     S
O202   Zn210   1.935   .     S
O203   Zn213   1.940   .     S
O204   Zn211   1.930   .     S
O205   Zn212   1.942   .     S
O206   Zn213   1.941   .     S
O207   Zn210   1.932   .     S
O208   Zn211   1.941   .     S
O209   Zn212   1.933   .     S
C214   C224    1.446   .     S
C214   O275    1.270   .     A
C214   O277    1.264   .     A
C215   C216    1.387   .     A
C215   F249    1.356   .     S
C215   C241    1.421   .     A
C216   H258    1.084   .     S
C216   C857    1.390   .     S
C217   O276    1.289   .     A
C217   O278    1.275   .     A
C217   C223    1.459   .     S
C218   C219    1.419   .     A
C218   C220    1.403   .     A
C218   C855    1.390   1_554 S
C219   C222    1.411   .     A
C219   C242    1.426   .     A
C220   H250    1.084   .     S
C220   C221    1.391   .     A
C221   C233    1.397   .     A
C221   F248    1.358   .     S
C222   C233    1.393   .     A
C222   H257    1.078   .     S
C223   C295    1.350   .     S
C223   F317    1.363   .     S
C224   C365    1.350   1_455 S
C224   O412    1.398   1_455 S
C225   C232    1.410   .     A
C225   O272    1.383   .     S
C225   C234    1.398   .     A
C226   C229    1.454   .     S
C226   C440    1.346   .     S
C226   F460    1.363   .     S
C227   C228    1.444   .     S
C228   O279    1.274   .     A
C228   O273    1.278   .     A
C229   O274    1.265   .     A
C229   O280    1.275   .     A
C230   O268    1.278   .     A
C230   C233    1.453   .     S
C230   O266    1.279   .     A
C231   O269    1.286   .     A
C231   O267    1.281   .     A
C231   C232    1.475   .     S
C232   C236    1.398   .     A
C234   C240    1.403   .     A
C234   H259    1.084   .     S
C235   O270    1.412   .     S
C235   H264    1.109   .     S
C235   H333    1.111   .     S
C235   H334    1.114   .     S
C236   C239    1.407   .     A
C236   H260    1.077   .     S
C237   H252    1.113   .     S
C237   H253    1.109   .     S
C237   H251    1.112   .     S
C238   H255    1.109   .     S
C238   H256    1.112   .     S
C238   H254    1.114   .     S
C238   O272    1.411   .     S
C239   C241    1.427   .     A
C239   C240    1.418   .     A
C240   C883    1.395   .     S
C241   C881    1.427   .     S
C242   C243    1.414   .     A
C242   C880    1.427   1_554 S
C243   H261    1.076   .     S
C243   C244    1.387   .     A
C244   F245    1.359   .     S
C244   C879    1.395   1_554 S
F246   C365    1.363   1_455 S
H262   C377    1.111   1_455 S
H263   C377    1.114   1_455 S
O265   Zn284   1.927   .     S
O265   Zn283   1.941   .     S
O265   Zn282   1.948   .     S
O265   Zn281   1.962   .     S
O266   Zn282   1.928   .     S
O267   Zn284   1.938   .     S
O268   Zn283   1.931   .     S
O269   Zn281   1.920   .     S
O270   C295    1.398   .     S
O271   C440    1.400   .     S
O271   C450    1.412   .     S
O273   Zn281   1.935   .     S
O274   Zn284   1.940   .     S
O275   Zn282   1.930   .     S
O276   Zn283   1.942   .     S
O277   Zn284   1.941   .     S
O278   Zn281   1.932   .     S
O279   Zn282   1.941   .     S
O280   Zn283   1.933   .     S
C285   C295    1.446   .     S
C285   O346    1.270   .     A
C285   O348    1.264   .     A
C286   C287    1.387   .     A
C286   F320    1.356   .     S
C286   C312    1.421   .     A
C287   H329    1.084   .     S
C287   C928    1.390   .     S
C288   O347    1.289   .     A
C288   O349    1.275   .     A
C288   C294    1.459   .     S
C289   C290    1.419   .     A
C289   C291    1.403   .     A
C289   C926    1.390   1_554 S
C290   C293    1.411   .     A
C290   C313    1.426   .     A
C291   H321    1.084   .     S
C291   C292    1.391   .     A
C292   C304    1.397   .     A
C292   F319    1.358   .     S
C293   C304    1.393   .     A
C293   H328    1.078   .     S
C294   C366    1.350   .     S
C294   F388    1.363   .     S
C296   C303    1.410   .     A
C296   O343    1.383   .     S
C296   C305    1.398   .     A
C297   C300    1.454   .     S
C297   C511    1.346   .     S
C297   F531    1.363   .     S
C298   C299    1.444   .     S
C299   O350    1.274   .     A
C299   O344    1.278   .     A
C300   O345    1.265   .     A
C300   O351    1.275   .     A
C301   O339    1.278   .     A
C301   C304    1.453   .     S
C301   O337    1.279   .     A
C302   O340    1.286   .     A
C302   O338    1.281   .     A
C302   C303    1.475   .     S
C303   C307    1.398   .     A
C305   C311    1.403   .     A
C305   H330    1.084   .     S
C306   O341    1.412   .     S
C306   H335    1.109   .     S
C306   H404    1.111   .     S
C306   H405    1.114   .     S
C307   C310    1.407   .     A
C307   H331    1.077   .     S
C308   H323    1.113   .     S
C308   H324    1.109   .     S
C308   H322    1.112   .     S
C309   H326    1.109   .     S
C309   H327    1.112   .     S
C309   H325    1.114   .     S
C309   O343    1.411   .     S
C310   C312    1.427   .     A
C310   C311    1.418   .     A
C311   C954    1.395   .     S
C312   C952    1.427   .     S
C313   C314    1.414   .     A
C313   C951    1.427   1_554 S
C314   H332    1.076   .     S
C314   C315    1.387   .     A
C315   F316    1.359   .     S
C315   C950    1.395   1_554 S
O336   Zn355   1.927   .     S
O336   Zn354   1.941   .     S
O336   Zn353   1.948   .     S
O336   Zn352   1.962   .     S
O337   Zn353   1.928   .     S
O338   Zn355   1.938   .     S
O339   Zn354   1.931   .     S
O340   Zn352   1.920   .     S
O341   C366    1.398   .     S
O342   C511    1.400   .     S
O342   C521    1.412   .     S
O344   Zn352   1.935   .     S
O345   Zn355   1.940   .     S
O346   Zn353   1.930   .     S
O347   Zn354   1.942   .     S
O348   Zn355   1.941   .     S
O349   Zn352   1.932   .     S
O350   Zn353   1.941   .     S
O351   Zn354   1.933   .     S
C356   C366    1.446   .     S
C356   O417    1.270   .     A
C356   O419    1.264   .     A
C357   C358    1.387   .     A
C357   F391    1.356   .     S
C357   C383    1.421   .     A
C358   H400    1.084   .     S
C358   C999    1.390   .     S
C359   O418    1.289   .     A
C359   O420    1.275   .     A
C359   C365    1.459   .     S
C360   C361    1.419   .     A
C360   C362    1.403   .     A
C360   C997    1.390   1_554 S
C361   C364    1.411   .     A
C361   C384    1.426   .     A
C362   H392    1.084   .     S
C362   C363    1.391   .     A
C363   C375    1.397   .     A
C363   F390    1.358   .     S
C364   C375    1.393   .     A
C364   H399    1.078   .     S
C365   C224    1.350   1_655 S
C365   F246    1.363   1_655 S
C367   C374    1.410   .     A
C367   O414    1.383   .     S
C367   C376    1.398   .     A
C368   C371    1.454   .     S
C368   C582    1.346   .     S
C368   F602    1.363   .     S
C369   C370    1.444   .     S
C370   O421    1.274   .     A
C370   O415    1.278   .     A
C371   O416    1.265   .     A
C371   O422    1.275   .     A
C372   O410    1.278   .     A
C372   C375    1.453   .     S
C372   O408    1.279   .     A
C373   O411    1.286   .     A
C373   O409    1.281   .     A
C373   C374    1.475   .     S
C374   C378    1.398   .     A
C376   C382    1.403   .     A
C376   H401    1.084   .     S
C377   O412    1.412   .     S
C377   H406    1.109   .     S
C377   H262    1.111   1_655 S
C377   H263    1.114   1_655 S
C378   C381    1.407   .     A
C378   H402    1.077   .     S
C379   H394    1.113   .     S
C379   H395    1.109   .     S
C379   H393    1.112   .     S
C380   H397    1.109   .     S
C380   H398    1.112   .     S
C380   H396    1.114   .     S
C380   O414    1.411   .     S
C381   C383    1.427   .     A
C381   C382    1.418   .     A
C382   C1025   1.395   .     S
C383   C1023   1.427   .     S
C384   C385    1.414   .     A
C384   C1022   1.427   1_554 S
C385   H403    1.076   .     S
C385   C386    1.387   .     A
C386   F387    1.359   .     S
C386   C1021   1.395   1_554 S
O407   Zn426   1.927   .     S
O407   Zn425   1.941   .     S
O407   Zn424   1.948   .     S
O407   Zn423   1.962   .     S
O408   Zn424   1.928   .     S
O409   Zn426   1.938   .     S
O410   Zn425   1.931   .     S
O411   Zn423   1.920   .     S
O412   C224    1.398   1_655 S
O413   C582    1.400   .     S
O413   C592    1.412   .     S
O415   Zn423   1.935   .     S
O416   Zn426   1.940   .     S
O417   Zn424   1.930   .     S
O418   Zn425   1.942   .     S
O419   Zn426   1.941   .     S
O420   Zn423   1.932   .     S
O421   Zn424   1.941   .     S
O422   Zn425   1.933   .     S
C427   C437    1.446   .     S
C427   O488    1.270   .     A
C427   O490    1.264   .     A
C428   C429    1.387   .     A
C428   F462    1.356   .     S
C428   C454    1.421   .     A
C429   H471    1.084   .     S
C429   C1070   1.390   .     S
C430   O489    1.289   .     A
C430   O491    1.275   .     A
C430   C436    1.459   .     S
C431   C432    1.419   .     A
C431   C433    1.403   .     A
C431   C1068   1.390   1_554 S
C432   C435    1.411   .     A
C432   C455    1.426   .     A
C433   H463    1.084   .     S
C433   C434    1.391   .     A
C434   C446    1.397   .     A
C434   F461    1.358   .     S
C435   C446    1.393   .     A
C435   H470    1.078   .     S
C436   C508    1.350   .     S
C436   F530    1.363   .     S
C437   C578    1.350   1_455 S
C437   O625    1.398   1_455 S
C438   C445    1.410   .     A
C438   O485    1.383   .     S
C438   C447    1.398   .     A
C439   C442    1.454   .     S
C439   C14     1.346   1_565 S
C439   F34     1.363   1_565 S
C440   C441    1.444   .     S
C441   O492    1.274   .     A
C441   O486    1.278   .     A
C442   O487    1.265   .     A
C442   O493    1.275   .     A
C443   O481    1.278   .     A
C443   C446    1.453   .     S
C443   O479    1.279   .     A
C444   O482    1.286   .     A
C444   O480    1.281   .     A
C444   C445    1.475   .     S
C445   C449    1.398   .     A
C447   C453    1.403   .     A
C447   H472    1.084   .     S
C448   O483    1.412   .     S
C448   H477    1.109   .     S
C448   H546    1.111   .     S
C448   H547    1.114   .     S
C449   C452    1.407   .     A
C449   H473    1.077   .     S
C450   H465    1.113   .     S
C450   H466    1.109   .     S
C450   H464    1.112   .     S
C451   H468    1.109   .     S
C451   H469    1.112   .     S
C451   H467    1.114   .     S
C451   O485    1.411   .     S
C452   C454    1.427   .     A
C452   C453    1.418   .     A
C453   C1096   1.395   .     S
C454   C1094   1.427   .     S
C455   C456    1.414   .     A
C455   C1093   1.427   1_554 S
C456   H474    1.076   .     S
C456   C457    1.387   .     A
C457   F458    1.359   .     S
C457   C1092   1.395   1_554 S
F459   C578    1.363   1_455 S
H475   C590    1.111   1_455 S
H476   C590    1.114   1_455 S
O478   Zn497   1.927   .     S
O478   Zn496   1.941   .     S
O478   Zn495   1.948   .     S
O478   Zn494   1.962   .     S
O479   Zn495   1.928   .     S
O480   Zn497   1.938   .     S
O481   Zn496   1.931   .     S
O482   Zn494   1.920   .     S
O483   C508    1.398   .     S
O484   C14     1.400   1_565 S
O484   C24     1.412   1_565 S
O486   Zn494   1.935   .     S
O487   Zn497   1.940   .     S
O488   Zn495   1.930   .     S
O489   Zn496   1.942   .     S
O490   Zn497   1.941   .     S
O491   Zn494   1.932   .     S
O492   Zn495   1.941   .     S
O493   Zn496   1.933   .     S
C498   C508    1.446   .     S
C498   O559    1.270   .     A
C498   O561    1.264   .     A
C499   C500    1.387   .     A
C499   F533    1.356   .     S
C499   C525    1.421   .     A
C500   H542    1.084   .     S
C500   C1141   1.390   .     S
C501   O560    1.289   .     A
C501   O562    1.275   .     A
C501   C507    1.459   .     S
C502   C503    1.419   .     A
C502   C504    1.403   .     A
C502   C1139   1.390   1_554 S
C503   C506    1.411   .     A
C503   C526    1.426   .     A
C504   H534    1.084   .     S
C504   C505    1.391   .     A
C505   C517    1.397   .     A
C505   F532    1.358   .     S
C506   C517    1.393   .     A
C506   H541    1.078   .     S
C507   C579    1.350   .     S
C507   F601    1.363   .     S
C509   C516    1.410   .     A
C509   O556    1.383   .     S
C509   C518    1.398   .     A
C510   C513    1.454   .     S
C510   C85     1.346   1_565 S
C510   F105    1.363   1_565 S
C511   C512    1.444   .     S
C512   O563    1.274   .     A
C512   O557    1.278   .     A
C513   O558    1.265   .     A
C513   O564    1.275   .     A
C514   O552    1.278   .     A
C514   C517    1.453   .     S
C514   O550    1.279   .     A
C515   O553    1.286   .     A
C515   O551    1.281   .     A
C515   C516    1.475   .     S
C516   C520    1.398   .     A
C518   C524    1.403   .     A
C518   H543    1.084   .     S
C519   O554    1.412   .     S
C519   H548    1.109   .     S
C519   H617    1.111   .     S
C519   H618    1.114   .     S
C520   C523    1.407   .     A
C520   H544    1.077   .     S
C521   H536    1.113   .     S
C521   H537    1.109   .     S
C521   H535    1.112   .     S
C522   H539    1.109   .     S
C522   H540    1.112   .     S
C522   H538    1.114   .     S
C522   O556    1.411   .     S
C523   C525    1.427   .     A
C523   C524    1.418   .     A
C524   C1167   1.395   .     S
C525   C1165   1.427   .     S
C526   C527    1.414   .     A
C526   C1164   1.427   1_554 S
C527   H545    1.076   .     S
C527   C528    1.387   .     A
C528   F529    1.359   .     S
C528   C1163   1.395   1_554 S
O549   Zn568   1.927   .     S
O549   Zn567   1.941   .     S
O549   Zn566   1.948   .     S
O549   Zn565   1.962   .     S
O550   Zn566   1.928   .     S
O551   Zn568   1.938   .     S
O552   Zn567   1.931   .     S
O553   Zn565   1.920   .     S
O554   C579    1.398   .     S
O555   C85     1.400   1_565 S
O555   C95     1.412   1_565 S
O557   Zn565   1.935   .     S
O558   Zn568   1.940   .     S
O559   Zn566   1.930   .     S
O560   Zn567   1.942   .     S
O561   Zn568   1.941   .     S
O562   Zn565   1.932   .     S
O563   Zn566   1.941   .     S
O564   Zn567   1.933   .     S
C569   C579    1.446   .     S
C569   O630    1.270   .     A
C569   O632    1.264   .     A
C570   C571    1.387   .     A
C570   F604    1.356   .     S
C570   C596    1.421   .     A
C571   H613    1.084   .     S
C571   C1212   1.390   .     S
C572   O631    1.289   .     A
C572   O633    1.275   .     A
C572   C578    1.459   .     S
C573   C574    1.419   .     A
C573   C575    1.403   .     A
C573   C1210   1.390   1_554 S
C574   C577    1.411   .     A
C574   C597    1.426   .     A
C575   H605    1.084   .     S
C575   C576    1.391   .     A
C576   C588    1.397   .     A
C576   F603    1.358   .     S
C577   C588    1.393   .     A
C577   H612    1.078   .     S
C578   C437    1.350   1_655 S
C578   F459    1.363   1_655 S
C580   C587    1.410   .     A
C580   O627    1.383   .     S
C580   C589    1.398   .     A
C581   C584    1.454   .     S
C581   C156    1.346   1_565 S
C581   F176    1.363   1_565 S
C582   C583    1.444   .     S
C583   O634    1.274   .     A
C583   O628    1.278   .     A
C584   O629    1.265   .     A
C584   O635    1.275   .     A
C585   O623    1.278   .     A
C585   C588    1.453   .     S
C585   O621    1.279   .     A
C586   O624    1.286   .     A
C586   O622    1.281   .     A
C586   C587    1.475   .     S
C587   C591    1.398   .     A
C589   C595    1.403   .     A
C589   H614    1.084   .     S
C590   O625    1.412   .     S
C590   H619    1.109   .     S
C590   H475    1.111   1_655 S
C590   H476    1.114   1_655 S
C591   C594    1.407   .     A
C591   H615    1.077   .     S
C592   H607    1.113   .     S
C592   H608    1.109   .     S
C592   H606    1.112   .     S
C593   H610    1.109   .     S
C593   H611    1.112   .     S
C593   H609    1.114   .     S
C593   O627    1.411   .     S
C594   C596    1.427   .     A
C594   C595    1.418   .     A
C595   C1238   1.395   .     S
C596   C1236   1.427   .     S
C597   C598    1.414   .     A
C597   C1235   1.427   1_554 S
C598   H616    1.076   .     S
C598   C599    1.387   .     A
C599   F600    1.359   .     S
C599   C1234   1.395   1_554 S
O620   Zn639   1.927   .     S
O620   Zn638   1.941   .     S
O620   Zn637   1.948   .     S
O620   Zn636   1.962   .     S
O621   Zn637   1.928   .     S
O622   Zn639   1.938   .     S
O623   Zn638   1.931   .     S
O624   Zn636   1.920   .     S
O625   C437    1.398   1_655 S
O626   C156    1.400   1_565 S
O626   C166    1.412   1_565 S
O628   Zn636   1.935   .     S
O629   Zn639   1.940   .     S
O630   Zn637   1.930   .     S
O631   Zn638   1.942   .     S
O632   Zn639   1.941   .     S
O633   Zn636   1.932   .     S
O634   Zn637   1.941   .     S
O635   Zn638   1.933   .     S
C640   C650    1.446   .     S
C640   O701    1.270   .     A
C640   O703    1.264   .     A
C641   C642    1.387   .     A
C641   F675    1.356   .     S
C641   C667    1.421   .     A
C642   H684    1.084   .     S
C642   C5      1.390   1_556 S
C643   O702    1.289   .     A
C643   O704    1.275   .     A
C643   C649    1.459   .     S
C644   C645    1.419   .     A
C644   C646    1.403   .     A
C645   C648    1.411   .     A
C645   C668    1.426   .     A
C646   H676    1.084   .     S
C646   C647    1.391   .     A
C647   C659    1.397   .     A
C647   F674    1.358   .     S
C648   C659    1.393   .     A
C648   H683    1.078   .     S
C649   C721    1.350   .     S
C649   F743    1.363   .     S
C650   C791    1.350   1_455 S
C650   O838    1.398   1_455 S
C651   C658    1.410   .     A
C651   O698    1.383   .     S
C651   C660    1.398   .     A
C652   C655    1.454   .     S
C652   C866    1.346   .     S
C652   F886    1.363   .     S
C653   C654    1.444   .     S
C653   C1078   1.346   1_545 S
C653   O1123   1.400   1_545 S
C654   O705    1.274   .     A
C654   O699    1.278   .     A
C655   O700    1.265   .     A
C655   O706    1.275   .     A
C656   O694    1.278   .     A
C656   C659    1.453   .     S
C656   O692    1.279   .     A
C657   O695    1.286   .     A
C657   O693    1.281   .     A
C657   C658    1.475   .     S
C658   C662    1.398   .     A
C660   C666    1.403   .     A
C660   H685    1.084   .     S
C661   O696    1.412   .     S
C661   H690    1.109   .     S
C661   H759    1.111   .     S
C661   H760    1.114   .     S
C662   C665    1.407   .     A
C662   H686    1.077   .     S
C663   H678    1.113   .     S
C663   H679    1.109   .     S
C663   H677    1.112   .     S
C663   O1123   1.412   1_545 S
C664   H681    1.109   .     S
C664   H682    1.112   .     S
C664   H680    1.114   .     S
C664   O698    1.411   .     S
C665   C667    1.427   .     A
C665   C666    1.418   .     A
C666   C31     1.395   1_556 S
C667   C29     1.427   1_556 S
C668   C669    1.414   .     A
C669   H687    1.076   .     S
C669   C670    1.387   .     A
C670   F671    1.359   .     S
F672   C791    1.363   1_455 S
F673   C1078   1.363   1_545 S
H688   C803    1.111   1_455 S
H689   C803    1.114   1_455 S
O691   Zn710   1.927   .     S
O691   Zn709   1.941   .     S
O691   Zn708   1.948   .     S
O691   Zn707   1.962   .     S
O692   Zn708   1.928   .     S
O693   Zn710   1.938   .     S
O694   Zn709   1.931   .     S
O695   Zn707   1.920   .     S
O696   C721    1.398   .     S
O697   C866    1.400   .     S
O697   C876    1.412   .     S
O699   Zn707   1.935   .     S
O700   Zn710   1.940   .     S
O701   Zn708   1.930   .     S
O702   Zn709   1.942   .     S
O703   Zn710   1.941   .     S
O704   Zn707   1.932   .     S
O705   Zn708   1.941   .     S
O706   Zn709   1.933   .     S
C711   C721    1.446   .     S
C711   O772    1.270   .     A
C711   O774    1.264   .     A
C712   C713    1.387   .     A
C712   F746    1.356   .     S
C712   C738    1.421   .     A
C713   H755    1.084   .     S
C713   C76     1.390   1_556 S
C714   O773    1.289   .     A
C714   O775    1.275   .     A
C714   C720    1.459   .     S
C715   C716    1.419   .     A
C715   C717    1.403   .     A
C716   C719    1.411   .     A
C716   C739    1.426   .     A
C717   H747    1.084   .     S
C717   C718    1.391   .     A
C718   C730    1.397   .     A
C718   F745    1.358   .     S
C719   C730    1.393   .     A
C719   H754    1.078   .     S
C720   C792    1.350   .     S
C720   F814    1.363   .     S
C722   C729    1.410   .     A
C722   O769    1.383   .     S
C722   C731    1.398   .     A
C723   C726    1.454   .     S
C723   C937    1.346   .     S
C723   F957    1.363   .     S
C724   C725    1.444   .     S
C724   C1149   1.346   1_545 S
C724   O1194   1.400   1_545 S
C725   O776    1.274   .     A
C725   O770    1.278   .     A
C726   O771    1.265   .     A
C726   O777    1.275   .     A
C727   O765    1.278   .     A
C727   C730    1.453   .     S
C727   O763    1.279   .     A
C728   O766    1.286   .     A
C728   O764    1.281   .     A
C728   C729    1.475   .     S
C729   C733    1.398   .     A
C731   C737    1.403   .     A
C731   H756    1.084   .     S
C732   O767    1.412   .     S
C732   H761    1.109   .     S
C732   H830    1.111   .     S
C732   H831    1.114   .     S
C733   C736    1.407   .     A
C733   H757    1.077   .     S
C734   H749    1.113   .     S
C734   H750    1.109   .     S
C734   H748    1.112   .     S
C734   O1194   1.412   1_545 S
C735   H752    1.109   .     S
C735   H753    1.112   .     S
C735   H751    1.114   .     S
C735   O769    1.411   .     S
C736   C738    1.427   .     A
C736   C737    1.418   .     A
C737   C102    1.395   1_556 S
C738   C100    1.427   1_556 S
C739   C740    1.414   .     A
C740   H758    1.076   .     S
C740   C741    1.387   .     A
C741   F742    1.359   .     S
F744   C1149   1.363   1_545 S
O762   Zn781   1.927   .     S
O762   Zn780   1.941   .     S
O762   Zn779   1.948   .     S
O762   Zn778   1.962   .     S
O763   Zn779   1.928   .     S
O764   Zn781   1.938   .     S
O765   Zn780   1.931   .     S
O766   Zn778   1.920   .     S
O767   C792    1.398   .     S
O768   C937    1.400   .     S
O768   C947    1.412   .     S
O770   Zn778   1.935   .     S
O771   Zn781   1.940   .     S
O772   Zn779   1.930   .     S
O773   Zn780   1.942   .     S
O774   Zn781   1.941   .     S
O775   Zn778   1.932   .     S
O776   Zn779   1.941   .     S
O777   Zn780   1.933   .     S
C782   C792    1.446   .     S
C782   O843    1.270   .     A
C782   O845    1.264   .     A
C783   C784    1.387   .     A
C783   F817    1.356   .     S
C783   C809    1.421   .     A
C784   H826    1.084   .     S
C784   C147    1.390   1_556 S
C785   O844    1.289   .     A
C785   O846    1.275   .     A
C785   C791    1.459   .     S
C786   C787    1.419   .     A
C786   C788    1.403   .     A
C787   C790    1.411   .     A
C787   C810    1.426   .     A
C788   H818    1.084   .     S
C788   C789    1.391   .     A
C789   C801    1.397   .     A
C789   F816    1.358   .     S
C790   C801    1.393   .     A
C790   H825    1.078   .     S
C791   C650    1.350   1_655 S
C791   F672    1.363   1_655 S
C793   C800    1.410   .     A
C793   O840    1.383   .     S
C793   C802    1.398   .     A
C794   C797    1.454   .     S
C794   C1008   1.346   .     S
C794   F1028   1.363   .     S
C795   C796    1.444   .     S
C795   C1220   1.346   1_545 S
C795   O1265   1.400   1_545 S
C796   O847    1.274   .     A
C796   O841    1.278   .     A
C797   O842    1.265   .     A
C797   O848    1.275   .     A
C798   O836    1.278   .     A
C798   C801    1.453   .     S
C798   O834    1.279   .     A
C799   O837    1.286   .     A
C799   O835    1.281   .     A
C799   C800    1.475   .     S
C800   C804    1.398   .     A
C802   C808    1.403   .     A
C802   H827    1.084   .     S
C803   O838    1.412   .     S
C803   H832    1.109   .     S
C803   H688    1.111   1_655 S
C803   H689    1.114   1_655 S
C804   C807    1.407   .     A
C804   H828    1.077   .     S
C805   H820    1.113   .     S
C805   H821    1.109   .     S
C805   H819    1.112   .     S
C805   O1265   1.412   1_545 S
C806   H823    1.109   .     S
C806   H824    1.112   .     S
C806   H822    1.114   .     S
C806   O840    1.411   .     S
C807   C809    1.427   .     A
C807   C808    1.418   .     A
C808   C173    1.395   1_556 S
C809   C171    1.427   1_556 S
C810   C811    1.414   .     A
C811   H829    1.076   .     S
C811   C812    1.387   .     A
C812   F813    1.359   .     S
F815   C1220   1.363   1_545 S
O833   Zn852   1.927   .     S
O833   Zn851   1.941   .     S
O833   Zn850   1.948   .     S
O833   Zn849   1.962   .     S
O834   Zn850   1.928   .     S
O835   Zn852   1.938   .     S
O836   Zn851   1.931   .     S
O837   Zn849   1.920   .     S
O838   C650    1.398   1_655 S
O839   C1008   1.400   .     S
O839   C1018   1.412   .     S
O841   Zn849   1.935   .     S
O842   Zn852   1.940   .     S
O843   Zn850   1.930   .     S
O844   Zn851   1.942   .     S
O845   Zn852   1.941   .     S
O846   Zn849   1.932   .     S
O847   Zn850   1.941   .     S
O848   Zn851   1.933   .     S
C853   C863    1.446   .     S
C853   O914    1.270   .     A
C853   O916    1.264   .     A
C854   C855    1.387   .     A
C854   F888    1.356   .     S
C854   C880    1.421   .     A
C855   H897    1.084   .     S
C855   C218    1.390   1_556 S
C856   O915    1.289   .     A
C856   O917    1.275   .     A
C856   C862    1.459   .     S
C857   C858    1.419   .     A
C857   C859    1.403   .     A
C858   C861    1.411   .     A
C858   C881    1.426   .     A
C859   H889    1.084   .     S
C859   C860    1.391   .     A
C860   C872    1.397   .     A
C860   F887    1.358   .     S
C861   C872    1.393   .     A
C861   H896    1.078   .     S
C862   C934    1.350   .     S
C862   F956    1.363   .     S
C863   C1004   1.350   1_455 S
C863   O1051   1.398   1_455 S
C864   C871    1.410   .     A
C864   O911    1.383   .     S
C864   C873    1.398   .     A
C865   C868    1.454   .     S
C865   C1079   1.346   .     S
C865   F1099   1.363   .     S
C866   C867    1.444   .     S
C867   O918    1.274   .     A
C867   O912    1.278   .     A
C868   O913    1.265   .     A
C868   O919    1.275   .     A
C869   O907    1.278   .     A
C869   C872    1.453   .     S
C869   O905    1.279   .     A
C870   O908    1.286   .     A
C870   O906    1.281   .     A
C870   C871    1.475   .     S
C871   C875    1.398   .     A
C873   C879    1.403   .     A
C873   H898    1.084   .     S
C874   O909    1.412   .     S
C874   H903    1.109   .     S
C874   H972    1.111   .     S
C874   H973    1.114   .     S
C875   C878    1.407   .     A
C875   H899    1.077   .     S
C876   H891    1.113   .     S
C876   H892    1.109   .     S
C876   H890    1.112   .     S
C877   H894    1.109   .     S
C877   H895    1.112   .     S
C877   H893    1.114   .     S
C877   O911    1.411   .     S
C878   C880    1.427   .     A
C878   C879    1.418   .     A
C879   C244    1.395   1_556 S
C880   C242    1.427   1_556 S
C881   C882    1.414   .     A
C882   H900    1.076   .     S
C882   C883    1.387   .     A
C883   F884    1.359   .     S
F885   C1004   1.363   1_455 S
H901   C1016   1.111   1_455 S
H902   C1016   1.114   1_455 S
O904   Zn923   1.927   .     S
O904   Zn922   1.941   .     S
O904   Zn921   1.948   .     S
O904   Zn920   1.962   .     S
O905   Zn921   1.928   .     S
O906   Zn923   1.938   .     S
O907   Zn922   1.931   .     S
O908   Zn920   1.920   .     S
O909   C934    1.398   .     S
O910   C1079   1.400   .     S
O910   C1089   1.412   .     S
O912   Zn920   1.935   .     S
O913   Zn923   1.940   .     S
O914   Zn921   1.930   .     S
O915   Zn922   1.942   .     S
O916   Zn923   1.941   .     S
O917   Zn920   1.932   .     S
O918   Zn921   1.941   .     S
O919   Zn922   1.933   .     S
C924   C934    1.446   .     S
C924   O985    1.270   .     A
C924   O987    1.264   .     A
C925   C926    1.387   .     A
C925   F959    1.356   .     S
C925   C951    1.421   .     A
C926   H968    1.084   .     S
C926   C289    1.390   1_556 S
C927   O986    1.289   .     A
C927   O988    1.275   .     A
C927   C933    1.459   .     S
C928   C929    1.419   .     A
C928   C930    1.403   .     A
C929   C932    1.411   .     A
C929   C952    1.426   .     A
C930   H960    1.084   .     S
C930   C931    1.391   .     A
C931   C943    1.397   .     A
C931   F958    1.358   .     S
C932   C943    1.393   .     A
C932   H967    1.078   .     S
C933   C1005   1.350   .     S
C933   F1027   1.363   .     S
C935   C942    1.410   .     A
C935   O982    1.383   .     S
C935   C944    1.398   .     A
C936   C939    1.454   .     S
C936   C1150   1.346   .     S
C936   F1170   1.363   .     S
C937   C938    1.444   .     S
C938   O989    1.274   .     A
C938   O983    1.278   .     A
C939   O984    1.265   .     A
C939   O990    1.275   .     A
C940   O978    1.278   .     A
C940   C943    1.453   .     S
C940   O976    1.279   .     A
C941   O979    1.286   .     A
C941   O977    1.281   .     A
C941   C942    1.475   .     S
C942   C946    1.398   .     A
C944   C950    1.403   .     A
C944   H969    1.084   .     S
C945   O980    1.412   .     S
C945   H974    1.109   .     S
C945   H1043   1.111   .     S
C945   H1044   1.114   .     S
C946   C949    1.407   .     A
C946   H970    1.077   .     S
C947   H962    1.113   .     S
C947   H963    1.109   .     S
C947   H961    1.112   .     S
C948   H965    1.109   .     S
C948   H966    1.112   .     S
C948   H964    1.114   .     S
C948   O982    1.411   .     S
C949   C951    1.427   .     A
C949   C950    1.418   .     A
C950   C315    1.395   1_556 S
C951   C313    1.427   1_556 S
C952   C953    1.414   .     A
C953   H971    1.076   .     S
C953   C954    1.387   .     A
C954   F955    1.359   .     S
O975   Zn994   1.927   .     S
O975   Zn993   1.941   .     S
O975   Zn992   1.948   .     S
O975   Zn991   1.962   .     S
O976   Zn992   1.928   .     S
O977   Zn994   1.938   .     S
O978   Zn993   1.931   .     S
O979   Zn991   1.920   .     S
O980   C1005   1.398   .     S
O981   C1150   1.400   .     S
O981   C1160   1.412   .     S
O983   Zn991   1.935   .     S
O984   Zn994   1.940   .     S
O985   Zn992   1.930   .     S
O986   Zn993   1.942   .     S
O987   Zn994   1.941   .     S
O988   Zn991   1.932   .     S
O989   Zn992   1.941   .     S
O990   Zn993   1.933   .     S
C995   C1005   1.446   .     S
C995   O1056   1.270   .     A
C995   O1058   1.264   .     A
C996   C997    1.387   .     A
C996   F1030   1.356   .     S
C996   C1022   1.421   .     A
C997   H1039   1.084   .     S
C997   C360    1.390   1_556 S
C998   O1057   1.289   .     A
C998   O1059   1.275   .     A
C998   C1004   1.459   .     S
C999   C1000   1.419   .     A
C999   C1001   1.403   .     A
C1000  C1003   1.411   .     A
C1000  C1023   1.426   .     A
C1001  H1031   1.084   .     S
C1001  C1002   1.391   .     A
C1002  C1014   1.397   .     A
C1002  F1029   1.358   .     S
C1003  C1014   1.393   .     A
C1003  H1038   1.078   .     S
C1004  C863    1.350   1_655 S
C1004  F885    1.363   1_655 S
C1006  C1013   1.410   .     A
C1006  O1053   1.383   .     S
C1006  C1015   1.398   .     A
C1007  C1010   1.454   .     S
C1007  C1221   1.346   .     S
C1007  F1241   1.363   .     S
C1008  C1009   1.444   .     S
C1009  O1060   1.274   .     A
C1009  O1054   1.278   .     A
C1010  O1055   1.265   .     A
C1010  O1061   1.275   .     A
C1011  O1049   1.278   .     A
C1011  C1014   1.453   .     S
C1011  O1047   1.279   .     A
C1012  O1050   1.286   .     A
C1012  O1048   1.281   .     A
C1012  C1013   1.475   .     S
C1013  C1017   1.398   .     A
C1015  C1021   1.403   .     A
C1015  H1040   1.084   .     S
C1016  O1051   1.412   .     S
C1016  H1045   1.109   .     S
C1016  H901    1.111   1_655 S
C1016  H902    1.114   1_655 S
C1017  C1020   1.407   .     A
C1017  H1041   1.077   .     S
C1018  H1033   1.113   .     S
C1018  H1034   1.109   .     S
C1018  H1032   1.112   .     S
C1019  H1036   1.109   .     S
C1019  H1037   1.112   .     S
C1019  H1035   1.114   .     S
C1019  O1053   1.411   .     S
C1020  C1022   1.427   .     A
C1020  C1021   1.418   .     A
C1021  C386    1.395   1_556 S
C1022  C384    1.427   1_556 S
C1023  C1024   1.414   .     A
C1024  H1042   1.076   .     S
C1024  C1025   1.387   .     A
C1025  F1026   1.359   .     S
O1046  Zn1065  1.927   .     S
O1046  Zn1064  1.941   .     S
O1046  Zn1063  1.948   .     S
O1046  Zn1062  1.962   .     S
O1047  Zn1063  1.928   .     S
O1048  Zn1065  1.938   .     S
O1049  Zn1064  1.931   .     S
O1050  Zn1062  1.920   .     S
O1051  C863    1.398   1_655 S
O1052  C1221   1.400   .     S
O1052  C1231   1.412   .     S
O1054  Zn1062  1.935   .     S
O1055  Zn1065  1.940   .     S
O1056  Zn1063  1.930   .     S
O1057  Zn1064  1.942   .     S
O1058  Zn1065  1.941   .     S
O1059  Zn1062  1.932   .     S
O1060  Zn1063  1.941   .     S
O1061  Zn1064  1.933   .     S
C1066  C1076   1.446   .     S
C1066  O1127   1.270   .     A
C1066  O1129   1.264   .     A
C1067  C1068   1.387   .     A
C1067  F1101   1.356   .     S
C1067  C1093   1.421   .     A
C1068  H1110   1.084   .     S
C1068  C431    1.390   1_556 S
C1069  O1128   1.289   .     A
C1069  O1130   1.275   .     A
C1069  C1075   1.459   .     S
C1070  C1071   1.419   .     A
C1070  C1072   1.403   .     A
C1071  C1074   1.411   .     A
C1071  C1094   1.426   .     A
C1072  H1102   1.084   .     S
C1072  C1073   1.391   .     A
C1073  C1085   1.397   .     A
C1073  F1100   1.358   .     S
C1074  C1085   1.393   .     A
C1074  H1109   1.078   .     S
C1075  C1147   1.350   .     S
C1075  F1169   1.363   .     S
C1076  C1217   1.350   1_455 S
C1076  O1264   1.398   1_455 S
C1077  C1084   1.410   .     A
C1077  O1124   1.383   .     S
C1077  C1086   1.398   .     A
C1078  C1081   1.454   .     S
C1078  C653    1.346   1_565 S
C1078  F673    1.363   1_565 S
C1079  C1080   1.444   .     S
C1080  O1131   1.274   .     A
C1080  O1125   1.278   .     A
C1081  O1126   1.265   .     A
C1081  O1132   1.275   .     A
C1082  O1120   1.278   .     A
C1082  C1085   1.453   .     S
C1082  O1118   1.279   .     A
C1083  O1121   1.286   .     A
C1083  O1119   1.281   .     A
C1083  C1084   1.475   .     S
C1084  C1088   1.398   .     A
C1086  C1092   1.403   .     A
C1086  H1111   1.084   .     S
C1087  O1122   1.412   .     S
C1087  H1116   1.109   .     S
C1087  H1185   1.111   .     S
C1087  H1186   1.114   .     S
C1088  C1091   1.407   .     A
C1088  H1112   1.077   .     S
C1089  H1104   1.113   .     S
C1089  H1105   1.109   .     S
C1089  H1103   1.112   .     S
C1090  H1107   1.109   .     S
C1090  H1108   1.112   .     S
C1090  H1106   1.114   .     S
C1090  O1124   1.411   .     S
C1091  C1093   1.427   .     A
C1091  C1092   1.418   .     A
C1092  C457    1.395   1_556 S
C1093  C455    1.427   1_556 S
C1094  C1095   1.414   .     A
C1095  H1113   1.076   .     S
C1095  C1096   1.387   .     A
C1096  F1097   1.359   .     S
F1098  C1217   1.363   1_455 S
H1114  C1229   1.111   1_455 S
H1115  C1229   1.114   1_455 S
O1117  Zn1136  1.927   .     S
O1117  Zn1135  1.941   .     S
O1117  Zn1134  1.948   .     S
O1117  Zn1133  1.962   .     S
O1118  Zn1134  1.928   .     S
O1119  Zn1136  1.938   .     S
O1120  Zn1135  1.931   .     S
O1121  Zn1133  1.920   .     S
O1122  C1147   1.398   .     S
O1123  C653    1.400   1_565 S
O1123  C663    1.412   1_565 S
O1125  Zn1133  1.935   .     S
O1126  Zn1136  1.940   .     S
O1127  Zn1134  1.930   .     S
O1128  Zn1135  1.942   .     S
O1129  Zn1136  1.941   .     S
O1130  Zn1133  1.932   .     S
O1131  Zn1134  1.941   .     S
O1132  Zn1135  1.933   .     S
C1137  C1147   1.446   .     S
C1137  O1198   1.270   .     A
C1137  O1200   1.264   .     A
C1138  C1139   1.387   .     A
C1138  F1172   1.356   .     S
C1138  C1164   1.421   .     A
C1139  H1181   1.084   .     S
C1139  C502    1.390   1_556 S
C1140  O1199   1.289   .     A
C1140  O1201   1.275   .     A
C1140  C1146   1.459   .     S
C1141  C1142   1.419   .     A
C1141  C1143   1.403   .     A
C1142  C1145   1.411   .     A
C1142  C1165   1.426   .     A
C1143  H1173   1.084   .     S
C1143  C1144   1.391   .     A
C1144  C1156   1.397   .     A
C1144  F1171   1.358   .     S
C1145  C1156   1.393   .     A
C1145  H1180   1.078   .     S
C1146  C1218   1.350   .     S
C1146  F1240   1.363   .     S
C1148  C1155   1.410   .     A
C1148  O1195   1.383   .     S
C1148  C1157   1.398   .     A
C1149  C1152   1.454   .     S
C1149  C724    1.346   1_565 S
C1149  F744    1.363   1_565 S
C1150  C1151   1.444   .     S
C1151  O1202   1.274   .     A
C1151  O1196   1.278   .     A
C1152  O1197   1.265   .     A
C1152  O1203   1.275   .     A
C1153  O1191   1.278   .     A
C1153  C1156   1.453   .     S
C1153  O1189   1.279   .     A
C1154  O1192   1.286   .     A
C1154  O1190   1.281   .     A
C1154  C1155   1.475   .     S
C1155  C1159   1.398   .     A
C1157  C1163   1.403   .     A
C1157  H1182   1.084   .     S
C1158  O1193   1.412   .     S
C1158  H1187   1.109   .     S
C1158  H1256   1.111   .     S
C1158  H1257   1.114   .     S
C1159  C1162   1.407   .     A
C1159  H1183   1.077   .     S
C1160  H1175   1.113   .     S
C1160  H1176   1.109   .     S
C1160  H1174   1.112   .     S
C1161  H1178   1.109   .     S
C1161  H1179   1.112   .     S
C1161  H1177   1.114   .     S
C1161  O1195   1.411   .     S
C1162  C1164   1.427   .     A
C1162  C1163   1.418   .     A
C1163  C528    1.395   1_556 S
C1164  C526    1.427   1_556 S
C1165  C1166   1.414   .     A
C1166  H1184   1.076   .     S
C1166  C1167   1.387   .     A
C1167  F1168   1.359   .     S
O1188  Zn1207  1.927   .     S
O1188  Zn1206  1.941   .     S
O1188  Zn1205  1.948   .     S
O1188  Zn1204  1.962   .     S
O1189  Zn1205  1.928   .     S
O1190  Zn1207  1.938   .     S
O1191  Zn1206  1.931   .     S
O1192  Zn1204  1.920   .     S
O1193  C1218   1.398   .     S
O1194  C724    1.400   1_565 S
O1194  C734    1.412   1_565 S
O1196  Zn1204  1.935   .     S
O1197  Zn1207  1.940   .     S
O1198  Zn1205  1.930   .     S
O1199  Zn1206  1.942   .     S
O1200  Zn1207  1.941   .     S
O1201  Zn1204  1.932   .     S
O1202  Zn1205  1.941   .     S
O1203  Zn1206  1.933   .     S
C1208  C1218   1.446   .     S
C1208  O1269   1.270   .     A
C1208  O1271   1.264   .     A
C1209  C1210   1.387   .     A
C1209  F1243   1.356   .     S
C1209  C1235   1.421   .     A
C1210  H1252   1.084   .     S
C1210  C573    1.390   1_556 S
C1211  O1270   1.289   .     A
C1211  O1272   1.275   .     A
C1211  C1217   1.459   .     S
C1212  C1213   1.419   .     A
C1212  C1214   1.403   .     A
C1213  C1216   1.411   .     A
C1213  C1236   1.426   .     A
C1214  H1244   1.084   .     S
C1214  C1215   1.391   .     A
C1215  C1227   1.397   .     A
C1215  F1242   1.358   .     S
C1216  C1227   1.393   .     A
C1216  H1251   1.078   .     S
C1217  C1076   1.350   1_655 S
C1217  F1098   1.363   1_655 S
C1219  C1226   1.410   .     A
C1219  O1266   1.383   .     S
C1219  C1228   1.398   .     A
C1220  C1223   1.454   .     S
C1220  C795    1.346   1_565 S
C1220  F815    1.363   1_565 S
C1221  C1222   1.444   .     S
C1222  O1273   1.274   .     A
C1222  O1267   1.278   .     A
C1223  O1268   1.265   .     A
C1223  O1274   1.275   .     A
C1224  O1262   1.278   .     A
C1224  C1227   1.453   .     S
C1224  O1260   1.279   .     A
C1225  O1263   1.286   .     A
C1225  O1261   1.281   .     A
C1225  C1226   1.475   .     S
C1226  C1230   1.398   .     A
C1228  C1234   1.403   .     A
C1228  H1253   1.084   .     S
C1229  O1264   1.412   .     S
C1229  H1258   1.109   .     S
C1229  H1114   1.111   1_655 S
C1229  H1115   1.114   1_655 S
C1230  C1233   1.407   .     A
C1230  H1254   1.077   .     S
C1231  H1246   1.113   .     S
C1231  H1247   1.109   .     S
C1231  H1245   1.112   .     S
C1232  H1249   1.109   .     S
C1232  H1250   1.112   .     S
C1232  H1248   1.114   .     S
C1232  O1266   1.411   .     S
C1233  C1235   1.427   .     A
C1233  C1234   1.418   .     A
C1234  C599    1.395   1_556 S
C1235  C597    1.427   1_556 S
C1236  C1237   1.414   .     A
C1237  H1255   1.076   .     S
C1237  C1238   1.387   .     A
C1238  F1239   1.359   .     S
O1259  Zn1278  1.927   .     S
O1259  Zn1277  1.941   .     S
O1259  Zn1276  1.948   .     S
O1259  Zn1275  1.962   .     S
O1260  Zn1276  1.928   .     S
O1261  Zn1278  1.938   .     S
O1262  Zn1277  1.931   .     S
O1263  Zn1275  1.920   .     S
O1264  C1076   1.398   1_655 S
O1265  C795    1.400   1_565 S
O1265  C805    1.412   1_565 S
O1267  Zn1275  1.935   .     S
O1268  Zn1278  1.940   .     S
O1269  Zn1276  1.930   .     S
O1270  Zn1277  1.942   .     S
O1271  Zn1278  1.941   .     S
O1272  Zn1275  1.932   .     S
O1273  Zn1276  1.941   .     S
O1274  Zn1277  1.933   .     S
