data_str_m1_o5_o17_pcu_sym.62
_audit_creation_date              2020-01-03
_audit_creation_method            'Materials Studio'
_symmetry_space_group_name_H-M    'P1'
_symmetry_Int_Tables_number       1
_symmetry_cell_setting            triclinic
loop_
_symmetry_equiv_pos_as_xyz
  x,y,z
_cell_length_a                    31.7750
_cell_length_b                    31.7750
_cell_length_c                    34.5191
_cell_angle_alpha                 90.0000
_cell_angle_beta                  90.0000
_cell_angle_gamma                 90.0000
loop_
_atom_site_label
_atom_site_type_symbol
_atom_site_fract_x
_atom_site_fract_y
_atom_site_fract_z
_atom_site_U_iso_or_equiv
_atom_site_adp_type
_atom_site_occupancy
C1     C     0.25000   0.00000   0.35608   0.00000  Uiso   1.00
C2     C     0.33002   0.41998   0.75000   0.00000  Uiso   1.00
C3     C     0.00001   0.17334   0.02021   0.00000  Uiso   1.00
C4     C     0.32666  -0.00000   0.97979   0.00000  Uiso   1.00
C5     C     0.17334   0.00000   0.02021   0.00000  Uiso   1.00
C6     C     0.00001   0.17334   0.97979   0.00000  Uiso   1.00
C7     C     0.49999   0.32666   0.02021   0.00000  Uiso   1.00
C8     C     0.41998   0.16998   0.25000   0.00000  Uiso   1.00
C9     C     0.08002   0.33002   0.75000   0.00000  Uiso   1.00
C10    C     0.33002   0.41998   0.25000   0.00000  Uiso   1.00
C11    C     0.16998   0.08002   0.75000   0.00000  Uiso   1.00
C12    C     0.08002   0.33002   0.25000   0.00000  Uiso   1.00
C13    C     0.41998   0.16998   0.75000   0.00000  Uiso   1.00
C14    C     0.16998   0.41998   0.75000   0.00000  Uiso   1.00
C15    C     0.33002   0.08002   0.25000   0.00000  Uiso   1.00
C16    C     0.41998   0.33002   0.75000   0.00000  Uiso   1.00
C17    C     0.25000   0.00000   0.64392   0.00000  Uiso   1.00
C18    C     0.08002   0.16998   0.25000   0.00000  Uiso   1.00
C19    C     0.33002   0.08002   0.75000   0.00000  Uiso   1.00
C20    C     0.16998   0.41998   0.25000   0.00000  Uiso   1.00
C21    C     0.08002   0.16998   0.75000   0.00000  Uiso   1.00
C22    C     0.41998   0.33002   0.25000   0.00000  Uiso   1.00
C23    C     0.13833   0.38833   0.25000   0.00000  Uiso   1.00
C24    C     0.36167   0.11167   0.75000   0.00000  Uiso   1.00
C25    C     0.11167   0.13833   0.25000   0.00000  Uiso   1.00
C26    C     0.38833   0.36167   0.75000   0.00000  Uiso   1.00
C27    C     0.36167   0.11167   0.25000   0.00000  Uiso   1.00
C28    C     0.00000   0.25000   0.35608   0.00000  Uiso   1.00
C29    C     0.13833   0.38833   0.75000   0.00000  Uiso   1.00
C30    C     0.38833   0.36167   0.25000   0.00000  Uiso   1.00
C31    C     0.11167   0.13833   0.75000   0.00000  Uiso   1.00
C32    C     0.13833   0.11167   0.75000   0.00000  Uiso   1.00
C33    C     0.36167   0.38833   0.25000   0.00000  Uiso   1.00
C34    C     0.11167   0.36167   0.75000   0.00000  Uiso   1.00
C35    C     0.38833   0.13833   0.25000   0.00000  Uiso   1.00
C36    C     0.36167   0.38833   0.75000   0.00000  Uiso   1.00
C37    C     0.13833   0.11167   0.25000   0.00000  Uiso   1.00
C38    C     0.38833   0.13833   0.75000   0.00000  Uiso   1.00
C39    C     0.00000   0.25000   0.64392   0.00000  Uiso   1.00
C40    C     0.11167   0.36167   0.25000   0.00000  Uiso   1.00
C41    C     0.03827   0.25000   0.41890   0.00000  Uiso   1.00
C42    C     0.46173   0.25000   0.58110   0.00000  Uiso   1.00
C43    C     0.25000   0.46173   0.41890   0.00000  Uiso   1.00
C44    C     0.25000   0.03827   0.58110   0.00000  Uiso   1.00
C45    C     0.46173   0.25000   0.41890   0.00000  Uiso   1.00
C46    C     0.03827   0.25000   0.58110   0.00000  Uiso   1.00
C47    C     0.25000   0.03827   0.41890   0.00000  Uiso   1.00
C48    C     0.25000   0.46173   0.58110   0.00000  Uiso   1.00
C49    C     0.28827  -0.00000   0.91890   0.00000  Uiso   1.00
C50    C     0.00000   0.25000   0.85608   0.00000  Uiso   1.00
C51    C     0.21173   0.00000   0.08110   0.00000  Uiso   1.00
C52    C     0.00000   0.21173   0.91890   0.00000  Uiso   1.00
C53    C    -0.00000   0.28827   0.08110   0.00000  Uiso   1.00
C54    C     0.21173   0.00000   0.91890   0.00000  Uiso   1.00
C55    C     0.28827  -0.00000   0.08110   0.00000  Uiso   1.00
C56    C    -0.00000   0.28827   0.91890   0.00000  Uiso   1.00
C57    C     0.00000   0.21173   0.08110   0.00000  Uiso   1.00
C58    C     0.00000   0.25000   0.39856   0.00000  Uiso   1.00
C59    C     0.00000   0.25000   0.60144   0.00000  Uiso   1.00
C60    C     0.25000   0.00000   0.39856   0.00000  Uiso   1.00
C61    C     0.00000   0.25000   0.14392   0.00000  Uiso   1.00
C62    C     0.25000   0.00000   0.60144   0.00000  Uiso   1.00
C63    C     0.25000   0.00000   0.89856   0.00000  Uiso   1.00
C64    C     0.25000   0.00000   0.10144   0.00000  Uiso   1.00
C65    C     0.00000   0.25000   0.89856   0.00000  Uiso   1.00
C66    C     0.00000   0.25000   0.10144   0.00000  Uiso   1.00
C67    C     0.46147   0.25000   0.45934   0.00000  Uiso   1.00
C68    C     0.03853   0.25000   0.54066   0.00000  Uiso   1.00
C69    C     0.25000   0.03853   0.45933   0.00000  Uiso   1.00
C70    C     0.25000   0.46147   0.54067   0.00000  Uiso   1.00
C71    C     0.03853   0.25000   0.45933   0.00000  Uiso   1.00
C72    C     0.25000   0.00000   0.85608   0.00000  Uiso   1.00
C73    C     0.46147   0.25000   0.54067   0.00000  Uiso   1.00
C74    C     0.25000   0.46147   0.45934   0.00000  Uiso   1.00
C75    C     0.25000   0.03853   0.54066   0.00000  Uiso   1.00
C76    C     0.21147   0.00000   0.95933   0.00000  Uiso   1.00
C77    C     0.28853  -0.00000   0.04067   0.00000  Uiso   1.00
C78    C    -0.00000   0.28853   0.95934   0.00000  Uiso   1.00
C79    C     0.00000   0.21147   0.04067   0.00000  Uiso   1.00
C80    C     0.28853  -0.00000   0.95934   0.00000  Uiso   1.00
C81    C     0.21147   0.00000   0.04067   0.00000  Uiso   1.00
C82    C     0.00000   0.21147   0.95933   0.00000  Uiso   1.00
C83    C     0.25000   0.00000   0.14392   0.00000  Uiso   1.00
C84    C    -0.00000   0.28853   0.04067   0.00000  Uiso   1.00
C85    C     0.00000   0.25000   0.47966   0.00000  Uiso   1.00
C86    C     0.00000   0.25000   0.52035   0.00000  Uiso   1.00
C87    C     0.25000   0.00000   0.47966   0.00000  Uiso   1.00
C88    C     0.25000   0.00000   0.52034   0.00000  Uiso   1.00
C89    C     0.25000   0.00000   0.97966   0.00000  Uiso   1.00
C90    C     0.25000   0.00000   0.02035   0.00000  Uiso   1.00
C91    C     0.00000   0.25000   0.97966   0.00000  Uiso   1.00
C92    C     0.00000   0.25000   0.02035   0.00000  Uiso   1.00
C93    C     0.42334   0.25000   0.47979   0.00000  Uiso   1.00
C94    C     0.16998   0.08002   0.25000   0.00000  Uiso   1.00
C95    C     0.07666   0.25000   0.52021   0.00000  Uiso   1.00
C96    C     0.25000   0.07666   0.47979   0.00000  Uiso   1.00
C97    C     0.25000   0.42334   0.52021   0.00000  Uiso   1.00
C98    C     0.07666   0.25000   0.47979   0.00000  Uiso   1.00
C99    C     0.42334   0.25000   0.52021   0.00000  Uiso   1.00
C100   C     0.25000   0.42334   0.47979   0.00000  Uiso   1.00
C101   C     0.25000   0.07666   0.52021   0.00000  Uiso   1.00
C102   C     0.17334   0.00000   0.97979   0.00000  Uiso   1.00
C103   C     0.32666  -0.00000   0.02021   0.00000  Uiso   1.00
C104   C     0.49999   0.32666   0.97979   0.00000  Uiso   1.00
H105   H     0.06788   0.25000   0.40330   0.00000  Uiso   1.00
H106   H     0.18212   0.00000   0.09670   0.00000  Uiso   1.00
H107   H     0.00001   0.18212   0.90330   0.00000  Uiso   1.00
H108   H     0.49999   0.31788   0.09670   0.00000  Uiso   1.00
H109   H     0.18212   0.00000   0.90330   0.00000  Uiso   1.00
H110   H     0.31788  -0.00000   0.09670   0.00000  Uiso   1.00
H111   H     0.49999   0.31788   0.90330   0.00000  Uiso   1.00
H112   H     0.00001   0.18212   0.09670   0.00000  Uiso   1.00
H113   H     0.39355   0.25000   0.46452   0.00000  Uiso   1.00
H114   H     0.10646   0.25000   0.53548   0.00000  Uiso   1.00
H115   H     0.25000   0.10646   0.46452   0.00000  Uiso   1.00
H116   H     0.43212   0.25000   0.59670   0.00000  Uiso   1.00
H117   H     0.25000   0.39355   0.53548   0.00000  Uiso   1.00
H118   H     0.10646   0.25000   0.46452   0.00000  Uiso   1.00
H119   H     0.39355   0.25000   0.53548   0.00000  Uiso   1.00
H120   H     0.25000   0.39355   0.46452   0.00000  Uiso   1.00
H121   H     0.25000   0.10646   0.53548   0.00000  Uiso   1.00
H122   H     0.14355   0.00000   0.96452   0.00000  Uiso   1.00
H123   H     0.35646  -0.00000   0.03548   0.00000  Uiso   1.00
H124   H     0.49999   0.35646   0.96452   0.00000  Uiso   1.00
H125   H     0.00001   0.14355   0.03548   0.00000  Uiso   1.00
H126   H     0.35646  -0.00000   0.96452   0.00000  Uiso   1.00
H127   H     0.25000   0.43212   0.40330   0.00000  Uiso   1.00
H128   H     0.14355   0.00000   0.03548   0.00000  Uiso   1.00
H129   H     0.00001   0.14355   0.96452   0.00000  Uiso   1.00
H130   H     0.49999   0.35646   0.03548   0.00000  Uiso   1.00
H131   H     0.25000   0.06788   0.59670   0.00000  Uiso   1.00
H132   H     0.43212   0.25000   0.40330   0.00000  Uiso   1.00
H133   H     0.06788   0.25000   0.59670   0.00000  Uiso   1.00
H134   H     0.25000   0.06788   0.40330   0.00000  Uiso   1.00
H135   H     0.25000   0.43212   0.59670   0.00000  Uiso   1.00
H136   H     0.31788  -0.00000   0.90330   0.00000  Uiso   1.00
O137   O     0.25000   0.00000   0.25000   0.00000  Uiso   1.00
O138   O     0.25000   0.46539   0.66251   0.00000  Uiso   1.00
O139   O     0.46539   0.25000   0.33749   0.00000  Uiso   1.00
O140   O     0.03462   0.25000   0.66251   0.00000  Uiso   1.00
O141   O     0.00000   0.21539   0.83749   0.00000  Uiso   1.00
O142   O     0.00000   0.28462   0.16251   0.00000  Uiso   1.00
O143   O     0.28462   0.00000   0.83749   0.00000  Uiso   1.00
O144   O     0.21539   0.00000   0.16251   0.00000  Uiso   1.00
O145   O     0.00000   0.28462   0.83749   0.00000  Uiso   1.00
O146   O     0.00000   0.21539   0.16251   0.00000  Uiso   1.00
O147   O     0.21539   0.00000   0.83749   0.00000  Uiso   1.00
O148   O     0.25000   0.00000   0.75000   0.00000  Uiso   1.00
O149   O     0.28462   0.00000   0.16251   0.00000  Uiso   1.00
O150   O     0.20127   0.08332   0.27298   0.00000  Uiso   1.00
O151   O     0.29874   0.41668   0.72702   0.00000  Uiso   1.00
O152   O     0.41668   0.20127   0.27298   0.00000  Uiso   1.00
O153   O     0.08332   0.29874   0.72702   0.00000  Uiso   1.00
O154   O     0.29874   0.41668   0.27298   0.00000  Uiso   1.00
O155   O     0.20127   0.08332   0.72702   0.00000  Uiso   1.00
O156   O     0.08332   0.29874   0.27298   0.00000  Uiso   1.00
O157   O     0.41668   0.20127   0.72702   0.00000  Uiso   1.00
O158   O     0.20127   0.41668   0.72702   0.00000  Uiso   1.00
O159   O     0.00000   0.25000   0.25000   0.00000  Uiso   1.00
O160   O     0.29874   0.08332   0.27298   0.00000  Uiso   1.00
O161   O     0.41668   0.29874   0.72702   0.00000  Uiso   1.00
O162   O     0.08332   0.20127   0.27298   0.00000  Uiso   1.00
O163   O     0.29874   0.08332   0.72702   0.00000  Uiso   1.00
O164   O     0.20127   0.41668   0.27298   0.00000  Uiso   1.00
O165   O     0.08332   0.20127   0.72702   0.00000  Uiso   1.00
O166   O     0.41668   0.29874   0.27298   0.00000  Uiso   1.00
O167   O     0.45127   0.33332   0.77298   0.00000  Uiso   1.00
O168   O     0.04874   0.16668   0.22702   0.00000  Uiso   1.00
O169   O     0.16668   0.45127   0.77298   0.00000  Uiso   1.00
O170   O     0.00000   0.25000   0.75000   0.00000  Uiso   1.00
O171   O     0.33332   0.04874   0.22702   0.00000  Uiso   1.00
O172   O     0.04874   0.16668   0.77298   0.00000  Uiso   1.00
O173   O     0.45127   0.33332   0.22702   0.00000  Uiso   1.00
O174   O     0.33332   0.04874   0.77298   0.00000  Uiso   1.00
O175   O     0.16668   0.45127   0.22702   0.00000  Uiso   1.00
O176   O     0.45127   0.16668   0.22702   0.00000  Uiso   1.00
O177   O     0.04874   0.33332   0.77298   0.00000  Uiso   1.00
O178   O     0.16668   0.04874   0.22702   0.00000  Uiso   1.00
O179   O     0.33332   0.45127   0.77298   0.00000  Uiso   1.00
O180   O     0.04874   0.33332   0.22702   0.00000  Uiso   1.00
O181   O     0.25000   0.46539   0.33749   0.00000  Uiso   1.00
O182   O     0.45127   0.16668   0.77298   0.00000  Uiso   1.00
O183   O     0.33332   0.45127   0.22702   0.00000  Uiso   1.00
O184   O     0.16668   0.04874   0.77298   0.00000  Uiso   1.00
O185   O     0.25000   0.03462   0.66251   0.00000  Uiso   1.00
O186   O     0.03462   0.25000   0.33749   0.00000  Uiso   1.00
O187   O     0.46539   0.25000   0.66251   0.00000  Uiso   1.00
O188   O     0.25000   0.03462   0.33749   0.00000  Uiso   1.00
Zn189  Zn    0.20053   0.00000   0.21730   0.00000  Uiso   1.00
Zn190  Zn    0.04948   0.25000   0.28270   0.00000  Uiso   1.00
Zn191  Zn    0.25000   0.45053   0.71730   0.00000  Uiso   1.00
Zn192  Zn    0.25000   0.04948   0.28270   0.00000  Uiso   1.00
Zn193  Zn    0.04948   0.25000   0.71730   0.00000  Uiso   1.00
Zn194  Zn    0.45053   0.25000   0.28270   0.00000  Uiso   1.00
Zn195  Zn    0.25000   0.04948   0.71730   0.00000  Uiso   1.00
Zn196  Zn    0.25000   0.45053   0.28270   0.00000  Uiso   1.00
Zn197  Zn    0.29948   0.00000   0.78270   0.00000  Uiso   1.00
Zn198  Zn    0.00000   0.20053   0.21730   0.00000  Uiso   1.00
Zn199  Zn    0.00000   0.29948   0.78270   0.00000  Uiso   1.00
Zn200  Zn    0.29948   0.00000   0.21730   0.00000  Uiso   1.00
Zn201  Zn    0.20053   0.00000   0.78270   0.00000  Uiso   1.00
Zn202  Zn    0.00000   0.29948   0.21730   0.00000  Uiso   1.00
Zn203  Zn    0.00000   0.20053   0.78270   0.00000  Uiso   1.00
Zn204  Zn    0.45053   0.25000   0.71730   0.00000  Uiso   1.00
C205   C     0.75000   0.00000   0.35608   0.00000  Uiso   1.00
C206   C     0.83002   0.41998   0.75000   0.00000  Uiso   1.00
C207   C     0.50001   0.17334   0.02021   0.00000  Uiso   1.00
C208   C     0.82666  -0.00000   0.97979   0.00000  Uiso   1.00
C209   C     0.67334   0.00000   0.02021   0.00000  Uiso   1.00
C210   C     0.50001   0.17334   0.97979   0.00000  Uiso   1.00
C211   C     0.99999   0.32666   0.02021   0.00000  Uiso   1.00
C212   C     0.91998   0.16998   0.25000   0.00000  Uiso   1.00
C213   C     0.58002   0.33002   0.75000   0.00000  Uiso   1.00
C214   C     0.83002   0.41998   0.25000   0.00000  Uiso   1.00
C215   C     0.66998   0.08002   0.75000   0.00000  Uiso   1.00
C216   C     0.58002   0.33002   0.25000   0.00000  Uiso   1.00
C217   C     0.91998   0.16998   0.75000   0.00000  Uiso   1.00
C218   C     0.66998   0.41998   0.75000   0.00000  Uiso   1.00
C219   C     0.83002   0.08002   0.25000   0.00000  Uiso   1.00
C220   C     0.91998   0.33002   0.75000   0.00000  Uiso   1.00
C221   C     0.75000   0.00000   0.64392   0.00000  Uiso   1.00
C222   C     0.58002   0.16998   0.25000   0.00000  Uiso   1.00
C223   C     0.83002   0.08002   0.75000   0.00000  Uiso   1.00
C224   C     0.66998   0.41998   0.25000   0.00000  Uiso   1.00
C225   C     0.58002   0.16998   0.75000   0.00000  Uiso   1.00
C226   C     0.91998   0.33002   0.25000   0.00000  Uiso   1.00
C227   C     0.63833   0.38833   0.25000   0.00000  Uiso   1.00
C228   C     0.86167   0.11167   0.75000   0.00000  Uiso   1.00
C229   C     0.61167   0.13833   0.25000   0.00000  Uiso   1.00
C230   C     0.88833   0.36167   0.75000   0.00000  Uiso   1.00
C231   C     0.86167   0.11167   0.25000   0.00000  Uiso   1.00
C232   C     0.50000   0.25000   0.35608   0.00000  Uiso   1.00
C233   C     0.63833   0.38833   0.75000   0.00000  Uiso   1.00
C234   C     0.88833   0.36167   0.25000   0.00000  Uiso   1.00
C235   C     0.61167   0.13833   0.75000   0.00000  Uiso   1.00
C236   C     0.63833   0.11167   0.75000   0.00000  Uiso   1.00
C237   C     0.86167   0.38833   0.25000   0.00000  Uiso   1.00
C238   C     0.61167   0.36167   0.75000   0.00000  Uiso   1.00
C239   C     0.88833   0.13833   0.25000   0.00000  Uiso   1.00
C240   C     0.86167   0.38833   0.75000   0.00000  Uiso   1.00
C241   C     0.63833   0.11167   0.25000   0.00000  Uiso   1.00
C242   C     0.88833   0.13833   0.75000   0.00000  Uiso   1.00
C243   C     0.50000   0.25000   0.64392   0.00000  Uiso   1.00
C244   C     0.61167   0.36167   0.25000   0.00000  Uiso   1.00
C245   C     0.53827   0.25000   0.41890   0.00000  Uiso   1.00
C246   C     0.96173   0.25000   0.58110   0.00000  Uiso   1.00
C247   C     0.75000   0.46173   0.41890   0.00000  Uiso   1.00
C248   C     0.75000   0.03827   0.58110   0.00000  Uiso   1.00
C249   C     0.96173   0.25000   0.41890   0.00000  Uiso   1.00
C250   C     0.53827   0.25000   0.58110   0.00000  Uiso   1.00
C251   C     0.75000   0.03827   0.41890   0.00000  Uiso   1.00
C252   C     0.75000   0.46173   0.58110   0.00000  Uiso   1.00
C253   C     0.78827  -0.00000   0.91890   0.00000  Uiso   1.00
C254   C     0.50000   0.25000   0.85608   0.00000  Uiso   1.00
C255   C     0.71173   0.00000   0.08110   0.00000  Uiso   1.00
C256   C     0.50000   0.21173   0.91890   0.00000  Uiso   1.00
C257   C     0.50000   0.28827   0.08110   0.00000  Uiso   1.00
C258   C     0.71173   0.00000   0.91890   0.00000  Uiso   1.00
C259   C     0.78827  -0.00000   0.08110   0.00000  Uiso   1.00
C260   C     0.50000   0.28827   0.91890   0.00000  Uiso   1.00
C261   C     0.50000   0.21173   0.08110   0.00000  Uiso   1.00
C262   C     0.50000   0.25000   0.39856   0.00000  Uiso   1.00
C263   C     0.50000   0.25000   0.60144   0.00000  Uiso   1.00
C264   C     0.75000   0.00000   0.39856   0.00000  Uiso   1.00
C265   C     0.50000   0.25000   0.14392   0.00000  Uiso   1.00
C266   C     0.75000   0.00000   0.60144   0.00000  Uiso   1.00
C267   C     0.75000   0.00000   0.89856   0.00000  Uiso   1.00
C268   C     0.75000   0.00000   0.10144   0.00000  Uiso   1.00
C269   C     0.50000   0.25000   0.89856   0.00000  Uiso   1.00
C270   C     0.50000   0.25000   0.10144   0.00000  Uiso   1.00
C271   C     0.96147   0.25000   0.45934   0.00000  Uiso   1.00
C272   C     0.53853   0.25000   0.54066   0.00000  Uiso   1.00
C273   C     0.75000   0.03853   0.45933   0.00000  Uiso   1.00
C274   C     0.75000   0.46147   0.54067   0.00000  Uiso   1.00
C275   C     0.53853   0.25000   0.45933   0.00000  Uiso   1.00
C276   C     0.75000   0.00000   0.85608   0.00000  Uiso   1.00
C277   C     0.96147   0.25000   0.54067   0.00000  Uiso   1.00
C278   C     0.75000   0.46147   0.45934   0.00000  Uiso   1.00
C279   C     0.75000   0.03853   0.54066   0.00000  Uiso   1.00
C280   C     0.71147   0.00000   0.95933   0.00000  Uiso   1.00
C281   C     0.78853  -0.00000   0.04067   0.00000  Uiso   1.00
C282   C     0.50000   0.28853   0.95934   0.00000  Uiso   1.00
C283   C     0.50000   0.21147   0.04067   0.00000  Uiso   1.00
C284   C     0.78853  -0.00000   0.95934   0.00000  Uiso   1.00
C285   C     0.71147   0.00000   0.04067   0.00000  Uiso   1.00
C286   C     0.50000   0.21147   0.95933   0.00000  Uiso   1.00
C287   C     0.75000   0.00000   0.14392   0.00000  Uiso   1.00
C288   C     0.50000   0.28853   0.04067   0.00000  Uiso   1.00
C289   C     0.50000   0.25000   0.47966   0.00000  Uiso   1.00
C290   C     0.50000   0.25000   0.52035   0.00000  Uiso   1.00
C291   C     0.75000   0.00000   0.47966   0.00000  Uiso   1.00
C292   C     0.75000   0.00000   0.52034   0.00000  Uiso   1.00
C293   C     0.75000   0.00000   0.97966   0.00000  Uiso   1.00
C294   C     0.75000   0.00000   0.02035   0.00000  Uiso   1.00
C295   C     0.50000   0.25000   0.97966   0.00000  Uiso   1.00
C296   C     0.50000   0.25000   0.02035   0.00000  Uiso   1.00
C297   C     0.92334   0.25000   0.47979   0.00000  Uiso   1.00
C298   C     0.66998   0.08002   0.25000   0.00000  Uiso   1.00
C299   C     0.57666   0.25000   0.52021   0.00000  Uiso   1.00
C300   C     0.75000   0.07666   0.47979   0.00000  Uiso   1.00
C301   C     0.75000   0.42334   0.52021   0.00000  Uiso   1.00
C302   C     0.57666   0.25000   0.47979   0.00000  Uiso   1.00
C303   C     0.92334   0.25000   0.52021   0.00000  Uiso   1.00
C304   C     0.75000   0.42334   0.47979   0.00000  Uiso   1.00
C305   C     0.75000   0.07666   0.52021   0.00000  Uiso   1.00
C306   C     0.67334   0.00000   0.97979   0.00000  Uiso   1.00
C307   C     0.82666  -0.00000   0.02021   0.00000  Uiso   1.00
C308   C     0.99999   0.32666   0.97979   0.00000  Uiso   1.00
H309   H     0.56788   0.25000   0.40330   0.00000  Uiso   1.00
H310   H     0.68212   0.00000   0.09670   0.00000  Uiso   1.00
H311   H     0.50001   0.18212   0.90330   0.00000  Uiso   1.00
H312   H     0.99999   0.31788   0.09670   0.00000  Uiso   1.00
H313   H     0.68212   0.00000   0.90330   0.00000  Uiso   1.00
H314   H     0.81788  -0.00000   0.09670   0.00000  Uiso   1.00
H315   H     0.99999   0.31788   0.90330   0.00000  Uiso   1.00
H316   H     0.50001   0.18212   0.09670   0.00000  Uiso   1.00
H317   H     0.89355   0.25000   0.46452   0.00000  Uiso   1.00
H318   H     0.60646   0.25000   0.53548   0.00000  Uiso   1.00
H319   H     0.75000   0.10646   0.46452   0.00000  Uiso   1.00
H320   H     0.93212   0.25000   0.59670   0.00000  Uiso   1.00
H321   H     0.75000   0.39355   0.53548   0.00000  Uiso   1.00
H322   H     0.60646   0.25000   0.46452   0.00000  Uiso   1.00
H323   H     0.89355   0.25000   0.53548   0.00000  Uiso   1.00
H324   H     0.75000   0.39355   0.46452   0.00000  Uiso   1.00
H325   H     0.75000   0.10646   0.53548   0.00000  Uiso   1.00
H326   H     0.64355   0.00000   0.96452   0.00000  Uiso   1.00
H327   H     0.85646  -0.00000   0.03548   0.00000  Uiso   1.00
H328   H     0.99999   0.35646   0.96452   0.00000  Uiso   1.00
H329   H     0.50001   0.14355   0.03548   0.00000  Uiso   1.00
H330   H     0.85646  -0.00000   0.96452   0.00000  Uiso   1.00
H331   H     0.75000   0.43212   0.40330   0.00000  Uiso   1.00
H332   H     0.64355   0.00000   0.03548   0.00000  Uiso   1.00
H333   H     0.50001   0.14355   0.96452   0.00000  Uiso   1.00
H334   H     0.99999   0.35646   0.03548   0.00000  Uiso   1.00
H335   H     0.75000   0.06788   0.59670   0.00000  Uiso   1.00
H336   H     0.93212   0.25000   0.40330   0.00000  Uiso   1.00
H337   H     0.56788   0.25000   0.59670   0.00000  Uiso   1.00
H338   H     0.75000   0.06788   0.40330   0.00000  Uiso   1.00
H339   H     0.75000   0.43212   0.59670   0.00000  Uiso   1.00
H340   H     0.81788  -0.00000   0.90330   0.00000  Uiso   1.00
O341   O     0.75000   0.00000   0.25000   0.00000  Uiso   1.00
O342   O     0.75000   0.46539   0.66251   0.00000  Uiso   1.00
O343   O     0.96539   0.25000   0.33749   0.00000  Uiso   1.00
O344   O     0.53462   0.25000   0.66251   0.00000  Uiso   1.00
O345   O     0.50000   0.21539   0.83749   0.00000  Uiso   1.00
O346   O     0.50000   0.28462   0.16251   0.00000  Uiso   1.00
O347   O     0.78462   0.00000   0.83749   0.00000  Uiso   1.00
O348   O     0.71539   0.00000   0.16251   0.00000  Uiso   1.00
O349   O     0.50000   0.28462   0.83749   0.00000  Uiso   1.00
O350   O     0.50000   0.21539   0.16251   0.00000  Uiso   1.00
O351   O     0.71539   0.00000   0.83749   0.00000  Uiso   1.00
O352   O     0.75000   0.00000   0.75000   0.00000  Uiso   1.00
O353   O     0.78462   0.00000   0.16251   0.00000  Uiso   1.00
O354   O     0.70127   0.08332   0.27298   0.00000  Uiso   1.00
O355   O     0.79874   0.41668   0.72702   0.00000  Uiso   1.00
O356   O     0.91668   0.20127   0.27298   0.00000  Uiso   1.00
O357   O     0.58332   0.29874   0.72702   0.00000  Uiso   1.00
O358   O     0.79874   0.41668   0.27298   0.00000  Uiso   1.00
O359   O     0.70127   0.08332   0.72702   0.00000  Uiso   1.00
O360   O     0.58332   0.29874   0.27298   0.00000  Uiso   1.00
O361   O     0.91668   0.20127   0.72702   0.00000  Uiso   1.00
O362   O     0.70127   0.41668   0.72702   0.00000  Uiso   1.00
O363   O     0.50000   0.25000   0.25000   0.00000  Uiso   1.00
O364   O     0.79874   0.08332   0.27298   0.00000  Uiso   1.00
O365   O     0.91668   0.29874   0.72702   0.00000  Uiso   1.00
O366   O     0.58332   0.20127   0.27298   0.00000  Uiso   1.00
O367   O     0.79874   0.08332   0.72702   0.00000  Uiso   1.00
O368   O     0.70127   0.41668   0.27298   0.00000  Uiso   1.00
O369   O     0.58332   0.20127   0.72702   0.00000  Uiso   1.00
O370   O     0.91668   0.29874   0.27298   0.00000  Uiso   1.00
O371   O     0.95127   0.33332   0.77298   0.00000  Uiso   1.00
O372   O     0.54874   0.16668   0.22702   0.00000  Uiso   1.00
O373   O     0.66668   0.45127   0.77298   0.00000  Uiso   1.00
O374   O     0.50000   0.25000   0.75000   0.00000  Uiso   1.00
O375   O     0.83332   0.04874   0.22702   0.00000  Uiso   1.00
O376   O     0.54874   0.16668   0.77298   0.00000  Uiso   1.00
O377   O     0.95127   0.33332   0.22702   0.00000  Uiso   1.00
O378   O     0.83332   0.04874   0.77298   0.00000  Uiso   1.00
O379   O     0.66668   0.45127   0.22702   0.00000  Uiso   1.00
O380   O     0.95127   0.16668   0.22702   0.00000  Uiso   1.00
O381   O     0.54874   0.33332   0.77298   0.00000  Uiso   1.00
O382   O     0.66668   0.04874   0.22702   0.00000  Uiso   1.00
O383   O     0.83332   0.45127   0.77298   0.00000  Uiso   1.00
O384   O     0.54874   0.33332   0.22702   0.00000  Uiso   1.00
O385   O     0.75000   0.46539   0.33749   0.00000  Uiso   1.00
O386   O     0.95127   0.16668   0.77298   0.00000  Uiso   1.00
O387   O     0.83332   0.45127   0.22702   0.00000  Uiso   1.00
O388   O     0.66668   0.04874   0.77298   0.00000  Uiso   1.00
O389   O     0.75000   0.03462   0.66251   0.00000  Uiso   1.00
O390   O     0.53462   0.25000   0.33749   0.00000  Uiso   1.00
O391   O     0.96539   0.25000   0.66251   0.00000  Uiso   1.00
O392   O     0.75000   0.03462   0.33749   0.00000  Uiso   1.00
Zn393  Zn    0.70053   0.00000   0.21730   0.00000  Uiso   1.00
Zn394  Zn    0.54948   0.25000   0.28270   0.00000  Uiso   1.00
Zn395  Zn    0.75000   0.45053   0.71730   0.00000  Uiso   1.00
Zn396  Zn    0.75000   0.04948   0.28270   0.00000  Uiso   1.00
Zn397  Zn    0.54948   0.25000   0.71730   0.00000  Uiso   1.00
Zn398  Zn    0.95053   0.25000   0.28270   0.00000  Uiso   1.00
Zn399  Zn    0.75000   0.04948   0.71730   0.00000  Uiso   1.00
Zn400  Zn    0.75000   0.45053   0.28270   0.00000  Uiso   1.00
Zn401  Zn    0.79948   0.00000   0.78270   0.00000  Uiso   1.00
Zn402  Zn    0.50000   0.20053   0.21730   0.00000  Uiso   1.00
Zn403  Zn    0.50000   0.29948   0.78270   0.00000  Uiso   1.00
Zn404  Zn    0.79948   0.00000   0.21730   0.00000  Uiso   1.00
Zn405  Zn    0.70053   0.00000   0.78270   0.00000  Uiso   1.00
Zn406  Zn    0.50000   0.29948   0.21730   0.00000  Uiso   1.00
Zn407  Zn    0.50000   0.20053   0.78270   0.00000  Uiso   1.00
Zn408  Zn    0.95053   0.25000   0.71730   0.00000  Uiso   1.00
C409   C     0.25000   0.50000   0.35608   0.00000  Uiso   1.00
C410   C     0.33002   0.91998   0.75000   0.00000  Uiso   1.00
C411   C     0.00001   0.67334   0.02021   0.00000  Uiso   1.00
C412   C     0.32666   0.50000   0.97979   0.00000  Uiso   1.00
C413   C     0.17334   0.50000   0.02021   0.00000  Uiso   1.00
C414   C     0.00001   0.67334   0.97979   0.00000  Uiso   1.00
C415   C     0.49999   0.82666   0.02021   0.00000  Uiso   1.00
C416   C     0.41998   0.66998   0.25000   0.00000  Uiso   1.00
C417   C     0.08002   0.83002   0.75000   0.00000  Uiso   1.00
C418   C     0.33002   0.91998   0.25000   0.00000  Uiso   1.00
C419   C     0.16998   0.58002   0.75000   0.00000  Uiso   1.00
C420   C     0.08002   0.83002   0.25000   0.00000  Uiso   1.00
C421   C     0.41998   0.66998   0.75000   0.00000  Uiso   1.00
C422   C     0.16998   0.91998   0.75000   0.00000  Uiso   1.00
C423   C     0.33002   0.58002   0.25000   0.00000  Uiso   1.00
C424   C     0.41998   0.83002   0.75000   0.00000  Uiso   1.00
C425   C     0.25000   0.50000   0.64392   0.00000  Uiso   1.00
C426   C     0.08002   0.66998   0.25000   0.00000  Uiso   1.00
C427   C     0.33002   0.58002   0.75000   0.00000  Uiso   1.00
C428   C     0.16998   0.91998   0.25000   0.00000  Uiso   1.00
C429   C     0.08002   0.66998   0.75000   0.00000  Uiso   1.00
C430   C     0.41998   0.83002   0.25000   0.00000  Uiso   1.00
C431   C     0.13833   0.88833   0.25000   0.00000  Uiso   1.00
C432   C     0.36167   0.61167   0.75000   0.00000  Uiso   1.00
C433   C     0.11167   0.63833   0.25000   0.00000  Uiso   1.00
C434   C     0.38833   0.86167   0.75000   0.00000  Uiso   1.00
C435   C     0.36167   0.61167   0.25000   0.00000  Uiso   1.00
C436   C     0.00000   0.75000   0.35608   0.00000  Uiso   1.00
C437   C     0.13833   0.88833   0.75000   0.00000  Uiso   1.00
C438   C     0.38833   0.86167   0.25000   0.00000  Uiso   1.00
C439   C     0.11167   0.63833   0.75000   0.00000  Uiso   1.00
C440   C     0.13833   0.61167   0.75000   0.00000  Uiso   1.00
C441   C     0.36167   0.88833   0.25000   0.00000  Uiso   1.00
C442   C     0.11167   0.86167   0.75000   0.00000  Uiso   1.00
C443   C     0.38833   0.63833   0.25000   0.00000  Uiso   1.00
C444   C     0.36167   0.88833   0.75000   0.00000  Uiso   1.00
C445   C     0.13833   0.61167   0.25000   0.00000  Uiso   1.00
C446   C     0.38833   0.63833   0.75000   0.00000  Uiso   1.00
C447   C     0.00000   0.75000   0.64392   0.00000  Uiso   1.00
C448   C     0.11167   0.86167   0.25000   0.00000  Uiso   1.00
C449   C     0.03827   0.75000   0.41890   0.00000  Uiso   1.00
C450   C     0.46173   0.75000   0.58110   0.00000  Uiso   1.00
C451   C     0.25000   0.96173   0.41890   0.00000  Uiso   1.00
C452   C     0.25000   0.53827   0.58110   0.00000  Uiso   1.00
C453   C     0.46173   0.75000   0.41890   0.00000  Uiso   1.00
C454   C     0.03827   0.75000   0.58110   0.00000  Uiso   1.00
C455   C     0.25000   0.53827   0.41890   0.00000  Uiso   1.00
C456   C     0.25000   0.96173   0.58110   0.00000  Uiso   1.00
C457   C     0.28827   0.50000   0.91890   0.00000  Uiso   1.00
C458   C     0.00000   0.75000   0.85608   0.00000  Uiso   1.00
C459   C     0.21173   0.50000   0.08110   0.00000  Uiso   1.00
C460   C     0.00000   0.71173   0.91890   0.00000  Uiso   1.00
C461   C    -0.00000   0.78827   0.08110   0.00000  Uiso   1.00
C462   C     0.21173   0.50000   0.91890   0.00000  Uiso   1.00
C463   C     0.28827   0.50000   0.08110   0.00000  Uiso   1.00
C464   C    -0.00000   0.78827   0.91890   0.00000  Uiso   1.00
C465   C     0.00000   0.71173   0.08110   0.00000  Uiso   1.00
C466   C     0.00000   0.75000   0.39856   0.00000  Uiso   1.00
C467   C     0.00000   0.75000   0.60144   0.00000  Uiso   1.00
C468   C     0.25000   0.50000   0.39856   0.00000  Uiso   1.00
C469   C     0.00000   0.75000   0.14392   0.00000  Uiso   1.00
C470   C     0.25000   0.50000   0.60144   0.00000  Uiso   1.00
C471   C     0.25000   0.50000   0.89856   0.00000  Uiso   1.00
C472   C     0.25000   0.50000   0.10144   0.00000  Uiso   1.00
C473   C     0.00000   0.75000   0.89856   0.00000  Uiso   1.00
C474   C     0.00000   0.75000   0.10144   0.00000  Uiso   1.00
C475   C     0.46147   0.75000   0.45934   0.00000  Uiso   1.00
C476   C     0.03853   0.75000   0.54066   0.00000  Uiso   1.00
C477   C     0.25000   0.53853   0.45933   0.00000  Uiso   1.00
C478   C     0.25000   0.96147   0.54067   0.00000  Uiso   1.00
C479   C     0.03853   0.75000   0.45933   0.00000  Uiso   1.00
C480   C     0.25000   0.50000   0.85608   0.00000  Uiso   1.00
C481   C     0.46147   0.75000   0.54067   0.00000  Uiso   1.00
C482   C     0.25000   0.96147   0.45934   0.00000  Uiso   1.00
C483   C     0.25000   0.53853   0.54066   0.00000  Uiso   1.00
C484   C     0.21147   0.50000   0.95933   0.00000  Uiso   1.00
C485   C     0.28853   0.50000   0.04067   0.00000  Uiso   1.00
C486   C    -0.00000   0.78853   0.95934   0.00000  Uiso   1.00
C487   C     0.00000   0.71147   0.04067   0.00000  Uiso   1.00
C488   C     0.28853   0.50000   0.95934   0.00000  Uiso   1.00
C489   C     0.21147   0.50000   0.04067   0.00000  Uiso   1.00
C490   C     0.00000   0.71147   0.95933   0.00000  Uiso   1.00
C491   C     0.25000   0.50000   0.14392   0.00000  Uiso   1.00
C492   C    -0.00000   0.78853   0.04067   0.00000  Uiso   1.00
C493   C     0.00000   0.75000   0.47966   0.00000  Uiso   1.00
C494   C     0.00000   0.75000   0.52035   0.00000  Uiso   1.00
C495   C     0.25000   0.50000   0.47966   0.00000  Uiso   1.00
C496   C     0.25000   0.50000   0.52034   0.00000  Uiso   1.00
C497   C     0.25000   0.50000   0.97966   0.00000  Uiso   1.00
C498   C     0.25000   0.50000   0.02035   0.00000  Uiso   1.00
C499   C     0.00000   0.75000   0.97966   0.00000  Uiso   1.00
C500   C     0.00000   0.75000   0.02035   0.00000  Uiso   1.00
C501   C     0.42334   0.75000   0.47979   0.00000  Uiso   1.00
C502   C     0.16998   0.58002   0.25000   0.00000  Uiso   1.00
C503   C     0.07666   0.75000   0.52021   0.00000  Uiso   1.00
C504   C     0.25000   0.57666   0.47979   0.00000  Uiso   1.00
C505   C     0.25000   0.92334   0.52021   0.00000  Uiso   1.00
C506   C     0.07666   0.75000   0.47979   0.00000  Uiso   1.00
C507   C     0.42334   0.75000   0.52021   0.00000  Uiso   1.00
C508   C     0.25000   0.92334   0.47979   0.00000  Uiso   1.00
C509   C     0.25000   0.57666   0.52021   0.00000  Uiso   1.00
C510   C     0.17334   0.50000   0.97979   0.00000  Uiso   1.00
C511   C     0.32666   0.50000   0.02021   0.00000  Uiso   1.00
C512   C     0.49999   0.82666   0.97979   0.00000  Uiso   1.00
H513   H     0.06788   0.75000   0.40330   0.00000  Uiso   1.00
H514   H     0.18212   0.50000   0.09670   0.00000  Uiso   1.00
H515   H     0.00001   0.68212   0.90330   0.00000  Uiso   1.00
H516   H     0.49999   0.81788   0.09670   0.00000  Uiso   1.00
H517   H     0.18212   0.50000   0.90330   0.00000  Uiso   1.00
H518   H     0.31788   0.50000   0.09670   0.00000  Uiso   1.00
H519   H     0.49999   0.81788   0.90330   0.00000  Uiso   1.00
H520   H     0.00001   0.68212   0.09670   0.00000  Uiso   1.00
H521   H     0.39355   0.75000   0.46452   0.00000  Uiso   1.00
H522   H     0.10646   0.75000   0.53548   0.00000  Uiso   1.00
H523   H     0.25000   0.60646   0.46452   0.00000  Uiso   1.00
H524   H     0.43212   0.75000   0.59670   0.00000  Uiso   1.00
H525   H     0.25000   0.89355   0.53548   0.00000  Uiso   1.00
H526   H     0.10646   0.75000   0.46452   0.00000  Uiso   1.00
H527   H     0.39355   0.75000   0.53548   0.00000  Uiso   1.00
H528   H     0.25000   0.89355   0.46452   0.00000  Uiso   1.00
H529   H     0.25000   0.60646   0.53548   0.00000  Uiso   1.00
H530   H     0.14355   0.50000   0.96452   0.00000  Uiso   1.00
H531   H     0.35646   0.50000   0.03548   0.00000  Uiso   1.00
H532   H     0.49999   0.85646   0.96452   0.00000  Uiso   1.00
H533   H     0.00001   0.64355   0.03548   0.00000  Uiso   1.00
H534   H     0.35646   0.50000   0.96452   0.00000  Uiso   1.00
H535   H     0.25000   0.93212   0.40330   0.00000  Uiso   1.00
H536   H     0.14355   0.50000   0.03548   0.00000  Uiso   1.00
H537   H     0.00001   0.64355   0.96452   0.00000  Uiso   1.00
H538   H     0.49999   0.85646   0.03548   0.00000  Uiso   1.00
H539   H     0.25000   0.56788   0.59670   0.00000  Uiso   1.00
H540   H     0.43212   0.75000   0.40330   0.00000  Uiso   1.00
H541   H     0.06788   0.75000   0.59670   0.00000  Uiso   1.00
H542   H     0.25000   0.56788   0.40330   0.00000  Uiso   1.00
H543   H     0.25000   0.93212   0.59670   0.00000  Uiso   1.00
H544   H     0.31788   0.50000   0.90330   0.00000  Uiso   1.00
O545   O     0.25000   0.50000   0.25000   0.00000  Uiso   1.00
O546   O     0.25000   0.96539   0.66251   0.00000  Uiso   1.00
O547   O     0.46539   0.75000   0.33749   0.00000  Uiso   1.00
O548   O     0.03462   0.75000   0.66251   0.00000  Uiso   1.00
O549   O     0.00000   0.71539   0.83749   0.00000  Uiso   1.00
O550   O     0.00000   0.78462   0.16251   0.00000  Uiso   1.00
O551   O     0.28462   0.50000   0.83749   0.00000  Uiso   1.00
O552   O     0.21539   0.50000   0.16251   0.00000  Uiso   1.00
O553   O     0.00000   0.78462   0.83749   0.00000  Uiso   1.00
O554   O     0.00000   0.71539   0.16251   0.00000  Uiso   1.00
O555   O     0.21539   0.50000   0.83749   0.00000  Uiso   1.00
O556   O     0.25000   0.50000   0.75000   0.00000  Uiso   1.00
O557   O     0.28462   0.50000   0.16251   0.00000  Uiso   1.00
O558   O     0.20127   0.58332   0.27298   0.00000  Uiso   1.00
O559   O     0.29874   0.91668   0.72702   0.00000  Uiso   1.00
O560   O     0.41668   0.70127   0.27298   0.00000  Uiso   1.00
O561   O     0.08332   0.79874   0.72702   0.00000  Uiso   1.00
O562   O     0.29874   0.91668   0.27298   0.00000  Uiso   1.00
O563   O     0.20127   0.58332   0.72702   0.00000  Uiso   1.00
O564   O     0.08332   0.79874   0.27298   0.00000  Uiso   1.00
O565   O     0.41668   0.70127   0.72702   0.00000  Uiso   1.00
O566   O     0.20127   0.91668   0.72702   0.00000  Uiso   1.00
O567   O     0.00000   0.75000   0.25000   0.00000  Uiso   1.00
O568   O     0.29874   0.58332   0.27298   0.00000  Uiso   1.00
O569   O     0.41668   0.79874   0.72702   0.00000  Uiso   1.00
O570   O     0.08332   0.70127   0.27298   0.00000  Uiso   1.00
O571   O     0.29874   0.58332   0.72702   0.00000  Uiso   1.00
O572   O     0.20127   0.91668   0.27298   0.00000  Uiso   1.00
O573   O     0.08332   0.70127   0.72702   0.00000  Uiso   1.00
O574   O     0.41668   0.79874   0.27298   0.00000  Uiso   1.00
O575   O     0.45127   0.83332   0.77298   0.00000  Uiso   1.00
O576   O     0.04874   0.66668   0.22702   0.00000  Uiso   1.00
O577   O     0.16668   0.95127   0.77298   0.00000  Uiso   1.00
O578   O     0.00000   0.75000   0.75000   0.00000  Uiso   1.00
O579   O     0.33332   0.54874   0.22702   0.00000  Uiso   1.00
O580   O     0.04874   0.66668   0.77298   0.00000  Uiso   1.00
O581   O     0.45127   0.83332   0.22702   0.00000  Uiso   1.00
O582   O     0.33332   0.54874   0.77298   0.00000  Uiso   1.00
O583   O     0.16668   0.95127   0.22702   0.00000  Uiso   1.00
O584   O     0.45127   0.66668   0.22702   0.00000  Uiso   1.00
O585   O     0.04874   0.83332   0.77298   0.00000  Uiso   1.00
O586   O     0.16668   0.54874   0.22702   0.00000  Uiso   1.00
O587   O     0.33332   0.95127   0.77298   0.00000  Uiso   1.00
O588   O     0.04874   0.83332   0.22702   0.00000  Uiso   1.00
O589   O     0.25000   0.96539   0.33749   0.00000  Uiso   1.00
O590   O     0.45127   0.66668   0.77298   0.00000  Uiso   1.00
O591   O     0.33332   0.95127   0.22702   0.00000  Uiso   1.00
O592   O     0.16668   0.54874   0.77298   0.00000  Uiso   1.00
O593   O     0.25000   0.53462   0.66251   0.00000  Uiso   1.00
O594   O     0.03462   0.75000   0.33749   0.00000  Uiso   1.00
O595   O     0.46539   0.75000   0.66251   0.00000  Uiso   1.00
O596   O     0.25000   0.53462   0.33749   0.00000  Uiso   1.00
Zn597  Zn    0.20053   0.50000   0.21730   0.00000  Uiso   1.00
Zn598  Zn    0.04948   0.75000   0.28270   0.00000  Uiso   1.00
Zn599  Zn    0.25000   0.95053   0.71730   0.00000  Uiso   1.00
Zn600  Zn    0.25000   0.54948   0.28270   0.00000  Uiso   1.00
Zn601  Zn    0.04948   0.75000   0.71730   0.00000  Uiso   1.00
Zn602  Zn    0.45053   0.75000   0.28270   0.00000  Uiso   1.00
Zn603  Zn    0.25000   0.54948   0.71730   0.00000  Uiso   1.00
Zn604  Zn    0.25000   0.95053   0.28270   0.00000  Uiso   1.00
Zn605  Zn    0.29948   0.50000   0.78270   0.00000  Uiso   1.00
Zn606  Zn    0.00000   0.70053   0.21730   0.00000  Uiso   1.00
Zn607  Zn    0.00000   0.79948   0.78270   0.00000  Uiso   1.00
Zn608  Zn    0.29948   0.50000   0.21730   0.00000  Uiso   1.00
Zn609  Zn    0.20053   0.50000   0.78270   0.00000  Uiso   1.00
Zn610  Zn    0.00000   0.79948   0.21730   0.00000  Uiso   1.00
Zn611  Zn    0.00000   0.70053   0.78270   0.00000  Uiso   1.00
Zn612  Zn    0.45053   0.75000   0.71730   0.00000  Uiso   1.00
C613   C     0.75000   0.50000   0.35608   0.00000  Uiso   1.00
C614   C     0.83002   0.91998   0.75000   0.00000  Uiso   1.00
C615   C     0.50001   0.67334   0.02021   0.00000  Uiso   1.00
C616   C     0.82666   0.50000   0.97979   0.00000  Uiso   1.00
C617   C     0.67334   0.50000   0.02021   0.00000  Uiso   1.00
C618   C     0.50001   0.67334   0.97979   0.00000  Uiso   1.00
C619   C     0.99999   0.82666   0.02021   0.00000  Uiso   1.00
C620   C     0.91998   0.66998   0.25000   0.00000  Uiso   1.00
C621   C     0.58002   0.83002   0.75000   0.00000  Uiso   1.00
C622   C     0.83002   0.91998   0.25000   0.00000  Uiso   1.00
C623   C     0.66998   0.58002   0.75000   0.00000  Uiso   1.00
C624   C     0.58002   0.83002   0.25000   0.00000  Uiso   1.00
C625   C     0.91998   0.66998   0.75000   0.00000  Uiso   1.00
C626   C     0.66998   0.91998   0.75000   0.00000  Uiso   1.00
C627   C     0.83002   0.58002   0.25000   0.00000  Uiso   1.00
C628   C     0.91998   0.83002   0.75000   0.00000  Uiso   1.00
C629   C     0.75000   0.50000   0.64392   0.00000  Uiso   1.00
C630   C     0.58002   0.66998   0.25000   0.00000  Uiso   1.00
C631   C     0.83002   0.58002   0.75000   0.00000  Uiso   1.00
C632   C     0.66998   0.91998   0.25000   0.00000  Uiso   1.00
C633   C     0.58002   0.66998   0.75000   0.00000  Uiso   1.00
C634   C     0.91998   0.83002   0.25000   0.00000  Uiso   1.00
C635   C     0.63833   0.88833   0.25000   0.00000  Uiso   1.00
C636   C     0.86167   0.61167   0.75000   0.00000  Uiso   1.00
C637   C     0.61167   0.63833   0.25000   0.00000  Uiso   1.00
C638   C     0.88833   0.86167   0.75000   0.00000  Uiso   1.00
C639   C     0.86167   0.61167   0.25000   0.00000  Uiso   1.00
C640   C     0.50000   0.75000   0.35608   0.00000  Uiso   1.00
C641   C     0.63833   0.88833   0.75000   0.00000  Uiso   1.00
C642   C     0.88833   0.86167   0.25000   0.00000  Uiso   1.00
C643   C     0.61167   0.63833   0.75000   0.00000  Uiso   1.00
C644   C     0.63833   0.61167   0.75000   0.00000  Uiso   1.00
C645   C     0.86167   0.88833   0.25000   0.00000  Uiso   1.00
C646   C     0.61167   0.86167   0.75000   0.00000  Uiso   1.00
C647   C     0.88833   0.63833   0.25000   0.00000  Uiso   1.00
C648   C     0.86167   0.88833   0.75000   0.00000  Uiso   1.00
C649   C     0.63833   0.61167   0.25000   0.00000  Uiso   1.00
C650   C     0.88833   0.63833   0.75000   0.00000  Uiso   1.00
C651   C     0.50000   0.75000   0.64392   0.00000  Uiso   1.00
C652   C     0.61167   0.86167   0.25000   0.00000  Uiso   1.00
C653   C     0.53827   0.75000   0.41890   0.00000  Uiso   1.00
C654   C     0.96173   0.75000   0.58110   0.00000  Uiso   1.00
C655   C     0.75000   0.96173   0.41890   0.00000  Uiso   1.00
C656   C     0.75000   0.53827   0.58110   0.00000  Uiso   1.00
C657   C     0.96173   0.75000   0.41890   0.00000  Uiso   1.00
C658   C     0.53827   0.75000   0.58110   0.00000  Uiso   1.00
C659   C     0.75000   0.53827   0.41890   0.00000  Uiso   1.00
C660   C     0.75000   0.96173   0.58110   0.00000  Uiso   1.00
C661   C     0.78827   0.50000   0.91890   0.00000  Uiso   1.00
C662   C     0.50000   0.75000   0.85608   0.00000  Uiso   1.00
C663   C     0.71173   0.50000   0.08110   0.00000  Uiso   1.00
C664   C     0.50000   0.71173   0.91890   0.00000  Uiso   1.00
C665   C     0.50000   0.78827   0.08110   0.00000  Uiso   1.00
C666   C     0.71173   0.50000   0.91890   0.00000  Uiso   1.00
C667   C     0.78827   0.50000   0.08110   0.00000  Uiso   1.00
C668   C     0.50000   0.78827   0.91890   0.00000  Uiso   1.00
C669   C     0.50000   0.71173   0.08110   0.00000  Uiso   1.00
C670   C     0.50000   0.75000   0.39856   0.00000  Uiso   1.00
C671   C     0.50000   0.75000   0.60144   0.00000  Uiso   1.00
C672   C     0.75000   0.50000   0.39856   0.00000  Uiso   1.00
C673   C     0.50000   0.75000   0.14392   0.00000  Uiso   1.00
C674   C     0.75000   0.50000   0.60144   0.00000  Uiso   1.00
C675   C     0.75000   0.50000   0.89856   0.00000  Uiso   1.00
C676   C     0.75000   0.50000   0.10144   0.00000  Uiso   1.00
C677   C     0.50000   0.75000   0.89856   0.00000  Uiso   1.00
C678   C     0.50000   0.75000   0.10144   0.00000  Uiso   1.00
C679   C     0.96147   0.75000   0.45934   0.00000  Uiso   1.00
C680   C     0.53853   0.75000   0.54066   0.00000  Uiso   1.00
C681   C     0.75000   0.53853   0.45933   0.00000  Uiso   1.00
C682   C     0.75000   0.96147   0.54067   0.00000  Uiso   1.00
C683   C     0.53853   0.75000   0.45933   0.00000  Uiso   1.00
C684   C     0.75000   0.50000   0.85608   0.00000  Uiso   1.00
C685   C     0.96147   0.75000   0.54067   0.00000  Uiso   1.00
C686   C     0.75000   0.96147   0.45934   0.00000  Uiso   1.00
C687   C     0.75000   0.53853   0.54066   0.00000  Uiso   1.00
C688   C     0.71147   0.50000   0.95933   0.00000  Uiso   1.00
C689   C     0.78853   0.50000   0.04067   0.00000  Uiso   1.00
C690   C     0.50000   0.78853   0.95934   0.00000  Uiso   1.00
C691   C     0.50000   0.71147   0.04067   0.00000  Uiso   1.00
C692   C     0.78853   0.50000   0.95934   0.00000  Uiso   1.00
C693   C     0.71147   0.50000   0.04067   0.00000  Uiso   1.00
C694   C     0.50000   0.71147   0.95933   0.00000  Uiso   1.00
C695   C     0.75000   0.50000   0.14392   0.00000  Uiso   1.00
C696   C     0.50000   0.78853   0.04067   0.00000  Uiso   1.00
C697   C     0.50000   0.75000   0.47966   0.00000  Uiso   1.00
C698   C     0.50000   0.75000   0.52035   0.00000  Uiso   1.00
C699   C     0.75000   0.50000   0.47966   0.00000  Uiso   1.00
C700   C     0.75000   0.50000   0.52034   0.00000  Uiso   1.00
C701   C     0.75000   0.50000   0.97966   0.00000  Uiso   1.00
C702   C     0.75000   0.50000   0.02035   0.00000  Uiso   1.00
C703   C     0.50000   0.75000   0.97966   0.00000  Uiso   1.00
C704   C     0.50000   0.75000   0.02035   0.00000  Uiso   1.00
C705   C     0.92334   0.75000   0.47979   0.00000  Uiso   1.00
C706   C     0.66998   0.58002   0.25000   0.00000  Uiso   1.00
C707   C     0.57666   0.75000   0.52021   0.00000  Uiso   1.00
C708   C     0.75000   0.57666   0.47979   0.00000  Uiso   1.00
C709   C     0.75000   0.92334   0.52021   0.00000  Uiso   1.00
C710   C     0.57666   0.75000   0.47979   0.00000  Uiso   1.00
C711   C     0.92334   0.75000   0.52021   0.00000  Uiso   1.00
C712   C     0.75000   0.92334   0.47979   0.00000  Uiso   1.00
C713   C     0.75000   0.57666   0.52021   0.00000  Uiso   1.00
C714   C     0.67334   0.50000   0.97979   0.00000  Uiso   1.00
C715   C     0.82666   0.50000   0.02021   0.00000  Uiso   1.00
C716   C     0.99999   0.82666   0.97979   0.00000  Uiso   1.00
H717   H     0.56788   0.75000   0.40330   0.00000  Uiso   1.00
H718   H     0.68212   0.50000   0.09670   0.00000  Uiso   1.00
H719   H     0.50001   0.68212   0.90330   0.00000  Uiso   1.00
H720   H     0.99999   0.81788   0.09670   0.00000  Uiso   1.00
H721   H     0.68212   0.50000   0.90330   0.00000  Uiso   1.00
H722   H     0.81788   0.50000   0.09670   0.00000  Uiso   1.00
H723   H     0.99999   0.81788   0.90330   0.00000  Uiso   1.00
H724   H     0.50001   0.68212   0.09670   0.00000  Uiso   1.00
H725   H     0.89355   0.75000   0.46452   0.00000  Uiso   1.00
H726   H     0.60646   0.75000   0.53548   0.00000  Uiso   1.00
H727   H     0.75000   0.60646   0.46452   0.00000  Uiso   1.00
H728   H     0.93212   0.75000   0.59670   0.00000  Uiso   1.00
H729   H     0.75000   0.89355   0.53548   0.00000  Uiso   1.00
H730   H     0.60646   0.75000   0.46452   0.00000  Uiso   1.00
H731   H     0.89355   0.75000   0.53548   0.00000  Uiso   1.00
H732   H     0.75000   0.89355   0.46452   0.00000  Uiso   1.00
H733   H     0.75000   0.60646   0.53548   0.00000  Uiso   1.00
H734   H     0.64355   0.50000   0.96452   0.00000  Uiso   1.00
H735   H     0.85646   0.50000   0.03548   0.00000  Uiso   1.00
H736   H     0.99999   0.85646   0.96452   0.00000  Uiso   1.00
H737   H     0.50001   0.64355   0.03548   0.00000  Uiso   1.00
H738   H     0.85646   0.50000   0.96452   0.00000  Uiso   1.00
H739   H     0.75000   0.93212   0.40330   0.00000  Uiso   1.00
H740   H     0.64355   0.50000   0.03548   0.00000  Uiso   1.00
H741   H     0.50001   0.64355   0.96452   0.00000  Uiso   1.00
H742   H     0.99999   0.85646   0.03548   0.00000  Uiso   1.00
H743   H     0.75000   0.56788   0.59670   0.00000  Uiso   1.00
H744   H     0.93212   0.75000   0.40330   0.00000  Uiso   1.00
H745   H     0.56788   0.75000   0.59670   0.00000  Uiso   1.00
H746   H     0.75000   0.56788   0.40330   0.00000  Uiso   1.00
H747   H     0.75000   0.93212   0.59670   0.00000  Uiso   1.00
H748   H     0.81788   0.50000   0.90330   0.00000  Uiso   1.00
O749   O     0.75000   0.50000   0.25000   0.00000  Uiso   1.00
O750   O     0.75000   0.96539   0.66251   0.00000  Uiso   1.00
O751   O     0.96539   0.75000   0.33749   0.00000  Uiso   1.00
O752   O     0.53462   0.75000   0.66251   0.00000  Uiso   1.00
O753   O     0.50000   0.71539   0.83749   0.00000  Uiso   1.00
O754   O     0.50000   0.78462   0.16251   0.00000  Uiso   1.00
O755   O     0.78462   0.50000   0.83749   0.00000  Uiso   1.00
O756   O     0.71539   0.50000   0.16251   0.00000  Uiso   1.00
O757   O     0.50000   0.78462   0.83749   0.00000  Uiso   1.00
O758   O     0.50000   0.71539   0.16251   0.00000  Uiso   1.00
O759   O     0.71539   0.50000   0.83749   0.00000  Uiso   1.00
O760   O     0.75000   0.50000   0.75000   0.00000  Uiso   1.00
O761   O     0.78462   0.50000   0.16251   0.00000  Uiso   1.00
O762   O     0.70127   0.58332   0.27298   0.00000  Uiso   1.00
O763   O     0.79874   0.91668   0.72702   0.00000  Uiso   1.00
O764   O     0.91668   0.70127   0.27298   0.00000  Uiso   1.00
O765   O     0.58332   0.79874   0.72702   0.00000  Uiso   1.00
O766   O     0.79874   0.91668   0.27298   0.00000  Uiso   1.00
O767   O     0.70127   0.58332   0.72702   0.00000  Uiso   1.00
O768   O     0.58332   0.79874   0.27298   0.00000  Uiso   1.00
O769   O     0.91668   0.70127   0.72702   0.00000  Uiso   1.00
O770   O     0.70127   0.91668   0.72702   0.00000  Uiso   1.00
O771   O     0.50000   0.75000   0.25000   0.00000  Uiso   1.00
O772   O     0.79874   0.58332   0.27298   0.00000  Uiso   1.00
O773   O     0.91668   0.79874   0.72702   0.00000  Uiso   1.00
O774   O     0.58332   0.70127   0.27298   0.00000  Uiso   1.00
O775   O     0.79874   0.58332   0.72702   0.00000  Uiso   1.00
O776   O     0.70127   0.91668   0.27298   0.00000  Uiso   1.00
O777   O     0.58332   0.70127   0.72702   0.00000  Uiso   1.00
O778   O     0.91668   0.79874   0.27298   0.00000  Uiso   1.00
O779   O     0.95127   0.83332   0.77298   0.00000  Uiso   1.00
O780   O     0.54874   0.66668   0.22702   0.00000  Uiso   1.00
O781   O     0.66668   0.95127   0.77298   0.00000  Uiso   1.00
O782   O     0.50000   0.75000   0.75000   0.00000  Uiso   1.00
O783   O     0.83332   0.54874   0.22702   0.00000  Uiso   1.00
O784   O     0.54874   0.66668   0.77298   0.00000  Uiso   1.00
O785   O     0.95127   0.83332   0.22702   0.00000  Uiso   1.00
O786   O     0.83332   0.54874   0.77298   0.00000  Uiso   1.00
O787   O     0.66668   0.95127   0.22702   0.00000  Uiso   1.00
O788   O     0.95127   0.66668   0.22702   0.00000  Uiso   1.00
O789   O     0.54874   0.83332   0.77298   0.00000  Uiso   1.00
O790   O     0.66668   0.54874   0.22702   0.00000  Uiso   1.00
O791   O     0.83332   0.95127   0.77298   0.00000  Uiso   1.00
O792   O     0.54874   0.83332   0.22702   0.00000  Uiso   1.00
O793   O     0.75000   0.96539   0.33749   0.00000  Uiso   1.00
O794   O     0.95127   0.66668   0.77298   0.00000  Uiso   1.00
O795   O     0.83332   0.95127   0.22702   0.00000  Uiso   1.00
O796   O     0.66668   0.54874   0.77298   0.00000  Uiso   1.00
O797   O     0.75000   0.53462   0.66251   0.00000  Uiso   1.00
O798   O     0.53462   0.75000   0.33749   0.00000  Uiso   1.00
O799   O     0.96539   0.75000   0.66251   0.00000  Uiso   1.00
O800   O     0.75000   0.53462   0.33749   0.00000  Uiso   1.00
Zn801  Zn    0.70053   0.50000   0.21730   0.00000  Uiso   1.00
Zn802  Zn    0.54948   0.75000   0.28270   0.00000  Uiso   1.00
Zn803  Zn    0.75000   0.95053   0.71730   0.00000  Uiso   1.00
Zn804  Zn    0.75000   0.54948   0.28270   0.00000  Uiso   1.00
Zn805  Zn    0.54948   0.75000   0.71730   0.00000  Uiso   1.00
Zn806  Zn    0.95053   0.75000   0.28270   0.00000  Uiso   1.00
Zn807  Zn    0.75000   0.54948   0.71730   0.00000  Uiso   1.00
Zn808  Zn    0.75000   0.95053   0.28270   0.00000  Uiso   1.00
Zn809  Zn    0.79948   0.50000   0.78270   0.00000  Uiso   1.00
Zn810  Zn    0.50000   0.70053   0.21730   0.00000  Uiso   1.00
Zn811  Zn    0.50000   0.79948   0.78270   0.00000  Uiso   1.00
Zn812  Zn    0.79948   0.50000   0.21730   0.00000  Uiso   1.00
Zn813  Zn    0.70053   0.50000   0.78270   0.00000  Uiso   1.00
Zn814  Zn    0.50000   0.79948   0.21730   0.00000  Uiso   1.00
Zn815  Zn    0.50000   0.70053   0.78270   0.00000  Uiso   1.00
Zn816  Zn    0.95053   0.75000   0.71730   0.00000  Uiso   1.00
loop_
_geom_bond_atom_site_label_1
_geom_bond_atom_site_label_2
_geom_bond_distance
_geom_bond_site_symmetry_2
_ccdc_geom_bond_type
C1     C60     1.466   .     S
C1     O589    1.273   1_545 A
C1     O188    1.273   .     S
C2     O179    1.276   .     A
C2     C36     1.422   .     S
C2     O151    1.276   .     A
C3     H125    1.084   .     S
C3     C79     1.402   .     A
C3     C6      1.395   1_554 S
C4     C80     1.402   .     A
C4     H126    1.084   .     S
C4     C103    1.395   1_556 S
C5     C81     1.402   .     A
C5     H128    1.084   .     S
C5     C102    1.395   1_554 S
C6     C82     1.402   .     A
C6     H129    1.084   .     S
C6     C3      1.395   1_556 S
C7     H130    1.084   .     S
C7     C288    1.402   .     A
C7     C104    1.395   1_554 S
C8     O152    1.276   .     A
C8     O176    1.276   .     A
C8     C35     1.422   .     S
C9     O153    1.276   .     A
C9     C34     1.422   .     S
C9     O177    1.276   .     A
C10    O154    1.276   .     A
C10    O183    1.276   .     A
C10    C33     1.422   .     S
C11    O155    1.276   .     A
C11    C32     1.422   .     S
C11    O184    1.276   .     A
C12    O156    1.276   .     A
C12    C40     1.422   .     S
C12    O180    1.276   .     A
C13    C38     1.422   .     S
C13    O157    1.276   .     A
C13    O182    1.276   .     A
C14    O158    1.276   .     A
C14    O169    1.276   .     A
C14    C29     1.422   .     S
C15    C27     1.422   .     S
C15    O171    1.276   .     A
C15    O160    1.276   .     A
C16    C26     1.422   .     S
C16    O161    1.276   .     A
C16    O167    1.276   .     A
C17    O546    1.273   1_545 A
C17    C62     1.466   .     S
C17    O185    1.273   .     S
C18    C25     1.422   .     S
C18    O168    1.276   .     A
C18    O162    1.276   .     A
C19    O163    1.276   .     A
C19    C24     1.422   .     S
C19    O174    1.276   .     A
C20    O164    1.276   .     A
C20    C23     1.422   .     S
C20    O175    1.276   .     A
C21    O165    1.276   .     A
C21    C31     1.422   .     S
C21    O172    1.276   .     A
C22    O166    1.276   .     A
C22    O173    1.276   .     A
C22    C30     1.422   .     S
C23    C40     1.198   .     T
C24    C38     1.198   .     T
C25    C37     1.198   .     T
C26    C36     1.198   .     T
C27    C35     1.198   .     T
C28    O343    1.273   1_455 A
C28    C58     1.466   .     S
C28    O186    1.273   .     S
C29    C34     1.198   .     T
C30    C33     1.198   .     T
C31    C32     1.198   .     T
C37    C94     1.422   .     S
C39    C59     1.466   .     S
C39    O391    1.273   1_455 A
C39    O140    1.273   .     S
C41    C71     1.396   .     A
C41    H105    1.084   .     S
C41    C58     1.404   .     S
C42    C73     1.396   .     A
C42    H116    1.084   .     S
C42    C263    1.404   .     A
C43    C74     1.396   .     A
C43    H127    1.084   .     S
C43    C468    1.404   .     A
C44    H131    1.084   .     S
C44    C62     1.404   .     A
C44    C75     1.396   .     A
C45    C67     1.396   .     A
C45    C262    1.404   .     A
C45    H132    1.084   .     S
C46    C68     1.396   .     A
C46    H133    1.084   .     S
C46    C59     1.404   .     S
C47    C69     1.396   .     A
C47    H134    1.084   .     S
C47    C60     1.404   .     S
C48    C70     1.396   .     A
C48    H135    1.084   .     S
C48    C470    1.404   .     S
C49    H136    1.084   .     S
C49    C80     1.396   .     A
C49    C63     1.404   .     S
C50    O145    1.273   .     A
C50    O141    1.273   .     A
C50    C65     1.466   .     S
C51    C81     1.396   .     A
C51    H106    1.084   .     S
C51    C64     1.404   .     S
C52    H107    1.084   .     S
C52    C82     1.396   .     A
C52    C65     1.404   .     S
C53    C84     1.396   .     A
C53    C66     1.404   .     A
C53    H312    1.084   1_455 S
C54    H109    1.084   .     S
C54    C76     1.396   .     A
C54    C63     1.404   .     A
C55    C77     1.396   .     A
C55    C64     1.404   .     A
C55    H110    1.084   .     S
C56    C78     1.396   .     A
C56    H315    1.084   1_455 S
C56    C65     1.404   .     A
C57    C79     1.396   .     A
C57    H112    1.084   .     S
C57    C66     1.404   .     S
C58    C249    1.404   1_455 A
C59    C246    1.404   1_455 A
C60    C451    1.404   1_545 A
C61    C66     1.466   .     S
C61    O146    1.273   .     A
C61    O142    1.273   .     S
C62    C456    1.404   1_545 S
C63    C72     1.466   .     S
C64    C83     1.466   .     S
C67    C289    1.411   .     A
C67    C93     1.402   .     A
C68    C95     1.402   .     A
C68    C86     1.411   .     S
C69    C96     1.402   .     A
C69    C87     1.411   .     S
C70    C97     1.402   .     A
C70    C496    1.411   .     S
C71    C98     1.402   .     A
C71    C85     1.411   .     S
C72    O143    1.273   .     S
C72    O147    1.273   .     S
C73    C99     1.402   .     A
C73    C290    1.411   .     A
C74    C495    1.411   .     A
C74    C100    1.402   .     A
C75    C88     1.411   .     A
C75    C101    1.402   .     A
C76    C102    1.402   .     A
C76    C89     1.411   .     S
C77    C90     1.411   .     A
C77    C103    1.402   .     A
C78    C308    1.402   1_455 A
C78    C91     1.411   .     A
C79    C92     1.411   .     S
C80    C89     1.411   .     A
C81    C90     1.411   .     S
C82    C91     1.411   .     S
C83    O144    1.273   .     S
C83    O149    1.273   .     S
C84    C211    1.402   1_455 A
C84    C92     1.411   .     A
C85    C86     1.405   .     A
C85    C271    1.411   1_455 A
C86    C277    1.411   1_455 A
C87    C482    1.411   1_545 A
C87    C88     1.405   .     S
C88    C478    1.411   1_545 S
C89    C90     1.405   1_556 S
C90    C89     1.405   1_554 S
C91    C92     1.405   1_556 S
C92    C91     1.405   1_554 S
C93    C99     1.395   .     A
C93    H113    1.084   .     S
C94    O178    1.276   .     A
C94    O150    1.276   .     A
C95    C98     1.395   .     A
C95    H114    1.084   .     S
C96    H115    1.084   .     S
C96    C101    1.395   .     A
C97    C100    1.395   .     A
C97    H117    1.084   .     S
C98    H118    1.084   .     S
C99    H119    1.084   .     S
C100   H120    1.084   .     S
C101   H121    1.084   .     S
C102   H122    1.084   .     S
C102   C5      1.395   1_556 S
C103   H123    1.084   .     S
C103   C4      1.395   1_554 S
C104   C282    1.402   .     A
C104   H124    1.084   .     S
C104   C7      1.395   1_556 S
H108   C257    1.084   .     S
H111   C260    1.084   .     S
O137   Zn200   1.935   .     S
O137   Zn192   1.935   .     S
O137   Zn189   1.935   .     S
O137   Zn604   1.935   1_545 S
O138   Zn191   1.949   .     S
O138   C425    1.273   .     A
O139   C232    1.273   .     A
O139   Zn194   1.949   .     S
O140   Zn193   1.949   .     S
O141   Zn203   1.949   .     S
O142   Zn202   1.949   .     S
O143   Zn197   1.949   .     S
O144   Zn189   1.949   .     S
O145   Zn199   1.949   .     S
O146   Zn198   1.949   .     S
O147   Zn201   1.949   .     S
O148   Zn599   1.935   1_545 S
O148   Zn195   1.935   .     S
O148   Zn197   1.935   .     S
O148   Zn201   1.935   .     S
O149   Zn200   1.949   .     S
O150   Zn192   1.915   .     S
O151   Zn191   1.915   .     S
O152   Zn194   1.915   .     S
O153   Zn193   1.915   .     S
O154   Zn196   1.915   .     S
O155   Zn195   1.915   .     S
O156   Zn190   1.915   .     S
O157   Zn204   1.915   .     S
O158   Zn191   1.915   .     S
O159   Zn398   1.935   1_455 S
O159   Zn198   1.935   .     S
O159   Zn190   1.935   .     S
O159   Zn202   1.935   .     S
O160   Zn192   1.915   .     S
O161   Zn204   1.915   .     S
O162   Zn190   1.915   .     S
O163   Zn195   1.915   .     S
O164   Zn196   1.915   .     S
O165   Zn193   1.915   .     S
O166   Zn194   1.915   .     S
O167   Zn403   1.915   .     S
O168   Zn198   1.915   .     S
O169   Zn609   1.915   .     S
O170   Zn408   1.935   1_455 S
O170   Zn203   1.935   .     S
O170   Zn193   1.935   .     S
O170   Zn199   1.935   .     S
O171   Zn200   1.915   .     S
O172   Zn203   1.915   .     S
O173   Zn406   1.915   .     S
O174   Zn197   1.915   .     S
O175   Zn597   1.915   .     S
O176   Zn402   1.915   .     S
O177   Zn199   1.915   .     S
O178   Zn189   1.915   .     S
O179   Zn605   1.915   .     S
O180   Zn202   1.915   .     S
O181   Zn196   1.949   .     S
O181   C409    1.273   .     A
O182   Zn407   1.915   .     S
O183   Zn608   1.915   .     S
O184   Zn201   1.915   .     S
O185   Zn195   1.949   .     S
O186   Zn190   1.949   .     S
O187   Zn204   1.949   .     S
O187   C243    1.273   .     A
O188   Zn192   1.949   .     S
Zn189  O583    1.915   1_545 S
Zn191  O556    1.935   .     S
Zn194  O363    1.935   .     S
Zn196  O545    1.935   .     S
Zn197  O587    1.915   1_545 S
Zn198  O380    1.915   1_455 S
Zn199  O371    1.915   1_455 S
Zn200  O591    1.915   1_545 S
Zn201  O577    1.915   1_545 S
Zn202  O377    1.915   1_455 S
Zn203  O386    1.915   1_455 S
Zn204  O374    1.935   .     S
C205   C264    1.466   .     S
C205   O793    1.273   1_545 A
C205   O392    1.273   .     S
C206   O383    1.276   .     A
C206   C240    1.422   .     S
C206   O355    1.276   .     A
C207   H329    1.084   .     S
C207   C283    1.402   .     A
C207   C210    1.395   1_554 S
C208   C284    1.402   .     A
C208   H330    1.084   .     S
C208   C307    1.395   1_556 S
C209   C285    1.402   .     A
C209   H332    1.084   .     S
C209   C306    1.395   1_554 S
C210   C286    1.402   .     A
C210   H333    1.084   .     S
C210   C207    1.395   1_556 S
C211   H334    1.084   .     S
C211   C84     1.402   1_655 A
C211   C308    1.395   1_554 S
C212   O356    1.276   .     A
C212   O380    1.276   .     A
C212   C239    1.422   .     S
C213   O357    1.276   .     A
C213   C238    1.422   .     S
C213   O381    1.276   .     A
C214   O358    1.276   .     A
C214   O387    1.276   .     A
C214   C237    1.422   .     S
C215   O359    1.276   .     A
C215   C236    1.422   .     S
C215   O388    1.276   .     A
C216   O360    1.276   .     A
C216   C244    1.422   .     S
C216   O384    1.276   .     A
C217   C242    1.422   .     S
C217   O361    1.276   .     A
C217   O386    1.276   .     A
C218   O362    1.276   .     A
C218   O373    1.276   .     A
C218   C233    1.422   .     S
C219   C231    1.422   .     S
C219   O375    1.276   .     A
C219   O364    1.276   .     A
C220   C230    1.422   .     S
C220   O365    1.276   .     A
C220   O371    1.276   .     A
C221   O750    1.273   1_545 A
C221   C266    1.466   .     S
C221   O389    1.273   .     S
C222   C229    1.422   .     S
C222   O372    1.276   .     A
C222   O366    1.276   .     A
C223   O367    1.276   .     A
C223   C228    1.422   .     S
C223   O378    1.276   .     A
C224   O368    1.276   .     A
C224   C227    1.422   .     S
C224   O379    1.276   .     A
C225   O369    1.276   .     A
C225   C235    1.422   .     S
C225   O376    1.276   .     A
C226   O370    1.276   .     A
C226   O377    1.276   .     A
C226   C234    1.422   .     S
C227   C244    1.198   .     T
C228   C242    1.198   .     T
C229   C241    1.198   .     T
C230   C240    1.198   .     T
C231   C239    1.198   .     T
C232   C262    1.466   .     S
C232   O390    1.273   .     S
C233   C238    1.198   .     T
C234   C237    1.198   .     T
C235   C236    1.198   .     T
C241   C298    1.422   .     S
C243   C263    1.466   .     S
C243   O344    1.273   .     S
C245   C275    1.396   .     A
C245   H309    1.084   .     S
C245   C262    1.404   .     S
C246   C277    1.396   .     A
C246   H320    1.084   .     S
C246   C59     1.404   1_655 A
C247   C278    1.396   .     A
C247   H331    1.084   .     S
C247   C672    1.404   .     A
C248   H335    1.084   .     S
C248   C266    1.404   .     A
C248   C279    1.396   .     A
C249   C271    1.396   .     A
C249   C58     1.404   1_655 A
C249   H336    1.084   .     S
C250   C272    1.396   .     A
C250   H337    1.084   .     S
C250   C263    1.404   .     S
C251   C273    1.396   .     A
C251   H338    1.084   .     S
C251   C264    1.404   .     S
C252   C274    1.396   .     A
C252   H339    1.084   .     S
C252   C674    1.404   .     S
C253   H340    1.084   .     S
C253   C284    1.396   .     A
C253   C267    1.404   .     S
C254   O349    1.273   .     A
C254   O345    1.273   .     A
C254   C269    1.466   .     S
C255   C285    1.396   .     A
C255   H310    1.084   .     S
C255   C268    1.404   .     S
C256   H311    1.084   .     S
C256   C286    1.396   .     A
C256   C269    1.404   .     S
C257   C288    1.396   .     A
C257   C270    1.404   .     A
C258   H313    1.084   .     S
C258   C280    1.396   .     A
C258   C267    1.404   .     A
C259   C281    1.396   .     A
C259   C268    1.404   .     A
C259   H314    1.084   .     S
C260   C282    1.396   .     A
C260   C269    1.404   .     A
C261   C283    1.396   .     A
C261   H316    1.084   .     S
C261   C270    1.404   .     S
C264   C655    1.404   1_545 A
C265   C270    1.466   .     S
C265   O350    1.273   .     A
C265   O346    1.273   .     S
C266   C660    1.404   1_545 S
C267   C276    1.466   .     S
C268   C287    1.466   .     S
C271   C85     1.411   1_655 A
C271   C297    1.402   .     A
C272   C299    1.402   .     A
C272   C290    1.411   .     S
C273   C300    1.402   .     A
C273   C291    1.411   .     S
C274   C301    1.402   .     A
C274   C700    1.411   .     S
C275   C302    1.402   .     A
C275   C289    1.411   .     S
C276   O347    1.273   .     S
C276   O351    1.273   .     S
C277   C303    1.402   .     A
C277   C86     1.411   1_655 A
C278   C699    1.411   .     A
C278   C304    1.402   .     A
C279   C292    1.411   .     A
C279   C305    1.402   .     A
C280   C306    1.402   .     A
C280   C293    1.411   .     S
C281   C294    1.411   .     A
C281   C307    1.402   .     A
C282   C295    1.411   .     A
C283   C296    1.411   .     S
C284   C293    1.411   .     A
C285   C294    1.411   .     S
C286   C295    1.411   .     S
C287   O348    1.273   .     S
C287   O353    1.273   .     S
C288   C296    1.411   .     A
C289   C290    1.405   .     A
C291   C686    1.411   1_545 A
C291   C292    1.405   .     S
C292   C682    1.411   1_545 S
C293   C294    1.405   1_556 S
C294   C293    1.405   1_554 S
C295   C296    1.405   1_556 S
C296   C295    1.405   1_554 S
C297   C303    1.395   .     A
C297   H317    1.084   .     S
C298   O382    1.276   .     A
C298   O354    1.276   .     A
C299   C302    1.395   .     A
C299   H318    1.084   .     S
C300   H319    1.084   .     S
C300   C305    1.395   .     A
C301   C304    1.395   .     A
C301   H321    1.084   .     S
C302   H322    1.084   .     S
C303   H323    1.084   .     S
C304   H324    1.084   .     S
C305   H325    1.084   .     S
C306   H326    1.084   .     S
C306   C209    1.395   1_556 S
C307   H327    1.084   .     S
C307   C208    1.395   1_554 S
C308   C78     1.402   1_655 A
C308   H328    1.084   .     S
C308   C211    1.395   1_556 S
H312   C53     1.084   1_655 S
H315   C56     1.084   1_655 S
O341   Zn404   1.935   .     S
O341   Zn396   1.935   .     S
O341   Zn393   1.935   .     S
O341   Zn808   1.935   1_545 S
O342   Zn395   1.949   .     S
O342   C629    1.273   .     A
O343   C28     1.273   1_655 A
O343   Zn398   1.949   .     S
O344   Zn397   1.949   .     S
O345   Zn407   1.949   .     S
O346   Zn406   1.949   .     S
O347   Zn401   1.949   .     S
O348   Zn393   1.949   .     S
O349   Zn403   1.949   .     S
O350   Zn402   1.949   .     S
O351   Zn405   1.949   .     S
O352   Zn803   1.935   1_545 S
O352   Zn399   1.935   .     S
O352   Zn401   1.935   .     S
O352   Zn405   1.935   .     S
O353   Zn404   1.949   .     S
O354   Zn396   1.915   .     S
O355   Zn395   1.915   .     S
O356   Zn398   1.915   .     S
O357   Zn397   1.915   .     S
O358   Zn400   1.915   .     S
O359   Zn399   1.915   .     S
O360   Zn394   1.915   .     S
O361   Zn408   1.915   .     S
O362   Zn395   1.915   .     S
O363   Zn402   1.935   .     S
O363   Zn394   1.935   .     S
O363   Zn406   1.935   .     S
O364   Zn396   1.915   .     S
O365   Zn408   1.915   .     S
O366   Zn394   1.915   .     S
O367   Zn399   1.915   .     S
O368   Zn400   1.915   .     S
O369   Zn397   1.915   .     S
O370   Zn398   1.915   .     S
O371   Zn199   1.915   1_655 S
O372   Zn402   1.915   .     S
O373   Zn813   1.915   .     S
O374   Zn407   1.935   .     S
O374   Zn397   1.935   .     S
O374   Zn403   1.935   .     S
O375   Zn404   1.915   .     S
O376   Zn407   1.915   .     S
O377   Zn202   1.915   1_655 S
O378   Zn401   1.915   .     S
O379   Zn801   1.915   .     S
O380   Zn198   1.915   1_655 S
O381   Zn403   1.915   .     S
O382   Zn393   1.915   .     S
O383   Zn809   1.915   .     S
O384   Zn406   1.915   .     S
O385   Zn400   1.949   .     S
O385   C613    1.273   .     A
O386   Zn203   1.915   1_655 S
O387   Zn812   1.915   .     S
O388   Zn405   1.915   .     S
O389   Zn399   1.949   .     S
O390   Zn394   1.949   .     S
O391   Zn408   1.949   .     S
O391   C39     1.273   1_655 A
O392   Zn396   1.949   .     S
Zn393  O787    1.915   1_545 S
Zn395  O760    1.935   .     S
Zn398  O159    1.935   1_655 S
Zn400  O749    1.935   .     S
Zn401  O791    1.915   1_545 S
Zn404  O795    1.915   1_545 S
Zn405  O781    1.915   1_545 S
Zn408  O170    1.935   1_655 S
C409   C468    1.466   .     S
C409   O596    1.273   .     S
C410   O587    1.276   .     A
C410   C444    1.422   .     S
C410   O559    1.276   .     A
C411   H533    1.084   .     S
C411   C487    1.402   .     A
C411   C414    1.395   1_554 S
C412   C488    1.402   .     A
C412   H534    1.084   .     S
C412   C511    1.395   1_556 S
C413   C489    1.402   .     A
C413   H536    1.084   .     S
C413   C510    1.395   1_554 S
C414   C490    1.402   .     A
C414   H537    1.084   .     S
C414   C411    1.395   1_556 S
C415   H538    1.084   .     S
C415   C696    1.402   .     A
C415   C512    1.395   1_554 S
C416   O560    1.276   .     A
C416   O584    1.276   .     A
C416   C443    1.422   .     S
C417   O561    1.276   .     A
C417   C442    1.422   .     S
C417   O585    1.276   .     A
C418   O562    1.276   .     A
C418   O591    1.276   .     A
C418   C441    1.422   .     S
C419   O563    1.276   .     A
C419   C440    1.422   .     S
C419   O592    1.276   .     A
C420   O564    1.276   .     A
C420   C448    1.422   .     S
C420   O588    1.276   .     A
C421   C446    1.422   .     S
C421   O565    1.276   .     A
C421   O590    1.276   .     A
C422   O566    1.276   .     A
C422   O577    1.276   .     A
C422   C437    1.422   .     S
C423   C435    1.422   .     S
C423   O579    1.276   .     A
C423   O568    1.276   .     A
C424   C434    1.422   .     S
C424   O569    1.276   .     A
C424   O575    1.276   .     A
C425   C470    1.466   .     S
C425   O593    1.273   .     S
C426   C433    1.422   .     S
C426   O576    1.276   .     A
C426   O570    1.276   .     A
C427   O571    1.276   .     A
C427   C432    1.422   .     S
C427   O582    1.276   .     A
C428   O572    1.276   .     A
C428   C431    1.422   .     S
C428   O583    1.276   .     A
C429   O573    1.276   .     A
C429   C439    1.422   .     S
C429   O580    1.276   .     A
C430   O574    1.276   .     A
C430   O581    1.276   .     A
C430   C438    1.422   .     S
C431   C448    1.198   .     T
C432   C446    1.198   .     T
C433   C445    1.198   .     T
C434   C444    1.198   .     T
C435   C443    1.198   .     T
C436   O751    1.273   1_455 A
C436   C466    1.466   .     S
C436   O594    1.273   .     S
C437   C442    1.198   .     T
C438   C441    1.198   .     T
C439   C440    1.198   .     T
C445   C502    1.422   .     S
C447   C467    1.466   .     S
C447   O799    1.273   1_455 A
C447   O548    1.273   .     S
C449   C479    1.396   .     A
C449   H513    1.084   .     S
C449   C466    1.404   .     S
C450   C481    1.396   .     A
C450   H524    1.084   .     S
C450   C671    1.404   .     A
C451   C482    1.396   .     A
C451   H535    1.084   .     S
C451   C60     1.404   1_565 A
C452   H539    1.084   .     S
C452   C470    1.404   .     A
C452   C483    1.396   .     A
C453   C475    1.396   .     A
C453   C670    1.404   .     A
C453   H540    1.084   .     S
C454   C476    1.396   .     A
C454   H541    1.084   .     S
C454   C467    1.404   .     S
C455   C477    1.396   .     A
C455   H542    1.084   .     S
C455   C468    1.404   .     S
C456   C478    1.396   .     A
C456   H543    1.084   .     S
C456   C62     1.404   1_565 S
C457   H544    1.084   .     S
C457   C488    1.396   .     A
C457   C471    1.404   .     S
C458   O553    1.273   .     A
C458   O549    1.273   .     A
C458   C473    1.466   .     S
C459   C489    1.396   .     A
C459   H514    1.084   .     S
C459   C472    1.404   .     S
C460   H515    1.084   .     S
C460   C490    1.396   .     A
C460   C473    1.404   .     S
C461   C492    1.396   .     A
C461   C474    1.404   .     A
C461   H720    1.084   1_455 S
C462   H517    1.084   .     S
C462   C484    1.396   .     A
C462   C471    1.404   .     A
C463   C485    1.396   .     A
C463   C472    1.404   .     A
C463   H518    1.084   .     S
C464   C486    1.396   .     A
C464   H723    1.084   1_455 S
C464   C473    1.404   .     A
C465   C487    1.396   .     A
C465   H520    1.084   .     S
C465   C474    1.404   .     S
C466   C657    1.404   1_455 A
C467   C654    1.404   1_455 A
C469   C474    1.466   .     S
C469   O554    1.273   .     A
C469   O550    1.273   .     S
C471   C480    1.466   .     S
C472   C491    1.466   .     S
C475   C697    1.411   .     A
C475   C501    1.402   .     A
C476   C503    1.402   .     A
C476   C494    1.411   .     S
C477   C504    1.402   .     A
C477   C495    1.411   .     S
C478   C505    1.402   .     A
C478   C88     1.411   1_565 S
C479   C506    1.402   .     A
C479   C493    1.411   .     S
C480   O551    1.273   .     S
C480   O555    1.273   .     S
C481   C507    1.402   .     A
C481   C698    1.411   .     A
C482   C87     1.411   1_565 A
C482   C508    1.402   .     A
C483   C496    1.411   .     A
C483   C509    1.402   .     A
C484   C510    1.402   .     A
C484   C497    1.411   .     S
C485   C498    1.411   .     A
C485   C511    1.402   .     A
C486   C716    1.402   1_455 A
C486   C499    1.411   .     A
C487   C500    1.411   .     S
C488   C497    1.411   .     A
C489   C498    1.411   .     S
C490   C499    1.411   .     S
C491   O552    1.273   .     S
C491   O557    1.273   .     S
C492   C619    1.402   1_455 A
C492   C500    1.411   .     A
C493   C494    1.405   .     A
C493   C679    1.411   1_455 A
C494   C685    1.411   1_455 A
C495   C496    1.405   .     S
C497   C498    1.405   1_556 S
C498   C497    1.405   1_554 S
C499   C500    1.405   1_556 S
C500   C499    1.405   1_554 S
C501   C507    1.395   .     A
C501   H521    1.084   .     S
C502   O586    1.276   .     A
C502   O558    1.276   .     A
C503   C506    1.395   .     A
C503   H522    1.084   .     S
C504   H523    1.084   .     S
C504   C509    1.395   .     A
C505   C508    1.395   .     A
C505   H525    1.084   .     S
C506   H526    1.084   .     S
C507   H527    1.084   .     S
C508   H528    1.084   .     S
C509   H529    1.084   .     S
C510   H530    1.084   .     S
C510   C413    1.395   1_556 S
C511   H531    1.084   .     S
C511   C412    1.395   1_554 S
C512   C690    1.402   .     A
C512   H532    1.084   .     S
C512   C415    1.395   1_556 S
H516   C665    1.084   .     S
H519   C668    1.084   .     S
O545   Zn608   1.935   .     S
O545   Zn600   1.935   .     S
O545   Zn597   1.935   .     S
O546   Zn599   1.949   .     S
O546   C17     1.273   1_565 A
O547   C640    1.273   .     A
O547   Zn602   1.949   .     S
O548   Zn601   1.949   .     S
O549   Zn611   1.949   .     S
O550   Zn610   1.949   .     S
O551   Zn605   1.949   .     S
O552   Zn597   1.949   .     S
O553   Zn607   1.949   .     S
O554   Zn606   1.949   .     S
O555   Zn609   1.949   .     S
O556   Zn603   1.935   .     S
O556   Zn605   1.935   .     S
O556   Zn609   1.935   .     S
O557   Zn608   1.949   .     S
O558   Zn600   1.915   .     S
O559   Zn599   1.915   .     S
O560   Zn602   1.915   .     S
O561   Zn601   1.915   .     S
O562   Zn604   1.915   .     S
O563   Zn603   1.915   .     S
O564   Zn598   1.915   .     S
O565   Zn612   1.915   .     S
O566   Zn599   1.915   .     S
O567   Zn806   1.935   1_455 S
O567   Zn606   1.935   .     S
O567   Zn598   1.935   .     S
O567   Zn610   1.935   .     S
O568   Zn600   1.915   .     S
O569   Zn612   1.915   .     S
O570   Zn598   1.915   .     S
O571   Zn603   1.915   .     S
O572   Zn604   1.915   .     S
O573   Zn601   1.915   .     S
O574   Zn602   1.915   .     S
O575   Zn811   1.915   .     S
O576   Zn606   1.915   .     S
O577   Zn201   1.915   1_565 S
O578   Zn816   1.935   1_455 S
O578   Zn611   1.935   .     S
O578   Zn601   1.935   .     S
O578   Zn607   1.935   .     S
O579   Zn608   1.915   .     S
O580   Zn611   1.915   .     S
O581   Zn814   1.915   .     S
O582   Zn605   1.915   .     S
O583   Zn189   1.915   1_565 S
O584   Zn810   1.915   .     S
O585   Zn607   1.915   .     S
O586   Zn597   1.915   .     S
O587   Zn197   1.915   1_565 S
O588   Zn610   1.915   .     S
O589   Zn604   1.949   .     S
O589   C1      1.273   1_565 A
O590   Zn815   1.915   .     S
O591   Zn200   1.915   1_565 S
O592   Zn609   1.915   .     S
O593   Zn603   1.949   .     S
O594   Zn598   1.949   .     S
O595   Zn612   1.949   .     S
O595   C651    1.273   .     A
O596   Zn600   1.949   .     S
Zn599  O148    1.935   1_565 S
Zn602  O771    1.935   .     S
Zn604  O137    1.935   1_565 S
Zn606  O788    1.915   1_455 S
Zn607  O779    1.915   1_455 S
Zn610  O785    1.915   1_455 S
Zn611  O794    1.915   1_455 S
Zn612  O782    1.935   .     S
C613   C672    1.466   .     S
C613   O800    1.273   .     S
C614   O791    1.276   .     A
C614   C648    1.422   .     S
C614   O763    1.276   .     A
C615   H737    1.084   .     S
C615   C691    1.402   .     A
C615   C618    1.395   1_554 S
C616   C692    1.402   .     A
C616   H738    1.084   .     S
C616   C715    1.395   1_556 S
C617   C693    1.402   .     A
C617   H740    1.084   .     S
C617   C714    1.395   1_554 S
C618   C694    1.402   .     A
C618   H741    1.084   .     S
C618   C615    1.395   1_556 S
C619   H742    1.084   .     S
C619   C492    1.402   1_655 A
C619   C716    1.395   1_554 S
C620   O764    1.276   .     A
C620   O788    1.276   .     A
C620   C647    1.422   .     S
C621   O765    1.276   .     A
C621   C646    1.422   .     S
C621   O789    1.276   .     A
C622   O766    1.276   .     A
C622   O795    1.276   .     A
C622   C645    1.422   .     S
C623   O767    1.276   .     A
C623   C644    1.422   .     S
C623   O796    1.276   .     A
C624   O768    1.276   .     A
C624   C652    1.422   .     S
C624   O792    1.276   .     A
C625   C650    1.422   .     S
C625   O769    1.276   .     A
C625   O794    1.276   .     A
C626   O770    1.276   .     A
C626   O781    1.276   .     A
C626   C641    1.422   .     S
C627   C639    1.422   .     S
C627   O783    1.276   .     A
C627   O772    1.276   .     A
C628   C638    1.422   .     S
C628   O773    1.276   .     A
C628   O779    1.276   .     A
C629   C674    1.466   .     S
C629   O797    1.273   .     S
C630   C637    1.422   .     S
C630   O780    1.276   .     A
C630   O774    1.276   .     A
C631   O775    1.276   .     A
C631   C636    1.422   .     S
C631   O786    1.276   .     A
C632   O776    1.276   .     A
C632   C635    1.422   .     S
C632   O787    1.276   .     A
C633   O777    1.276   .     A
C633   C643    1.422   .     S
C633   O784    1.276   .     A
C634   O778    1.276   .     A
C634   O785    1.276   .     A
C634   C642    1.422   .     S
C635   C652    1.198   .     T
C636   C650    1.198   .     T
C637   C649    1.198   .     T
C638   C648    1.198   .     T
C639   C647    1.198   .     T
C640   C670    1.466   .     S
C640   O798    1.273   .     S
C641   C646    1.198   .     T
C642   C645    1.198   .     T
C643   C644    1.198   .     T
C649   C706    1.422   .     S
C651   C671    1.466   .     S
C651   O752    1.273   .     S
C653   C683    1.396   .     A
C653   H717    1.084   .     S
C653   C670    1.404   .     S
C654   C685    1.396   .     A
C654   H728    1.084   .     S
C654   C467    1.404   1_655 A
C655   C686    1.396   .     A
C655   H739    1.084   .     S
C655   C264    1.404   1_565 A
C656   H743    1.084   .     S
C656   C674    1.404   .     A
C656   C687    1.396   .     A
C657   C679    1.396   .     A
C657   C466    1.404   1_655 A
C657   H744    1.084   .     S
C658   C680    1.396   .     A
C658   H745    1.084   .     S
C658   C671    1.404   .     S
C659   C681    1.396   .     A
C659   H746    1.084   .     S
C659   C672    1.404   .     S
C660   C682    1.396   .     A
C660   H747    1.084   .     S
C660   C266    1.404   1_565 S
C661   H748    1.084   .     S
C661   C692    1.396   .     A
C661   C675    1.404   .     S
C662   O757    1.273   .     A
C662   O753    1.273   .     A
C662   C677    1.466   .     S
C663   C693    1.396   .     A
C663   H718    1.084   .     S
C663   C676    1.404   .     S
C664   H719    1.084   .     S
C664   C694    1.396   .     A
C664   C677    1.404   .     S
C665   C696    1.396   .     A
C665   C678    1.404   .     A
C666   H721    1.084   .     S
C666   C688    1.396   .     A
C666   C675    1.404   .     A
C667   C689    1.396   .     A
C667   C676    1.404   .     A
C667   H722    1.084   .     S
C668   C690    1.396   .     A
C668   C677    1.404   .     A
C669   C691    1.396   .     A
C669   H724    1.084   .     S
C669   C678    1.404   .     S
C673   C678    1.466   .     S
C673   O758    1.273   .     A
C673   O754    1.273   .     S
C675   C684    1.466   .     S
C676   C695    1.466   .     S
C679   C493    1.411   1_655 A
C679   C705    1.402   .     A
C680   C707    1.402   .     A
C680   C698    1.411   .     S
C681   C708    1.402   .     A
C681   C699    1.411   .     S
C682   C709    1.402   .     A
C682   C292    1.411   1_565 S
C683   C710    1.402   .     A
C683   C697    1.411   .     S
C684   O755    1.273   .     S
C684   O759    1.273   .     S
C685   C711    1.402   .     A
C685   C494    1.411   1_655 A
C686   C291    1.411   1_565 A
C686   C712    1.402   .     A
C687   C700    1.411   .     A
C687   C713    1.402   .     A
C688   C714    1.402   .     A
C688   C701    1.411   .     S
C689   C702    1.411   .     A
C689   C715    1.402   .     A
C690   C703    1.411   .     A
C691   C704    1.411   .     S
C692   C701    1.411   .     A
C693   C702    1.411   .     S
C694   C703    1.411   .     S
C695   O756    1.273   .     S
C695   O761    1.273   .     S
C696   C704    1.411   .     A
C697   C698    1.405   .     A
C699   C700    1.405   .     S
C701   C702    1.405   1_556 S
C702   C701    1.405   1_554 S
C703   C704    1.405   1_556 S
C704   C703    1.405   1_554 S
C705   C711    1.395   .     A
C705   H725    1.084   .     S
C706   O790    1.276   .     A
C706   O762    1.276   .     A
C707   C710    1.395   .     A
C707   H726    1.084   .     S
C708   H727    1.084   .     S
C708   C713    1.395   .     A
C709   C712    1.395   .     A
C709   H729    1.084   .     S
C710   H730    1.084   .     S
C711   H731    1.084   .     S
C712   H732    1.084   .     S
C713   H733    1.084   .     S
C714   H734    1.084   .     S
C714   C617    1.395   1_556 S
C715   H735    1.084   .     S
C715   C616    1.395   1_554 S
C716   C486    1.402   1_655 A
C716   H736    1.084   .     S
C716   C619    1.395   1_556 S
H720   C461    1.084   1_655 S
H723   C464    1.084   1_655 S
O749   Zn812   1.935   .     S
O749   Zn804   1.935   .     S
O749   Zn801   1.935   .     S
O750   Zn803   1.949   .     S
O750   C221    1.273   1_565 A
O751   C436    1.273   1_655 A
O751   Zn806   1.949   .     S
O752   Zn805   1.949   .     S
O753   Zn815   1.949   .     S
O754   Zn814   1.949   .     S
O755   Zn809   1.949   .     S
O756   Zn801   1.949   .     S
O757   Zn811   1.949   .     S
O758   Zn810   1.949   .     S
O759   Zn813   1.949   .     S
O760   Zn807   1.935   .     S
O760   Zn809   1.935   .     S
O760   Zn813   1.935   .     S
O761   Zn812   1.949   .     S
O762   Zn804   1.915   .     S
O763   Zn803   1.915   .     S
O764   Zn806   1.915   .     S
O765   Zn805   1.915   .     S
O766   Zn808   1.915   .     S
O767   Zn807   1.915   .     S
O768   Zn802   1.915   .     S
O769   Zn816   1.915   .     S
O770   Zn803   1.915   .     S
O771   Zn810   1.935   .     S
O771   Zn802   1.935   .     S
O771   Zn814   1.935   .     S
O772   Zn804   1.915   .     S
O773   Zn816   1.915   .     S
O774   Zn802   1.915   .     S
O775   Zn807   1.915   .     S
O776   Zn808   1.915   .     S
O777   Zn805   1.915   .     S
O778   Zn806   1.915   .     S
O779   Zn607   1.915   1_655 S
O780   Zn810   1.915   .     S
O781   Zn405   1.915   1_565 S
O782   Zn815   1.935   .     S
O782   Zn805   1.935   .     S
O782   Zn811   1.935   .     S
O783   Zn812   1.915   .     S
O784   Zn815   1.915   .     S
O785   Zn610   1.915   1_655 S
O786   Zn809   1.915   .     S
O787   Zn393   1.915   1_565 S
O788   Zn606   1.915   1_655 S
O789   Zn811   1.915   .     S
O790   Zn801   1.915   .     S
O791   Zn401   1.915   1_565 S
O792   Zn814   1.915   .     S
O793   Zn808   1.949   .     S
O793   C205    1.273   1_565 A
O794   Zn611   1.915   1_655 S
O795   Zn404   1.915   1_565 S
O796   Zn813   1.915   .     S
O797   Zn807   1.949   .     S
O798   Zn802   1.949   .     S
O799   Zn816   1.949   .     S
O799   C447    1.273   1_655 A
O800   Zn804   1.949   .     S
Zn803  O352    1.935   1_565 S
Zn806  O567    1.935   1_655 S
Zn808  O341    1.935   1_565 S
Zn816  O578    1.935   1_655 S
