data_str_m2_o1_o2_pcu_sym.52
_audit_creation_date              2020-01-03
_audit_creation_method            'Materials Studio'
_symmetry_space_group_name_H-M    'P1'
_symmetry_Int_Tables_number       1
_symmetry_cell_setting            triclinic
loop_
_symmetry_equiv_pos_as_xyz
  x,y,z
_cell_length_a                    32.8620
_cell_length_b                    28.4793
_cell_length_c                    30.3455
_cell_angle_alpha                 89.7219
_cell_angle_beta                  90.3706
_cell_angle_gamma                 90.8725
loop_
_atom_site_label
_atom_site_type_symbol
_atom_site_fract_x
_atom_site_fract_y
_atom_site_fract_z
_atom_site_U_iso_or_equiv
_atom_site_adp_type
_atom_site_occupancy
C1     C     0.08740   0.16627   0.25145   0.00000  Uiso   1.00
C2     C     0.31331   0.20938   0.25667   0.00000  Uiso   1.00
C3     C     0.31137   0.12459   0.24381   0.00000  Uiso   1.00
C4     C     0.02225   0.20827   0.25975   0.00000  Uiso   1.00
C5     C     0.19567   0.18909   0.04785   0.00000  Uiso   1.00
C6     C     0.14864   0.12773   0.45304   0.00000  Uiso   1.00
C7     C     0.17816   0.20595   0.45333   0.00000  Uiso   1.00
C8     C     0.13263   0.14384   0.04886   0.00000  Uiso   1.00
C9     C     0.19580   0.19111   0.09370   0.00000  Uiso   1.00
C10    C     0.14959   0.12711   0.40705   0.00000  Uiso   1.00
C11    C     0.18095   0.20555   0.40753   0.00000  Uiso   1.00
C12    C     0.24602   0.16702   0.24951   0.00000  Uiso   1.00
C13    C     0.13322   0.14370   0.09489   0.00000  Uiso   1.00
C14    C     0.16506   0.16735   0.11733   0.00000  Uiso   1.00
C15    C     0.16602   0.16618   0.38375   0.00000  Uiso   1.00
C16    C     0.16378   0.16643   0.02505   0.00000  Uiso   1.00
C17    C     0.16315   0.16680   0.47645   0.00000  Uiso   1.00
C18    C     0.29073   0.16733   0.24953   0.00000  Uiso   1.00
C19    C     0.04281   0.16568   0.25325   0.00000  Uiso   1.00
C20    C     0.22127   0.26668   0.11642   0.00000  Uiso   1.00
C21    C     0.15700   0.04596   0.38666   0.00000  Uiso   1.00
C22    C     0.24321   0.23767   0.37829   0.00000  Uiso   1.00
C23    C     0.16644   0.16682   0.16520   0.00000  Uiso   1.00
C24    C     0.06939   0.15147   0.13266   0.00000  Uiso   1.00
C25    C     0.04825   0.05544   0.28569   0.00000  Uiso   1.00
C26    C     0.28727   0.27923   0.22005   0.00000  Uiso   1.00
C27    C     0.28431   0.07418   0.18660   0.00000  Uiso   1.00
C28    C     0.05074   0.25693   0.31756   0.00000  Uiso   1.00
C29    C     0.16658   0.16652   0.33518   0.00000  Uiso   1.00
C30    C     0.14271   0.02454   0.22109   0.00000  Uiso   1.00
C31    C     0.19070   0.30883   0.27876   0.00000  Uiso   1.00
C32    C     0.19103   0.02513   0.27846   0.00000  Uiso   1.00
C33    C     0.14264   0.30821   0.22114   0.00000  Uiso   1.00
C34    C     0.02027   0.12345   0.24723   0.00000  Uiso   1.00
Cu35   Cu    0.16667   0.21355   0.25000   0.00000  Uiso   1.00
Cu36   Cu    0.16667   0.11978   0.25000   0.00000  Uiso   1.00
H37    H     0.12369   0.04308   0.19782   0.00000  Uiso   1.00
H38    H     0.22092   0.28098   0.08227   0.00000  Uiso   1.00
H39    H     0.24647   0.28415   0.13478   0.00000  Uiso   1.00
H40    H     0.19215   0.27500   0.13283   0.00000  Uiso   1.00
H41    H     0.10271   0.08084   0.39302   0.00000  Uiso   1.00
H42    H     0.15739   0.03150   0.42074   0.00000  Uiso   1.00
H43    H     0.18870   0.05405   0.37629   0.00000  Uiso   1.00
H44    H     0.14390   0.01890   0.36425   0.00000  Uiso   1.00
H45    H     0.19476   0.27620   0.40063   0.00000  Uiso   1.00
H46    H     0.25952   0.23177   0.40999   0.00000  Uiso   1.00
H47    H     0.25641   0.26956   0.36242   0.00000  Uiso   1.00
H48    H     0.20979   0.29037   0.30186   0.00000  Uiso   1.00
H49    H     0.24781   0.20724   0.35619   0.00000  Uiso   1.00
H50    H     0.08969   0.09124   0.10271   0.00000  Uiso   1.00
H51    H     0.05374   0.16707   0.10363   0.00000  Uiso   1.00
H52    H     0.08205   0.18002   0.15369   0.00000  Uiso   1.00
H53    H     0.04670   0.13115   0.15221   0.00000  Uiso   1.00
H54    H     0.05784   0.07289   0.21801   0.00000  Uiso   1.00
H55    H     0.03070   0.02200   0.28745   0.00000  Uiso   1.00
H56    H     0.03999   0.07716   0.31457   0.00000  Uiso   1.00
H57    H     0.08121   0.04768   0.28781   0.00000  Uiso   1.00
H58    H     0.27421   0.25812   0.28592   0.00000  Uiso   1.00
H59    H     0.21081   0.04412   0.30096   0.00000  Uiso   1.00
H60    H     0.30538   0.31229   0.22032   0.00000  Uiso   1.00
H61    H     0.25455   0.28776   0.21691   0.00000  Uiso   1.00
H62    H     0.29637   0.25865   0.19074   0.00000  Uiso   1.00
H63    H     0.29872   0.05304   0.25064   0.00000  Uiso   1.00
H64    H     0.31410   0.06707   0.17106   0.00000  Uiso   1.00
H65    H     0.27029   0.10515   0.17044   0.00000  Uiso   1.00
H66    H     0.26369   0.04341   0.18153   0.00000  Uiso   1.00
H67    H     0.03465   0.28018   0.25472   0.00000  Uiso   1.00
H68    H     0.02134   0.26306   0.33432   0.00000  Uiso   1.00
H69    H     0.07119   0.28781   0.32287   0.00000  Uiso   1.00
H70    H     0.12339   0.28921   0.19809   0.00000  Uiso   1.00
H71    H     0.06553   0.22564   0.33227   0.00000  Uiso   1.00
H72    H     0.22063   0.20564   0.03020   0.00000  Uiso   1.00
H73    H     0.13706   0.09705   0.47035   0.00000  Uiso   1.00
H74    H     0.18869   0.23693   0.47083   0.00000  Uiso   1.00
H75    H     0.10724   0.12713   0.03188   0.00000  Uiso   1.00
H76    H     0.25597   0.20826   0.10475   0.00000  Uiso   1.00
N77    N     0.16667   0.28402   0.25000   0.00000  Uiso   1.00
N78    N     0.04409   0.25032   0.27082   0.00000  Uiso   1.00
N79    N     0.16667   0.04931   0.25000   0.00000  Uiso   1.00
N80    N     0.22736   0.21644   0.11592   0.00000  Uiso   1.00
N81    N     0.13254   0.08773   0.38446   0.00000  Uiso   1.00
N82    N     0.20027   0.24431   0.38599   0.00000  Uiso   1.00
N83    N     0.10127   0.12061   0.11844   0.00000  Uiso   1.00
N84    N     0.03906   0.07886   0.24438   0.00000  Uiso   1.00
N85    N     0.29457   0.25382   0.26072   0.00000  Uiso   1.00
N86    N     0.28967   0.08231   0.23332   0.00000  Uiso   1.00
O87    O     0.10655   0.20625   0.24999   0.00000  Uiso   1.00
O88    O     0.22679   0.12709   0.25001   0.00000  Uiso   1.00
O89    O     0.22679   0.20625   0.25001   0.00000  Uiso   1.00
O90    O     0.10655   0.12709   0.24999   0.00000  Uiso   1.00
O91    O     0.16666   0.20626   0.18573   0.00000  Uiso   1.00
O92    O     0.16667   0.12707   0.31427   0.00000  Uiso   1.00
O93    O     0.16667   0.20626   0.31427   0.00000  Uiso   1.00
O94    O     0.16666   0.12707   0.18573   0.00000  Uiso   1.00
C95    C     0.42073   0.16627   0.25145   0.00000  Uiso   1.00
C96    C     0.64664   0.20938   0.25667   0.00000  Uiso   1.00
C97    C     0.64470   0.12459   0.24381   0.00000  Uiso   1.00
C98    C     0.35558   0.20827   0.25975   0.00000  Uiso   1.00
C99    C     0.52901   0.18909   0.04785   0.00000  Uiso   1.00
C100   C     0.48197   0.12773   0.45304   0.00000  Uiso   1.00
C101   C     0.51150   0.20595   0.45333   0.00000  Uiso   1.00
C102   C     0.46596   0.14384   0.04886   0.00000  Uiso   1.00
C103   C     0.52913   0.19111   0.09370   0.00000  Uiso   1.00
C104   C     0.48292   0.12711   0.40705   0.00000  Uiso   1.00
C105   C     0.51428   0.20555   0.40753   0.00000  Uiso   1.00
C106   C     0.57935   0.16702   0.24951   0.00000  Uiso   1.00
C107   C     0.46655   0.14370   0.09489   0.00000  Uiso   1.00
C108   C     0.49839   0.16735   0.11733   0.00000  Uiso   1.00
C109   C     0.49936   0.16618   0.38375   0.00000  Uiso   1.00
C110   C     0.49712   0.16643   0.02505   0.00000  Uiso   1.00
C111   C     0.49648   0.16680   0.47645   0.00000  Uiso   1.00
C112   C     0.62406   0.16733   0.24953   0.00000  Uiso   1.00
C113   C     0.37615   0.16568   0.25325   0.00000  Uiso   1.00
C114   C     0.55461   0.26668   0.11642   0.00000  Uiso   1.00
C115   C     0.49034   0.04596   0.38666   0.00000  Uiso   1.00
C116   C     0.57654   0.23767   0.37829   0.00000  Uiso   1.00
C117   C     0.49977   0.16682   0.16520   0.00000  Uiso   1.00
C118   C     0.40272   0.15147   0.13266   0.00000  Uiso   1.00
C119   C     0.38159   0.05544   0.28569   0.00000  Uiso   1.00
C120   C     0.62060   0.27923   0.22005   0.00000  Uiso   1.00
C121   C     0.61764   0.07418   0.18660   0.00000  Uiso   1.00
C122   C     0.38408   0.25693   0.31756   0.00000  Uiso   1.00
C123   C     0.49991   0.16652   0.33518   0.00000  Uiso   1.00
C124   C     0.47604   0.02454   0.22109   0.00000  Uiso   1.00
C125   C     0.52404   0.30883   0.27876   0.00000  Uiso   1.00
C126   C     0.52436   0.02513   0.27846   0.00000  Uiso   1.00
C127   C     0.47597   0.30821   0.22114   0.00000  Uiso   1.00
C128   C     0.35360   0.12345   0.24723   0.00000  Uiso   1.00
Cu129  Cu    0.50000   0.21355   0.25000   0.00000  Uiso   1.00
Cu130  Cu    0.50000   0.11978   0.25000   0.00000  Uiso   1.00
H131   H     0.45703   0.04308   0.19782   0.00000  Uiso   1.00
H132   H     0.55425   0.28098   0.08227   0.00000  Uiso   1.00
H133   H     0.57980   0.28415   0.13478   0.00000  Uiso   1.00
H134   H     0.52549   0.27500   0.13283   0.00000  Uiso   1.00
H135   H     0.43604   0.08084   0.39302   0.00000  Uiso   1.00
H136   H     0.49072   0.03150   0.42074   0.00000  Uiso   1.00
H137   H     0.52204   0.05405   0.37629   0.00000  Uiso   1.00
H138   H     0.47723   0.01890   0.36425   0.00000  Uiso   1.00
H139   H     0.52809   0.27620   0.40063   0.00000  Uiso   1.00
H140   H     0.59286   0.23177   0.40999   0.00000  Uiso   1.00
H141   H     0.58975   0.26956   0.36242   0.00000  Uiso   1.00
H142   H     0.54313   0.29037   0.30186   0.00000  Uiso   1.00
H143   H     0.58114   0.20724   0.35619   0.00000  Uiso   1.00
H144   H     0.42303   0.09124   0.10271   0.00000  Uiso   1.00
H145   H     0.38708   0.16707   0.10363   0.00000  Uiso   1.00
H146   H     0.41538   0.18002   0.15369   0.00000  Uiso   1.00
H147   H     0.38003   0.13115   0.15221   0.00000  Uiso   1.00
H148   H     0.39117   0.07289   0.21801   0.00000  Uiso   1.00
H149   H     0.36403   0.02200   0.28745   0.00000  Uiso   1.00
H150   H     0.37333   0.07716   0.31457   0.00000  Uiso   1.00
H151   H     0.41454   0.04768   0.28781   0.00000  Uiso   1.00
H152   H     0.60754   0.25812   0.28592   0.00000  Uiso   1.00
H153   H     0.54414   0.04412   0.30096   0.00000  Uiso   1.00
H154   H     0.63871   0.31229   0.22032   0.00000  Uiso   1.00
H155   H     0.58788   0.28776   0.21691   0.00000  Uiso   1.00
H156   H     0.62971   0.25865   0.19074   0.00000  Uiso   1.00
H157   H     0.63205   0.05304   0.25064   0.00000  Uiso   1.00
H158   H     0.64743   0.06707   0.17106   0.00000  Uiso   1.00
H159   H     0.60363   0.10515   0.17044   0.00000  Uiso   1.00
H160   H     0.59703   0.04341   0.18153   0.00000  Uiso   1.00
H161   H     0.36799   0.28018   0.25472   0.00000  Uiso   1.00
H162   H     0.35467   0.26306   0.33432   0.00000  Uiso   1.00
H163   H     0.40452   0.28781   0.32287   0.00000  Uiso   1.00
H164   H     0.45673   0.28921   0.19809   0.00000  Uiso   1.00
H165   H     0.39886   0.22564   0.33227   0.00000  Uiso   1.00
H166   H     0.55396   0.20564   0.03020   0.00000  Uiso   1.00
H167   H     0.47039   0.09705   0.47035   0.00000  Uiso   1.00
H168   H     0.52203   0.23693   0.47083   0.00000  Uiso   1.00
H169   H     0.44058   0.12713   0.03188   0.00000  Uiso   1.00
H170   H     0.58930   0.20826   0.10475   0.00000  Uiso   1.00
N171   N     0.50000   0.28402   0.25000   0.00000  Uiso   1.00
N172   N     0.37743   0.25032   0.27082   0.00000  Uiso   1.00
N173   N     0.50000   0.04931   0.25000   0.00000  Uiso   1.00
N174   N     0.56070   0.21644   0.11592   0.00000  Uiso   1.00
N175   N     0.46587   0.08773   0.38446   0.00000  Uiso   1.00
N176   N     0.53361   0.24431   0.38599   0.00000  Uiso   1.00
N177   N     0.43461   0.12061   0.11844   0.00000  Uiso   1.00
N178   N     0.37240   0.07886   0.24438   0.00000  Uiso   1.00
N179   N     0.62790   0.25382   0.26072   0.00000  Uiso   1.00
N180   N     0.62301   0.08231   0.23332   0.00000  Uiso   1.00
O181   O     0.43988   0.20625   0.24999   0.00000  Uiso   1.00
O182   O     0.56012   0.12709   0.25001   0.00000  Uiso   1.00
O183   O     0.56012   0.20625   0.25001   0.00000  Uiso   1.00
O184   O     0.43988   0.12709   0.24999   0.00000  Uiso   1.00
O185   O     0.50000   0.20626   0.18573   0.00000  Uiso   1.00
O186   O     0.50000   0.12707   0.31427   0.00000  Uiso   1.00
O187   O     0.50000   0.20626   0.31427   0.00000  Uiso   1.00
O188   O     0.50000   0.12707   0.18573   0.00000  Uiso   1.00
C189   C     0.75406   0.16627   0.25145   0.00000  Uiso   1.00
C190   C     0.97998   0.20938   0.25667   0.00000  Uiso   1.00
C191   C     0.97804   0.12459   0.24381   0.00000  Uiso   1.00
C192   C     0.68891   0.20827   0.25975   0.00000  Uiso   1.00
C193   C     0.86234   0.18909   0.04785   0.00000  Uiso   1.00
C194   C     0.81531   0.12773   0.45304   0.00000  Uiso   1.00
C195   C     0.84483   0.20595   0.45333   0.00000  Uiso   1.00
C196   C     0.79930   0.14384   0.04886   0.00000  Uiso   1.00
C197   C     0.86247   0.19111   0.09370   0.00000  Uiso   1.00
C198   C     0.81625   0.12711   0.40705   0.00000  Uiso   1.00
C199   C     0.84761   0.20555   0.40753   0.00000  Uiso   1.00
C200   C     0.91269   0.16702   0.24951   0.00000  Uiso   1.00
C201   C     0.79988   0.14370   0.09489   0.00000  Uiso   1.00
C202   C     0.83172   0.16735   0.11733   0.00000  Uiso   1.00
C203   C     0.83269   0.16618   0.38375   0.00000  Uiso   1.00
C204   C     0.83045   0.16643   0.02505   0.00000  Uiso   1.00
C205   C     0.82981   0.16680   0.47645   0.00000  Uiso   1.00
C206   C     0.95740   0.16733   0.24953   0.00000  Uiso   1.00
C207   C     0.70948   0.16568   0.25325   0.00000  Uiso   1.00
C208   C     0.88794   0.26668   0.11642   0.00000  Uiso   1.00
C209   C     0.82367   0.04596   0.38666   0.00000  Uiso   1.00
C210   C     0.90987   0.23767   0.37829   0.00000  Uiso   1.00
C211   C     0.83311   0.16682   0.16520   0.00000  Uiso   1.00
C212   C     0.73606   0.15147   0.13266   0.00000  Uiso   1.00
C213   C     0.71492   0.05544   0.28569   0.00000  Uiso   1.00
C214   C     0.95394   0.27923   0.22005   0.00000  Uiso   1.00
C215   C     0.95097   0.07418   0.18660   0.00000  Uiso   1.00
C216   C     0.71741   0.25693   0.31756   0.00000  Uiso   1.00
C217   C     0.83325   0.16652   0.33518   0.00000  Uiso   1.00
C218   C     0.80938   0.02454   0.22109   0.00000  Uiso   1.00
C219   C     0.85737   0.30883   0.27876   0.00000  Uiso   1.00
C220   C     0.85770   0.02513   0.27846   0.00000  Uiso   1.00
C221   C     0.80931   0.30821   0.22114   0.00000  Uiso   1.00
C222   C     0.68694   0.12345   0.24723   0.00000  Uiso   1.00
Cu223  Cu    0.83333   0.21355   0.25000   0.00000  Uiso   1.00
Cu224  Cu    0.83333   0.11978   0.25000   0.00000  Uiso   1.00
H225   H     0.79036   0.04308   0.19782   0.00000  Uiso   1.00
H226   H     0.88759   0.28098   0.08227   0.00000  Uiso   1.00
H227   H     0.91314   0.28415   0.13478   0.00000  Uiso   1.00
H228   H     0.85882   0.27500   0.13283   0.00000  Uiso   1.00
H229   H     0.76937   0.08084   0.39302   0.00000  Uiso   1.00
H230   H     0.82405   0.03150   0.42074   0.00000  Uiso   1.00
H231   H     0.85537   0.05405   0.37629   0.00000  Uiso   1.00
H232   H     0.81056   0.01890   0.36425   0.00000  Uiso   1.00
H233   H     0.86142   0.27620   0.40063   0.00000  Uiso   1.00
H234   H     0.92619   0.23177   0.40999   0.00000  Uiso   1.00
H235   H     0.92308   0.26956   0.36242   0.00000  Uiso   1.00
H236   H     0.87646   0.29037   0.30186   0.00000  Uiso   1.00
H237   H     0.91447   0.20724   0.35619   0.00000  Uiso   1.00
H238   H     0.75636   0.09124   0.10271   0.00000  Uiso   1.00
H239   H     0.72041   0.16707   0.10363   0.00000  Uiso   1.00
H240   H     0.74872   0.18002   0.15369   0.00000  Uiso   1.00
H241   H     0.71337   0.13115   0.15221   0.00000  Uiso   1.00
H242   H     0.72451   0.07289   0.21801   0.00000  Uiso   1.00
H243   H     0.69736   0.02200   0.28745   0.00000  Uiso   1.00
H244   H     0.70666   0.07716   0.31457   0.00000  Uiso   1.00
H245   H     0.74787   0.04768   0.28781   0.00000  Uiso   1.00
H246   H     0.94087   0.25812   0.28592   0.00000  Uiso   1.00
H247   H     0.87748   0.04412   0.30096   0.00000  Uiso   1.00
H248   H     0.97205   0.31229   0.22032   0.00000  Uiso   1.00
H249   H     0.92121   0.28776   0.21691   0.00000  Uiso   1.00
H250   H     0.96304   0.25865   0.19074   0.00000  Uiso   1.00
H251   H     0.96539   0.05304   0.25064   0.00000  Uiso   1.00
H252   H     0.98076   0.06707   0.17106   0.00000  Uiso   1.00
H253   H     0.93696   0.10515   0.17044   0.00000  Uiso   1.00
H254   H     0.93036   0.04341   0.18153   0.00000  Uiso   1.00
H255   H     0.70132   0.28018   0.25472   0.00000  Uiso   1.00
H256   H     0.68800   0.26306   0.33432   0.00000  Uiso   1.00
H257   H     0.73786   0.28781   0.32287   0.00000  Uiso   1.00
H258   H     0.79006   0.28921   0.19809   0.00000  Uiso   1.00
H259   H     0.73219   0.22564   0.33227   0.00000  Uiso   1.00
H260   H     0.88729   0.20564   0.03020   0.00000  Uiso   1.00
H261   H     0.80372   0.09705   0.47035   0.00000  Uiso   1.00
H262   H     0.85536   0.23693   0.47083   0.00000  Uiso   1.00
H263   H     0.77391   0.12713   0.03188   0.00000  Uiso   1.00
H264   H     0.92264   0.20826   0.10475   0.00000  Uiso   1.00
N265   N     0.83333   0.28402   0.25000   0.00000  Uiso   1.00
N266   N     0.71076   0.25032   0.27082   0.00000  Uiso   1.00
N267   N     0.83333   0.04931   0.25000   0.00000  Uiso   1.00
N268   N     0.89403   0.21644   0.11592   0.00000  Uiso   1.00
N269   N     0.79921   0.08773   0.38446   0.00000  Uiso   1.00
N270   N     0.86694   0.24431   0.38599   0.00000  Uiso   1.00
N271   N     0.76794   0.12061   0.11844   0.00000  Uiso   1.00
N272   N     0.70573   0.07886   0.24438   0.00000  Uiso   1.00
N273   N     0.96123   0.25382   0.26072   0.00000  Uiso   1.00
N274   N     0.95634   0.08231   0.23332   0.00000  Uiso   1.00
O275   O     0.77321   0.20625   0.24999   0.00000  Uiso   1.00
O276   O     0.89345   0.12709   0.25001   0.00000  Uiso   1.00
O277   O     0.89345   0.20625   0.25001   0.00000  Uiso   1.00
O278   O     0.77321   0.12709   0.24999   0.00000  Uiso   1.00
O279   O     0.83333   0.20626   0.18573   0.00000  Uiso   1.00
O280   O     0.83334   0.12707   0.31427   0.00000  Uiso   1.00
O281   O     0.83334   0.20626   0.31427   0.00000  Uiso   1.00
O282   O     0.83333   0.12707   0.18573   0.00000  Uiso   1.00
C283   C     0.08740   0.49960   0.25145   0.00000  Uiso   1.00
C284   C     0.31331   0.54272   0.25667   0.00000  Uiso   1.00
C285   C     0.31137   0.45792   0.24381   0.00000  Uiso   1.00
C286   C     0.02225   0.54160   0.25975   0.00000  Uiso   1.00
C287   C     0.19567   0.52242   0.04785   0.00000  Uiso   1.00
C288   C     0.14864   0.46106   0.45304   0.00000  Uiso   1.00
C289   C     0.17816   0.53929   0.45333   0.00000  Uiso   1.00
C290   C     0.13263   0.47717   0.04886   0.00000  Uiso   1.00
C291   C     0.19580   0.52445   0.09370   0.00000  Uiso   1.00
C292   C     0.14959   0.46044   0.40705   0.00000  Uiso   1.00
C293   C     0.18095   0.53888   0.40753   0.00000  Uiso   1.00
C294   C     0.24602   0.50035   0.24951   0.00000  Uiso   1.00
C295   C     0.13322   0.47704   0.09489   0.00000  Uiso   1.00
C296   C     0.16506   0.50068   0.11733   0.00000  Uiso   1.00
C297   C     0.16602   0.49952   0.38375   0.00000  Uiso   1.00
C298   C     0.16378   0.49976   0.02505   0.00000  Uiso   1.00
C299   C     0.16315   0.50014   0.47645   0.00000  Uiso   1.00
C300   C     0.29073   0.50067   0.24953   0.00000  Uiso   1.00
C301   C     0.04281   0.49902   0.25325   0.00000  Uiso   1.00
C302   C     0.22127   0.60001   0.11642   0.00000  Uiso   1.00
C303   C     0.15700   0.37929   0.38666   0.00000  Uiso   1.00
C304   C     0.24321   0.57101   0.37829   0.00000  Uiso   1.00
C305   C     0.16644   0.50016   0.16520   0.00000  Uiso   1.00
C306   C     0.06939   0.48480   0.13266   0.00000  Uiso   1.00
C307   C     0.04825   0.38877   0.28569   0.00000  Uiso   1.00
C308   C     0.28727   0.61257   0.22005   0.00000  Uiso   1.00
C309   C     0.28431   0.40751   0.18660   0.00000  Uiso   1.00
C310   C     0.05074   0.59026   0.31756   0.00000  Uiso   1.00
C311   C     0.16658   0.49985   0.33518   0.00000  Uiso   1.00
C312   C     0.14271   0.35788   0.22109   0.00000  Uiso   1.00
C313   C     0.19070   0.64216   0.27876   0.00000  Uiso   1.00
C314   C     0.19103   0.35846   0.27846   0.00000  Uiso   1.00
C315   C     0.14264   0.64154   0.22114   0.00000  Uiso   1.00
C316   C     0.02027   0.45678   0.24723   0.00000  Uiso   1.00
Cu317  Cu    0.16667   0.54689   0.25000   0.00000  Uiso   1.00
Cu318  Cu    0.16667   0.45311   0.25000   0.00000  Uiso   1.00
H319   H     0.12369   0.37641   0.19782   0.00000  Uiso   1.00
H320   H     0.22092   0.61432   0.08227   0.00000  Uiso   1.00
H321   H     0.24647   0.61749   0.13478   0.00000  Uiso   1.00
H322   H     0.19215   0.60833   0.13283   0.00000  Uiso   1.00
H323   H     0.10271   0.41417   0.39302   0.00000  Uiso   1.00
H324   H     0.15739   0.36484   0.42074   0.00000  Uiso   1.00
H325   H     0.18870   0.38738   0.37629   0.00000  Uiso   1.00
H326   H     0.14390   0.35223   0.36425   0.00000  Uiso   1.00
H327   H     0.19476   0.60954   0.40063   0.00000  Uiso   1.00
H328   H     0.25952   0.56510   0.40999   0.00000  Uiso   1.00
H329   H     0.25641   0.60290   0.36242   0.00000  Uiso   1.00
H330   H     0.20979   0.62370   0.30186   0.00000  Uiso   1.00
H331   H     0.24781   0.54057   0.35619   0.00000  Uiso   1.00
H332   H     0.08969   0.42457   0.10271   0.00000  Uiso   1.00
H333   H     0.05374   0.50041   0.10363   0.00000  Uiso   1.00
H334   H     0.08205   0.51336   0.15369   0.00000  Uiso   1.00
H335   H     0.04670   0.46448   0.15221   0.00000  Uiso   1.00
H336   H     0.05784   0.40622   0.21801   0.00000  Uiso   1.00
H337   H     0.03070   0.35534   0.28745   0.00000  Uiso   1.00
H338   H     0.03999   0.41049   0.31457   0.00000  Uiso   1.00
H339   H     0.08121   0.38101   0.28781   0.00000  Uiso   1.00
H340   H     0.27421   0.59145   0.28592   0.00000  Uiso   1.00
H341   H     0.21081   0.37745   0.30096   0.00000  Uiso   1.00
H342   H     0.30538   0.64563   0.22032   0.00000  Uiso   1.00
H343   H     0.25455   0.62109   0.21691   0.00000  Uiso   1.00
H344   H     0.29637   0.59198   0.19074   0.00000  Uiso   1.00
H345   H     0.29872   0.38638   0.25064   0.00000  Uiso   1.00
H346   H     0.31410   0.40041   0.17106   0.00000  Uiso   1.00
H347   H     0.27029   0.43849   0.17044   0.00000  Uiso   1.00
H348   H     0.26369   0.37674   0.18153   0.00000  Uiso   1.00
H349   H     0.03465   0.61352   0.25472   0.00000  Uiso   1.00
H350   H     0.02134   0.59640   0.33432   0.00000  Uiso   1.00
H351   H     0.07119   0.62114   0.32287   0.00000  Uiso   1.00
H352   H     0.12339   0.62254   0.19809   0.00000  Uiso   1.00
H353   H     0.06553   0.55898   0.33227   0.00000  Uiso   1.00
H354   H     0.22063   0.53897   0.03020   0.00000  Uiso   1.00
H355   H     0.13706   0.43038   0.47035   0.00000  Uiso   1.00
H356   H     0.18869   0.57026   0.47083   0.00000  Uiso   1.00
H357   H     0.10724   0.46047   0.03188   0.00000  Uiso   1.00
H358   H     0.25597   0.54159   0.10475   0.00000  Uiso   1.00
N359   N     0.16667   0.61736   0.25000   0.00000  Uiso   1.00
N360   N     0.04409   0.58365   0.27082   0.00000  Uiso   1.00
N361   N     0.16667   0.38264   0.25000   0.00000  Uiso   1.00
N362   N     0.22736   0.54978   0.11592   0.00000  Uiso   1.00
N363   N     0.13254   0.42106   0.38446   0.00000  Uiso   1.00
N364   N     0.20027   0.57764   0.38599   0.00000  Uiso   1.00
N365   N     0.10127   0.45395   0.11844   0.00000  Uiso   1.00
N366   N     0.03906   0.41220   0.24438   0.00000  Uiso   1.00
N367   N     0.29457   0.58715   0.26072   0.00000  Uiso   1.00
N368   N     0.28967   0.41564   0.23332   0.00000  Uiso   1.00
O369   O     0.10655   0.53958   0.24999   0.00000  Uiso   1.00
O370   O     0.22679   0.46042   0.25001   0.00000  Uiso   1.00
O371   O     0.22679   0.53958   0.25001   0.00000  Uiso   1.00
O372   O     0.10655   0.46042   0.24999   0.00000  Uiso   1.00
O373   O     0.16666   0.53959   0.18573   0.00000  Uiso   1.00
O374   O     0.16667   0.46041   0.31427   0.00000  Uiso   1.00
O375   O     0.16667   0.53959   0.31427   0.00000  Uiso   1.00
O376   O     0.16666   0.46041   0.18573   0.00000  Uiso   1.00
C377   C     0.42073   0.49960   0.25145   0.00000  Uiso   1.00
C378   C     0.64664   0.54272   0.25667   0.00000  Uiso   1.00
C379   C     0.64470   0.45792   0.24381   0.00000  Uiso   1.00
C380   C     0.35558   0.54160   0.25975   0.00000  Uiso   1.00
C381   C     0.52901   0.52242   0.04785   0.00000  Uiso   1.00
C382   C     0.48197   0.46106   0.45304   0.00000  Uiso   1.00
C383   C     0.51150   0.53929   0.45333   0.00000  Uiso   1.00
C384   C     0.46596   0.47717   0.04886   0.00000  Uiso   1.00
C385   C     0.52913   0.52445   0.09370   0.00000  Uiso   1.00
C386   C     0.48292   0.46044   0.40705   0.00000  Uiso   1.00
C387   C     0.51428   0.53888   0.40753   0.00000  Uiso   1.00
C388   C     0.57935   0.50035   0.24951   0.00000  Uiso   1.00
C389   C     0.46655   0.47704   0.09489   0.00000  Uiso   1.00
C390   C     0.49839   0.50068   0.11733   0.00000  Uiso   1.00
C391   C     0.49936   0.49952   0.38375   0.00000  Uiso   1.00
C392   C     0.49712   0.49976   0.02505   0.00000  Uiso   1.00
C393   C     0.49648   0.50014   0.47645   0.00000  Uiso   1.00
C394   C     0.62406   0.50067   0.24953   0.00000  Uiso   1.00
C395   C     0.37615   0.49902   0.25325   0.00000  Uiso   1.00
C396   C     0.55461   0.60001   0.11642   0.00000  Uiso   1.00
C397   C     0.49034   0.37929   0.38666   0.00000  Uiso   1.00
C398   C     0.57654   0.57101   0.37829   0.00000  Uiso   1.00
C399   C     0.49977   0.50016   0.16520   0.00000  Uiso   1.00
C400   C     0.40272   0.48480   0.13266   0.00000  Uiso   1.00
C401   C     0.38159   0.38877   0.28569   0.00000  Uiso   1.00
C402   C     0.62060   0.61257   0.22005   0.00000  Uiso   1.00
C403   C     0.61764   0.40751   0.18660   0.00000  Uiso   1.00
C404   C     0.38408   0.59026   0.31756   0.00000  Uiso   1.00
C405   C     0.49991   0.49985   0.33518   0.00000  Uiso   1.00
C406   C     0.47604   0.35788   0.22109   0.00000  Uiso   1.00
C407   C     0.52404   0.64216   0.27876   0.00000  Uiso   1.00
C408   C     0.52436   0.35846   0.27846   0.00000  Uiso   1.00
C409   C     0.47597   0.64154   0.22114   0.00000  Uiso   1.00
C410   C     0.35360   0.45678   0.24723   0.00000  Uiso   1.00
Cu411  Cu    0.50000   0.54689   0.25000   0.00000  Uiso   1.00
Cu412  Cu    0.50000   0.45311   0.25000   0.00000  Uiso   1.00
H413   H     0.45703   0.37641   0.19782   0.00000  Uiso   1.00
H414   H     0.55425   0.61432   0.08227   0.00000  Uiso   1.00
H415   H     0.57980   0.61749   0.13478   0.00000  Uiso   1.00
H416   H     0.52549   0.60833   0.13283   0.00000  Uiso   1.00
H417   H     0.43604   0.41417   0.39302   0.00000  Uiso   1.00
H418   H     0.49072   0.36484   0.42074   0.00000  Uiso   1.00
H419   H     0.52204   0.38738   0.37629   0.00000  Uiso   1.00
H420   H     0.47723   0.35223   0.36425   0.00000  Uiso   1.00
H421   H     0.52809   0.60954   0.40063   0.00000  Uiso   1.00
H422   H     0.59286   0.56510   0.40999   0.00000  Uiso   1.00
H423   H     0.58975   0.60290   0.36242   0.00000  Uiso   1.00
H424   H     0.54313   0.62370   0.30186   0.00000  Uiso   1.00
H425   H     0.58114   0.54057   0.35619   0.00000  Uiso   1.00
H426   H     0.42303   0.42457   0.10271   0.00000  Uiso   1.00
H427   H     0.38708   0.50041   0.10363   0.00000  Uiso   1.00
H428   H     0.41538   0.51336   0.15369   0.00000  Uiso   1.00
H429   H     0.38003   0.46448   0.15221   0.00000  Uiso   1.00
H430   H     0.39117   0.40622   0.21801   0.00000  Uiso   1.00
H431   H     0.36403   0.35534   0.28745   0.00000  Uiso   1.00
H432   H     0.37333   0.41049   0.31457   0.00000  Uiso   1.00
H433   H     0.41454   0.38101   0.28781   0.00000  Uiso   1.00
H434   H     0.60754   0.59145   0.28592   0.00000  Uiso   1.00
H435   H     0.54414   0.37745   0.30096   0.00000  Uiso   1.00
H436   H     0.63871   0.64563   0.22032   0.00000  Uiso   1.00
H437   H     0.58788   0.62109   0.21691   0.00000  Uiso   1.00
H438   H     0.62971   0.59198   0.19074   0.00000  Uiso   1.00
H439   H     0.63205   0.38638   0.25064   0.00000  Uiso   1.00
H440   H     0.64743   0.40041   0.17106   0.00000  Uiso   1.00
H441   H     0.60363   0.43849   0.17044   0.00000  Uiso   1.00
H442   H     0.59703   0.37674   0.18153   0.00000  Uiso   1.00
H443   H     0.36799   0.61352   0.25472   0.00000  Uiso   1.00
H444   H     0.35467   0.59640   0.33432   0.00000  Uiso   1.00
H445   H     0.40452   0.62114   0.32287   0.00000  Uiso   1.00
H446   H     0.45673   0.62254   0.19809   0.00000  Uiso   1.00
H447   H     0.39886   0.55898   0.33227   0.00000  Uiso   1.00
H448   H     0.55396   0.53897   0.03020   0.00000  Uiso   1.00
H449   H     0.47039   0.43038   0.47035   0.00000  Uiso   1.00
H450   H     0.52203   0.57026   0.47083   0.00000  Uiso   1.00
H451   H     0.44058   0.46047   0.03188   0.00000  Uiso   1.00
H452   H     0.58930   0.54159   0.10475   0.00000  Uiso   1.00
N453   N     0.50000   0.61736   0.25000   0.00000  Uiso   1.00
N454   N     0.37743   0.58365   0.27082   0.00000  Uiso   1.00
N455   N     0.50000   0.38264   0.25000   0.00000  Uiso   1.00
N456   N     0.56070   0.54978   0.11592   0.00000  Uiso   1.00
N457   N     0.46587   0.42106   0.38446   0.00000  Uiso   1.00
N458   N     0.53361   0.57764   0.38599   0.00000  Uiso   1.00
N459   N     0.43461   0.45395   0.11844   0.00000  Uiso   1.00
N460   N     0.37240   0.41220   0.24438   0.00000  Uiso   1.00
N461   N     0.62790   0.58715   0.26072   0.00000  Uiso   1.00
N462   N     0.62301   0.41564   0.23332   0.00000  Uiso   1.00
O463   O     0.43988   0.53958   0.24999   0.00000  Uiso   1.00
O464   O     0.56012   0.46042   0.25001   0.00000  Uiso   1.00
O465   O     0.56012   0.53958   0.25001   0.00000  Uiso   1.00
O466   O     0.43988   0.46042   0.24999   0.00000  Uiso   1.00
O467   O     0.50000   0.53959   0.18573   0.00000  Uiso   1.00
O468   O     0.50000   0.46041   0.31427   0.00000  Uiso   1.00
O469   O     0.50000   0.53959   0.31427   0.00000  Uiso   1.00
O470   O     0.50000   0.46041   0.18573   0.00000  Uiso   1.00
C471   C     0.75406   0.49960   0.25145   0.00000  Uiso   1.00
C472   C     0.97998   0.54272   0.25667   0.00000  Uiso   1.00
C473   C     0.97804   0.45792   0.24381   0.00000  Uiso   1.00
C474   C     0.68891   0.54160   0.25975   0.00000  Uiso   1.00
C475   C     0.86234   0.52242   0.04785   0.00000  Uiso   1.00
C476   C     0.81531   0.46106   0.45304   0.00000  Uiso   1.00
C477   C     0.84483   0.53929   0.45333   0.00000  Uiso   1.00
C478   C     0.79930   0.47717   0.04886   0.00000  Uiso   1.00
C479   C     0.86247   0.52445   0.09370   0.00000  Uiso   1.00
C480   C     0.81625   0.46044   0.40705   0.00000  Uiso   1.00
C481   C     0.84761   0.53888   0.40753   0.00000  Uiso   1.00
C482   C     0.91269   0.50035   0.24951   0.00000  Uiso   1.00
C483   C     0.79988   0.47704   0.09489   0.00000  Uiso   1.00
C484   C     0.83172   0.50068   0.11733   0.00000  Uiso   1.00
C485   C     0.83269   0.49952   0.38375   0.00000  Uiso   1.00
C486   C     0.83045   0.49976   0.02505   0.00000  Uiso   1.00
C487   C     0.82981   0.50014   0.47645   0.00000  Uiso   1.00
C488   C     0.95740   0.50067   0.24953   0.00000  Uiso   1.00
C489   C     0.70948   0.49902   0.25325   0.00000  Uiso   1.00
C490   C     0.88794   0.60001   0.11642   0.00000  Uiso   1.00
C491   C     0.82367   0.37929   0.38666   0.00000  Uiso   1.00
C492   C     0.90987   0.57101   0.37829   0.00000  Uiso   1.00
C493   C     0.83311   0.50016   0.16520   0.00000  Uiso   1.00
C494   C     0.73606   0.48480   0.13266   0.00000  Uiso   1.00
C495   C     0.71492   0.38877   0.28569   0.00000  Uiso   1.00
C496   C     0.95394   0.61257   0.22005   0.00000  Uiso   1.00
C497   C     0.95097   0.40751   0.18660   0.00000  Uiso   1.00
C498   C     0.71741   0.59026   0.31756   0.00000  Uiso   1.00
C499   C     0.83325   0.49985   0.33518   0.00000  Uiso   1.00
C500   C     0.80938   0.35788   0.22109   0.00000  Uiso   1.00
C501   C     0.85737   0.64216   0.27876   0.00000  Uiso   1.00
C502   C     0.85770   0.35846   0.27846   0.00000  Uiso   1.00
C503   C     0.80931   0.64154   0.22114   0.00000  Uiso   1.00
C504   C     0.68694   0.45678   0.24723   0.00000  Uiso   1.00
Cu505  Cu    0.83333   0.54689   0.25000   0.00000  Uiso   1.00
Cu506  Cu    0.83333   0.45311   0.25000   0.00000  Uiso   1.00
H507   H     0.79036   0.37641   0.19782   0.00000  Uiso   1.00
H508   H     0.88759   0.61432   0.08227   0.00000  Uiso   1.00
H509   H     0.91314   0.61749   0.13478   0.00000  Uiso   1.00
H510   H     0.85882   0.60833   0.13283   0.00000  Uiso   1.00
H511   H     0.76937   0.41417   0.39302   0.00000  Uiso   1.00
H512   H     0.82405   0.36484   0.42074   0.00000  Uiso   1.00
H513   H     0.85537   0.38738   0.37629   0.00000  Uiso   1.00
H514   H     0.81056   0.35223   0.36425   0.00000  Uiso   1.00
H515   H     0.86142   0.60954   0.40063   0.00000  Uiso   1.00
H516   H     0.92619   0.56510   0.40999   0.00000  Uiso   1.00
H517   H     0.92308   0.60290   0.36242   0.00000  Uiso   1.00
H518   H     0.87646   0.62370   0.30186   0.00000  Uiso   1.00
H519   H     0.91447   0.54057   0.35619   0.00000  Uiso   1.00
H520   H     0.75636   0.42457   0.10271   0.00000  Uiso   1.00
H521   H     0.72041   0.50041   0.10363   0.00000  Uiso   1.00
H522   H     0.74872   0.51336   0.15369   0.00000  Uiso   1.00
H523   H     0.71337   0.46448   0.15221   0.00000  Uiso   1.00
H524   H     0.72451   0.40622   0.21801   0.00000  Uiso   1.00
H525   H     0.69736   0.35534   0.28745   0.00000  Uiso   1.00
H526   H     0.70666   0.41049   0.31457   0.00000  Uiso   1.00
H527   H     0.74787   0.38101   0.28781   0.00000  Uiso   1.00
H528   H     0.94087   0.59145   0.28592   0.00000  Uiso   1.00
H529   H     0.87748   0.37745   0.30096   0.00000  Uiso   1.00
H530   H     0.97205   0.64563   0.22032   0.00000  Uiso   1.00
H531   H     0.92121   0.62109   0.21691   0.00000  Uiso   1.00
H532   H     0.96304   0.59198   0.19074   0.00000  Uiso   1.00
H533   H     0.96539   0.38638   0.25064   0.00000  Uiso   1.00
H534   H     0.98076   0.40041   0.17106   0.00000  Uiso   1.00
H535   H     0.93696   0.43849   0.17044   0.00000  Uiso   1.00
H536   H     0.93036   0.37674   0.18153   0.00000  Uiso   1.00
H537   H     0.70132   0.61352   0.25472   0.00000  Uiso   1.00
H538   H     0.68800   0.59640   0.33432   0.00000  Uiso   1.00
H539   H     0.73786   0.62114   0.32287   0.00000  Uiso   1.00
H540   H     0.79006   0.62254   0.19809   0.00000  Uiso   1.00
H541   H     0.73219   0.55898   0.33227   0.00000  Uiso   1.00
H542   H     0.88729   0.53897   0.03020   0.00000  Uiso   1.00
H543   H     0.80372   0.43038   0.47035   0.00000  Uiso   1.00
H544   H     0.85536   0.57026   0.47083   0.00000  Uiso   1.00
H545   H     0.77391   0.46047   0.03188   0.00000  Uiso   1.00
H546   H     0.92264   0.54159   0.10475   0.00000  Uiso   1.00
N547   N     0.83333   0.61736   0.25000   0.00000  Uiso   1.00
N548   N     0.71076   0.58365   0.27082   0.00000  Uiso   1.00
N549   N     0.83333   0.38264   0.25000   0.00000  Uiso   1.00
N550   N     0.89403   0.54978   0.11592   0.00000  Uiso   1.00
N551   N     0.79921   0.42106   0.38446   0.00000  Uiso   1.00
N552   N     0.86694   0.57764   0.38599   0.00000  Uiso   1.00
N553   N     0.76794   0.45395   0.11844   0.00000  Uiso   1.00
N554   N     0.70573   0.41220   0.24438   0.00000  Uiso   1.00
N555   N     0.96123   0.58715   0.26072   0.00000  Uiso   1.00
N556   N     0.95634   0.41564   0.23332   0.00000  Uiso   1.00
O557   O     0.77321   0.53958   0.24999   0.00000  Uiso   1.00
O558   O     0.89345   0.46042   0.25001   0.00000  Uiso   1.00
O559   O     0.89345   0.53958   0.25001   0.00000  Uiso   1.00
O560   O     0.77321   0.46042   0.24999   0.00000  Uiso   1.00
O561   O     0.83333   0.53959   0.18573   0.00000  Uiso   1.00
O562   O     0.83334   0.46041   0.31427   0.00000  Uiso   1.00
O563   O     0.83334   0.53959   0.31427   0.00000  Uiso   1.00
O564   O     0.83333   0.46041   0.18573   0.00000  Uiso   1.00
C565   C     0.08740   0.83293   0.25145   0.00000  Uiso   1.00
C566   C     0.31331   0.87605   0.25667   0.00000  Uiso   1.00
C567   C     0.31137   0.79125   0.24381   0.00000  Uiso   1.00
C568   C     0.02225   0.87494   0.25975   0.00000  Uiso   1.00
C569   C     0.19567   0.85576   0.04785   0.00000  Uiso   1.00
C570   C     0.14864   0.79439   0.45304   0.00000  Uiso   1.00
C571   C     0.17816   0.87262   0.45333   0.00000  Uiso   1.00
C572   C     0.13263   0.81050   0.04886   0.00000  Uiso   1.00
C573   C     0.19580   0.85778   0.09370   0.00000  Uiso   1.00
C574   C     0.14959   0.79378   0.40705   0.00000  Uiso   1.00
C575   C     0.18095   0.87221   0.40753   0.00000  Uiso   1.00
C576   C     0.24602   0.83368   0.24951   0.00000  Uiso   1.00
C577   C     0.13322   0.81037   0.09489   0.00000  Uiso   1.00
C578   C     0.16506   0.83402   0.11733   0.00000  Uiso   1.00
C579   C     0.16602   0.83285   0.38375   0.00000  Uiso   1.00
C580   C     0.16378   0.83310   0.02505   0.00000  Uiso   1.00
C581   C     0.16315   0.83347   0.47645   0.00000  Uiso   1.00
C582   C     0.29073   0.83400   0.24953   0.00000  Uiso   1.00
C583   C     0.04281   0.83235   0.25325   0.00000  Uiso   1.00
C584   C     0.22127   0.93334   0.11642   0.00000  Uiso   1.00
C585   C     0.15700   0.71262   0.38666   0.00000  Uiso   1.00
C586   C     0.24321   0.90434   0.37829   0.00000  Uiso   1.00
C587   C     0.16644   0.83349   0.16520   0.00000  Uiso   1.00
C588   C     0.06939   0.81813   0.13266   0.00000  Uiso   1.00
C589   C     0.04825   0.72211   0.28569   0.00000  Uiso   1.00
C590   C     0.28727   0.94590   0.22005   0.00000  Uiso   1.00
C591   C     0.28431   0.74085   0.18660   0.00000  Uiso   1.00
C592   C     0.05074   0.92359   0.31756   0.00000  Uiso   1.00
C593   C     0.16658   0.83318   0.33518   0.00000  Uiso   1.00
C594   C     0.14271   0.69121   0.22109   0.00000  Uiso   1.00
C595   C     0.19070   0.97549   0.27876   0.00000  Uiso   1.00
C596   C     0.19103   0.69179   0.27846   0.00000  Uiso   1.00
C597   C     0.14264   0.97488   0.22114   0.00000  Uiso   1.00
C598   C     0.02027   0.79011   0.24723   0.00000  Uiso   1.00
Cu599  Cu    0.16667   0.88022   0.25000   0.00000  Uiso   1.00
Cu600  Cu    0.16667   0.78645   0.25000   0.00000  Uiso   1.00
H601   H     0.12369   0.70974   0.19782   0.00000  Uiso   1.00
H602   H     0.22092   0.94765   0.08227   0.00000  Uiso   1.00
H603   H     0.24647   0.95082   0.13478   0.00000  Uiso   1.00
H604   H     0.19215   0.94167   0.13283   0.00000  Uiso   1.00
H605   H     0.10271   0.74751   0.39302   0.00000  Uiso   1.00
H606   H     0.15739   0.69817   0.42074   0.00000  Uiso   1.00
H607   H     0.18870   0.72071   0.37629   0.00000  Uiso   1.00
H608   H     0.14390   0.68556   0.36425   0.00000  Uiso   1.00
H609   H     0.19476   0.94287   0.40063   0.00000  Uiso   1.00
H610   H     0.25952   0.89843   0.40999   0.00000  Uiso   1.00
H611   H     0.25641   0.93623   0.36242   0.00000  Uiso   1.00
H612   H     0.20979   0.95703   0.30186   0.00000  Uiso   1.00
H613   H     0.24781   0.87391   0.35619   0.00000  Uiso   1.00
H614   H     0.08969   0.75790   0.10271   0.00000  Uiso   1.00
H615   H     0.05374   0.83374   0.10363   0.00000  Uiso   1.00
H616   H     0.08205   0.84669   0.15369   0.00000  Uiso   1.00
H617   H     0.04670   0.79781   0.15221   0.00000  Uiso   1.00
H618   H     0.05784   0.73955   0.21801   0.00000  Uiso   1.00
H619   H     0.03070   0.68867   0.28745   0.00000  Uiso   1.00
H620   H     0.03999   0.74383   0.31457   0.00000  Uiso   1.00
H621   H     0.08121   0.71435   0.28781   0.00000  Uiso   1.00
H622   H     0.27421   0.92479   0.28592   0.00000  Uiso   1.00
H623   H     0.21081   0.71079   0.30096   0.00000  Uiso   1.00
H624   H     0.30538   0.97896   0.22032   0.00000  Uiso   1.00
H625   H     0.25455   0.95443   0.21691   0.00000  Uiso   1.00
H626   H     0.29637   0.92532   0.19074   0.00000  Uiso   1.00
H627   H     0.29872   0.71971   0.25064   0.00000  Uiso   1.00
H628   H     0.31410   0.73374   0.17106   0.00000  Uiso   1.00
H629   H     0.27029   0.77182   0.17044   0.00000  Uiso   1.00
H630   H     0.26369   0.71007   0.18153   0.00000  Uiso   1.00
H631   H     0.03465   0.94685   0.25472   0.00000  Uiso   1.00
H632   H     0.02134   0.92973   0.33432   0.00000  Uiso   1.00
H633   H     0.07119   0.95447   0.32287   0.00000  Uiso   1.00
H634   H     0.12339   0.95587   0.19809   0.00000  Uiso   1.00
H635   H     0.06553   0.89231   0.33227   0.00000  Uiso   1.00
H636   H     0.22063   0.87230   0.03020   0.00000  Uiso   1.00
H637   H     0.13706   0.76371   0.47035   0.00000  Uiso   1.00
H638   H     0.18869   0.90360   0.47083   0.00000  Uiso   1.00
H639   H     0.10724   0.79380   0.03188   0.00000  Uiso   1.00
H640   H     0.25597   0.87493   0.10475   0.00000  Uiso   1.00
N641   N     0.16667   0.95069   0.25000   0.00000  Uiso   1.00
N642   N     0.04409   0.91699   0.27082   0.00000  Uiso   1.00
N643   N     0.16667   0.71598   0.25000   0.00000  Uiso   1.00
N644   N     0.22736   0.88311   0.11592   0.00000  Uiso   1.00
N645   N     0.13254   0.75439   0.38446   0.00000  Uiso   1.00
N646   N     0.20027   0.91098   0.38599   0.00000  Uiso   1.00
N647   N     0.10127   0.78728   0.11844   0.00000  Uiso   1.00
N648   N     0.03906   0.74553   0.24438   0.00000  Uiso   1.00
N649   N     0.29457   0.92049   0.26072   0.00000  Uiso   1.00
N650   N     0.28967   0.74897   0.23332   0.00000  Uiso   1.00
O651   O     0.10655   0.87291   0.24999   0.00000  Uiso   1.00
O652   O     0.22679   0.79375   0.25001   0.00000  Uiso   1.00
O653   O     0.22679   0.87291   0.25001   0.00000  Uiso   1.00
O654   O     0.10655   0.79375   0.24999   0.00000  Uiso   1.00
O655   O     0.16666   0.87293   0.18573   0.00000  Uiso   1.00
O656   O     0.16667   0.79374   0.31427   0.00000  Uiso   1.00
O657   O     0.16667   0.87293   0.31427   0.00000  Uiso   1.00
O658   O     0.16666   0.79374   0.18573   0.00000  Uiso   1.00
C659   C     0.42073   0.83293   0.25145   0.00000  Uiso   1.00
C660   C     0.64664   0.87605   0.25667   0.00000  Uiso   1.00
C661   C     0.64470   0.79125   0.24381   0.00000  Uiso   1.00
C662   C     0.35558   0.87494   0.25975   0.00000  Uiso   1.00
C663   C     0.52901   0.85576   0.04785   0.00000  Uiso   1.00
C664   C     0.48197   0.79439   0.45304   0.00000  Uiso   1.00
C665   C     0.51150   0.87262   0.45333   0.00000  Uiso   1.00
C666   C     0.46596   0.81050   0.04886   0.00000  Uiso   1.00
C667   C     0.52913   0.85778   0.09370   0.00000  Uiso   1.00
C668   C     0.48292   0.79378   0.40705   0.00000  Uiso   1.00
C669   C     0.51428   0.87221   0.40753   0.00000  Uiso   1.00
C670   C     0.57935   0.83368   0.24951   0.00000  Uiso   1.00
C671   C     0.46655   0.81037   0.09489   0.00000  Uiso   1.00
C672   C     0.49839   0.83402   0.11733   0.00000  Uiso   1.00
C673   C     0.49936   0.83285   0.38375   0.00000  Uiso   1.00
C674   C     0.49712   0.83310   0.02505   0.00000  Uiso   1.00
C675   C     0.49648   0.83347   0.47645   0.00000  Uiso   1.00
C676   C     0.62406   0.83400   0.24953   0.00000  Uiso   1.00
C677   C     0.37615   0.83235   0.25325   0.00000  Uiso   1.00
C678   C     0.55461   0.93334   0.11642   0.00000  Uiso   1.00
C679   C     0.49034   0.71262   0.38666   0.00000  Uiso   1.00
C680   C     0.57654   0.90434   0.37829   0.00000  Uiso   1.00
C681   C     0.49977   0.83349   0.16520   0.00000  Uiso   1.00
C682   C     0.40272   0.81813   0.13266   0.00000  Uiso   1.00
C683   C     0.38159   0.72211   0.28569   0.00000  Uiso   1.00
C684   C     0.62060   0.94590   0.22005   0.00000  Uiso   1.00
C685   C     0.61764   0.74085   0.18660   0.00000  Uiso   1.00
C686   C     0.38408   0.92359   0.31756   0.00000  Uiso   1.00
C687   C     0.49991   0.83318   0.33518   0.00000  Uiso   1.00
C688   C     0.47604   0.69121   0.22109   0.00000  Uiso   1.00
C689   C     0.52404   0.97549   0.27876   0.00000  Uiso   1.00
C690   C     0.52436   0.69179   0.27846   0.00000  Uiso   1.00
C691   C     0.47597   0.97488   0.22114   0.00000  Uiso   1.00
C692   C     0.35360   0.79011   0.24723   0.00000  Uiso   1.00
Cu693  Cu    0.50000   0.88022   0.25000   0.00000  Uiso   1.00
Cu694  Cu    0.50000   0.78645   0.25000   0.00000  Uiso   1.00
H695   H     0.45703   0.70974   0.19782   0.00000  Uiso   1.00
H696   H     0.55425   0.94765   0.08227   0.00000  Uiso   1.00
H697   H     0.57980   0.95082   0.13478   0.00000  Uiso   1.00
H698   H     0.52549   0.94167   0.13283   0.00000  Uiso   1.00
H699   H     0.43604   0.74751   0.39302   0.00000  Uiso   1.00
H700   H     0.49072   0.69817   0.42074   0.00000  Uiso   1.00
H701   H     0.52204   0.72071   0.37629   0.00000  Uiso   1.00
H702   H     0.47723   0.68556   0.36425   0.00000  Uiso   1.00
H703   H     0.52809   0.94287   0.40063   0.00000  Uiso   1.00
H704   H     0.59286   0.89843   0.40999   0.00000  Uiso   1.00
H705   H     0.58975   0.93623   0.36242   0.00000  Uiso   1.00
H706   H     0.54313   0.95703   0.30186   0.00000  Uiso   1.00
H707   H     0.58114   0.87391   0.35619   0.00000  Uiso   1.00
H708   H     0.42303   0.75790   0.10271   0.00000  Uiso   1.00
H709   H     0.38708   0.83374   0.10363   0.00000  Uiso   1.00
H710   H     0.41538   0.84669   0.15369   0.00000  Uiso   1.00
H711   H     0.38003   0.79781   0.15221   0.00000  Uiso   1.00
H712   H     0.39117   0.73955   0.21801   0.00000  Uiso   1.00
H713   H     0.36403   0.68867   0.28745   0.00000  Uiso   1.00
H714   H     0.37333   0.74383   0.31457   0.00000  Uiso   1.00
H715   H     0.41454   0.71435   0.28781   0.00000  Uiso   1.00
H716   H     0.60754   0.92479   0.28592   0.00000  Uiso   1.00
H717   H     0.54414   0.71079   0.30096   0.00000  Uiso   1.00
H718   H     0.63871   0.97896   0.22032   0.00000  Uiso   1.00
H719   H     0.58788   0.95443   0.21691   0.00000  Uiso   1.00
H720   H     0.62971   0.92532   0.19074   0.00000  Uiso   1.00
H721   H     0.63205   0.71971   0.25064   0.00000  Uiso   1.00
H722   H     0.64743   0.73374   0.17106   0.00000  Uiso   1.00
H723   H     0.60363   0.77182   0.17044   0.00000  Uiso   1.00
H724   H     0.59703   0.71007   0.18153   0.00000  Uiso   1.00
H725   H     0.36799   0.94685   0.25472   0.00000  Uiso   1.00
H726   H     0.35467   0.92973   0.33432   0.00000  Uiso   1.00
H727   H     0.40452   0.95447   0.32287   0.00000  Uiso   1.00
H728   H     0.45673   0.95587   0.19809   0.00000  Uiso   1.00
H729   H     0.39886   0.89231   0.33227   0.00000  Uiso   1.00
H730   H     0.55396   0.87230   0.03020   0.00000  Uiso   1.00
H731   H     0.47039   0.76371   0.47035   0.00000  Uiso   1.00
H732   H     0.52203   0.90360   0.47083   0.00000  Uiso   1.00
H733   H     0.44058   0.79380   0.03188   0.00000  Uiso   1.00
H734   H     0.58930   0.87493   0.10475   0.00000  Uiso   1.00
N735   N     0.50000   0.95069   0.25000   0.00000  Uiso   1.00
N736   N     0.37743   0.91699   0.27082   0.00000  Uiso   1.00
N737   N     0.50000   0.71598   0.25000   0.00000  Uiso   1.00
N738   N     0.56070   0.88311   0.11592   0.00000  Uiso   1.00
N739   N     0.46587   0.75439   0.38446   0.00000  Uiso   1.00
N740   N     0.53361   0.91098   0.38599   0.00000  Uiso   1.00
N741   N     0.43461   0.78728   0.11844   0.00000  Uiso   1.00
N742   N     0.37240   0.74553   0.24438   0.00000  Uiso   1.00
N743   N     0.62790   0.92049   0.26072   0.00000  Uiso   1.00
N744   N     0.62301   0.74897   0.23332   0.00000  Uiso   1.00
O745   O     0.43988   0.87291   0.24999   0.00000  Uiso   1.00
O746   O     0.56012   0.79375   0.25001   0.00000  Uiso   1.00
O747   O     0.56012   0.87291   0.25001   0.00000  Uiso   1.00
O748   O     0.43988   0.79375   0.24999   0.00000  Uiso   1.00
O749   O     0.50000   0.87293   0.18573   0.00000  Uiso   1.00
O750   O     0.50000   0.79374   0.31427   0.00000  Uiso   1.00
O751   O     0.50000   0.87293   0.31427   0.00000  Uiso   1.00
O752   O     0.50000   0.79374   0.18573   0.00000  Uiso   1.00
C753   C     0.75406   0.83293   0.25145   0.00000  Uiso   1.00
C754   C     0.97998   0.87605   0.25667   0.00000  Uiso   1.00
C755   C     0.97804   0.79125   0.24381   0.00000  Uiso   1.00
C756   C     0.68891   0.87494   0.25975   0.00000  Uiso   1.00
C757   C     0.86234   0.85576   0.04785   0.00000  Uiso   1.00
C758   C     0.81531   0.79439   0.45304   0.00000  Uiso   1.00
C759   C     0.84483   0.87262   0.45333   0.00000  Uiso   1.00
C760   C     0.79930   0.81050   0.04886   0.00000  Uiso   1.00
C761   C     0.86247   0.85778   0.09370   0.00000  Uiso   1.00
C762   C     0.81625   0.79378   0.40705   0.00000  Uiso   1.00
C763   C     0.84761   0.87221   0.40753   0.00000  Uiso   1.00
C764   C     0.91269   0.83368   0.24951   0.00000  Uiso   1.00
C765   C     0.79988   0.81037   0.09489   0.00000  Uiso   1.00
C766   C     0.83172   0.83402   0.11733   0.00000  Uiso   1.00
C767   C     0.83269   0.83285   0.38375   0.00000  Uiso   1.00
C768   C     0.83045   0.83310   0.02505   0.00000  Uiso   1.00
C769   C     0.82981   0.83347   0.47645   0.00000  Uiso   1.00
C770   C     0.95740   0.83400   0.24953   0.00000  Uiso   1.00
C771   C     0.70948   0.83235   0.25325   0.00000  Uiso   1.00
C772   C     0.88794   0.93334   0.11642   0.00000  Uiso   1.00
C773   C     0.82367   0.71262   0.38666   0.00000  Uiso   1.00
C774   C     0.90987   0.90434   0.37829   0.00000  Uiso   1.00
C775   C     0.83311   0.83349   0.16520   0.00000  Uiso   1.00
C776   C     0.73606   0.81813   0.13266   0.00000  Uiso   1.00
C777   C     0.71492   0.72211   0.28569   0.00000  Uiso   1.00
C778   C     0.95394   0.94590   0.22005   0.00000  Uiso   1.00
C779   C     0.95097   0.74085   0.18660   0.00000  Uiso   1.00
C780   C     0.71741   0.92359   0.31756   0.00000  Uiso   1.00
C781   C     0.83325   0.83318   0.33518   0.00000  Uiso   1.00
C782   C     0.80938   0.69121   0.22109   0.00000  Uiso   1.00
C783   C     0.85737   0.97549   0.27876   0.00000  Uiso   1.00
C784   C     0.85770   0.69179   0.27846   0.00000  Uiso   1.00
C785   C     0.80931   0.97488   0.22114   0.00000  Uiso   1.00
C786   C     0.68694   0.79011   0.24723   0.00000  Uiso   1.00
Cu787  Cu    0.83333   0.88022   0.25000   0.00000  Uiso   1.00
Cu788  Cu    0.83333   0.78645   0.25000   0.00000  Uiso   1.00
H789   H     0.79036   0.70974   0.19782   0.00000  Uiso   1.00
H790   H     0.88759   0.94765   0.08227   0.00000  Uiso   1.00
H791   H     0.91314   0.95082   0.13478   0.00000  Uiso   1.00
H792   H     0.85882   0.94167   0.13283   0.00000  Uiso   1.00
H793   H     0.76937   0.74751   0.39302   0.00000  Uiso   1.00
H794   H     0.82405   0.69817   0.42074   0.00000  Uiso   1.00
H795   H     0.85537   0.72071   0.37629   0.00000  Uiso   1.00
H796   H     0.81056   0.68556   0.36425   0.00000  Uiso   1.00
H797   H     0.86142   0.94287   0.40063   0.00000  Uiso   1.00
H798   H     0.92619   0.89843   0.40999   0.00000  Uiso   1.00
H799   H     0.92308   0.93623   0.36242   0.00000  Uiso   1.00
H800   H     0.87646   0.95703   0.30186   0.00000  Uiso   1.00
H801   H     0.91447   0.87391   0.35619   0.00000  Uiso   1.00
H802   H     0.75636   0.75790   0.10271   0.00000  Uiso   1.00
H803   H     0.72041   0.83374   0.10363   0.00000  Uiso   1.00
H804   H     0.74872   0.84669   0.15369   0.00000  Uiso   1.00
H805   H     0.71337   0.79781   0.15221   0.00000  Uiso   1.00
H806   H     0.72451   0.73955   0.21801   0.00000  Uiso   1.00
H807   H     0.69736   0.68867   0.28745   0.00000  Uiso   1.00
H808   H     0.70666   0.74383   0.31457   0.00000  Uiso   1.00
H809   H     0.74787   0.71435   0.28781   0.00000  Uiso   1.00
H810   H     0.94087   0.92479   0.28592   0.00000  Uiso   1.00
H811   H     0.87748   0.71079   0.30096   0.00000  Uiso   1.00
H812   H     0.97205   0.97896   0.22032   0.00000  Uiso   1.00
H813   H     0.92121   0.95443   0.21691   0.00000  Uiso   1.00
H814   H     0.96304   0.92532   0.19074   0.00000  Uiso   1.00
H815   H     0.96539   0.71971   0.25064   0.00000  Uiso   1.00
H816   H     0.98076   0.73374   0.17106   0.00000  Uiso   1.00
H817   H     0.93696   0.77182   0.17044   0.00000  Uiso   1.00
H818   H     0.93036   0.71007   0.18153   0.00000  Uiso   1.00
H819   H     0.70132   0.94685   0.25472   0.00000  Uiso   1.00
H820   H     0.68800   0.92973   0.33432   0.00000  Uiso   1.00
H821   H     0.73786   0.95447   0.32287   0.00000  Uiso   1.00
H822   H     0.79006   0.95587   0.19809   0.00000  Uiso   1.00
H823   H     0.73219   0.89231   0.33227   0.00000  Uiso   1.00
H824   H     0.88729   0.87230   0.03020   0.00000  Uiso   1.00
H825   H     0.80372   0.76371   0.47035   0.00000  Uiso   1.00
H826   H     0.85536   0.90360   0.47083   0.00000  Uiso   1.00
H827   H     0.77391   0.79380   0.03188   0.00000  Uiso   1.00
H828   H     0.92264   0.87493   0.10475   0.00000  Uiso   1.00
N829   N     0.83333   0.95069   0.25000   0.00000  Uiso   1.00
N830   N     0.71076   0.91699   0.27082   0.00000  Uiso   1.00
N831   N     0.83333   0.71598   0.25000   0.00000  Uiso   1.00
N832   N     0.89403   0.88311   0.11592   0.00000  Uiso   1.00
N833   N     0.79921   0.75439   0.38446   0.00000  Uiso   1.00
N834   N     0.86694   0.91098   0.38599   0.00000  Uiso   1.00
N835   N     0.76794   0.78728   0.11844   0.00000  Uiso   1.00
N836   N     0.70573   0.74553   0.24438   0.00000  Uiso   1.00
N837   N     0.96123   0.92049   0.26072   0.00000  Uiso   1.00
N838   N     0.95634   0.74897   0.23332   0.00000  Uiso   1.00
O839   O     0.77321   0.87291   0.24999   0.00000  Uiso   1.00
O840   O     0.89345   0.79375   0.25001   0.00000  Uiso   1.00
O841   O     0.89345   0.87291   0.25001   0.00000  Uiso   1.00
O842   O     0.77321   0.79375   0.24999   0.00000  Uiso   1.00
O843   O     0.83333   0.87293   0.18573   0.00000  Uiso   1.00
O844   O     0.83334   0.79374   0.31427   0.00000  Uiso   1.00
O845   O     0.83334   0.87293   0.31427   0.00000  Uiso   1.00
O846   O     0.83333   0.79374   0.18573   0.00000  Uiso   1.00
C847   C     0.08740   0.16627   0.75145   0.00000  Uiso   1.00
C848   C     0.31331   0.20938   0.75667   0.00000  Uiso   1.00
C849   C     0.31137   0.12459   0.74381   0.00000  Uiso   1.00
C850   C     0.02225   0.20827   0.75975   0.00000  Uiso   1.00
C851   C     0.19567   0.18909   0.54785   0.00000  Uiso   1.00
C852   C     0.14864   0.12773   0.95304   0.00000  Uiso   1.00
C853   C     0.17816   0.20595   0.95333   0.00000  Uiso   1.00
C854   C     0.13263   0.14384   0.54886   0.00000  Uiso   1.00
C855   C     0.19580   0.19111   0.59370   0.00000  Uiso   1.00
C856   C     0.14959   0.12711   0.90705   0.00000  Uiso   1.00
C857   C     0.18095   0.20555   0.90753   0.00000  Uiso   1.00
C858   C     0.24602   0.16702   0.74951   0.00000  Uiso   1.00
C859   C     0.13322   0.14370   0.59489   0.00000  Uiso   1.00
C860   C     0.16506   0.16735   0.61733   0.00000  Uiso   1.00
C861   C     0.16602   0.16618   0.88375   0.00000  Uiso   1.00
C862   C     0.16378   0.16643   0.52505   0.00000  Uiso   1.00
C863   C     0.16315   0.16680   0.97645   0.00000  Uiso   1.00
C864   C     0.29073   0.16733   0.74953   0.00000  Uiso   1.00
C865   C     0.04281   0.16568   0.75325   0.00000  Uiso   1.00
C866   C     0.22127   0.26668   0.61642   0.00000  Uiso   1.00
C867   C     0.15700   0.04596   0.88666   0.00000  Uiso   1.00
C868   C     0.24321   0.23767   0.87829   0.00000  Uiso   1.00
C869   C     0.16644   0.16682   0.66520   0.00000  Uiso   1.00
C870   C     0.06939   0.15147   0.63266   0.00000  Uiso   1.00
C871   C     0.04825   0.05544   0.78569   0.00000  Uiso   1.00
C872   C     0.28727   0.27923   0.72005   0.00000  Uiso   1.00
C873   C     0.28431   0.07418   0.68660   0.00000  Uiso   1.00
C874   C     0.05074   0.25693   0.81756   0.00000  Uiso   1.00
C875   C     0.16658   0.16652   0.83518   0.00000  Uiso   1.00
C876   C     0.14271   0.02454   0.72109   0.00000  Uiso   1.00
C877   C     0.19070   0.30883   0.77876   0.00000  Uiso   1.00
C878   C     0.19103   0.02513   0.77846   0.00000  Uiso   1.00
C879   C     0.14264   0.30821   0.72114   0.00000  Uiso   1.00
C880   C     0.02027   0.12345   0.74723   0.00000  Uiso   1.00
Cu881  Cu    0.16667   0.21355   0.75000   0.00000  Uiso   1.00
Cu882  Cu    0.16667   0.11978   0.75000   0.00000  Uiso   1.00
H883   H     0.12369   0.04308   0.69782   0.00000  Uiso   1.00
H884   H     0.22092   0.28098   0.58227   0.00000  Uiso   1.00
H885   H     0.24647   0.28415   0.63478   0.00000  Uiso   1.00
H886   H     0.19215   0.27500   0.63283   0.00000  Uiso   1.00
H887   H     0.10271   0.08084   0.89302   0.00000  Uiso   1.00
H888   H     0.15739   0.03150   0.92074   0.00000  Uiso   1.00
H889   H     0.18870   0.05405   0.87629   0.00000  Uiso   1.00
H890   H     0.14390   0.01890   0.86425   0.00000  Uiso   1.00
H891   H     0.19476   0.27620   0.90063   0.00000  Uiso   1.00
H892   H     0.25952   0.23177   0.90999   0.00000  Uiso   1.00
H893   H     0.25641   0.26956   0.86242   0.00000  Uiso   1.00
H894   H     0.20979   0.29037   0.80186   0.00000  Uiso   1.00
H895   H     0.24781   0.20724   0.85619   0.00000  Uiso   1.00
H896   H     0.08969   0.09124   0.60271   0.00000  Uiso   1.00
H897   H     0.05374   0.16707   0.60363   0.00000  Uiso   1.00
H898   H     0.08205   0.18002   0.65369   0.00000  Uiso   1.00
H899   H     0.04670   0.13115   0.65221   0.00000  Uiso   1.00
H900   H     0.05784   0.07289   0.71801   0.00000  Uiso   1.00
H901   H     0.03070   0.02200   0.78745   0.00000  Uiso   1.00
H902   H     0.03999   0.07716   0.81457   0.00000  Uiso   1.00
H903   H     0.08121   0.04768   0.78781   0.00000  Uiso   1.00
H904   H     0.27421   0.25812   0.78592   0.00000  Uiso   1.00
H905   H     0.21081   0.04412   0.80096   0.00000  Uiso   1.00
H906   H     0.30538   0.31229   0.72032   0.00000  Uiso   1.00
H907   H     0.25455   0.28776   0.71691   0.00000  Uiso   1.00
H908   H     0.29637   0.25865   0.69074   0.00000  Uiso   1.00
H909   H     0.29872   0.05304   0.75064   0.00000  Uiso   1.00
H910   H     0.31410   0.06707   0.67106   0.00000  Uiso   1.00
H911   H     0.27029   0.10515   0.67044   0.00000  Uiso   1.00
H912   H     0.26369   0.04341   0.68153   0.00000  Uiso   1.00
H913   H     0.03465   0.28018   0.75472   0.00000  Uiso   1.00
H914   H     0.02134   0.26306   0.83432   0.00000  Uiso   1.00
H915   H     0.07119   0.28781   0.82287   0.00000  Uiso   1.00
H916   H     0.12339   0.28921   0.69809   0.00000  Uiso   1.00
H917   H     0.06553   0.22564   0.83227   0.00000  Uiso   1.00
H918   H     0.22063   0.20564   0.53020   0.00000  Uiso   1.00
H919   H     0.13706   0.09705   0.97035   0.00000  Uiso   1.00
H920   H     0.18869   0.23693   0.97083   0.00000  Uiso   1.00
H921   H     0.10724   0.12713   0.53188   0.00000  Uiso   1.00
H922   H     0.25597   0.20826   0.60475   0.00000  Uiso   1.00
N923   N     0.16667   0.28402   0.75000   0.00000  Uiso   1.00
N924   N     0.04409   0.25032   0.77082   0.00000  Uiso   1.00
N925   N     0.16667   0.04931   0.75000   0.00000  Uiso   1.00
N926   N     0.22736   0.21644   0.61592   0.00000  Uiso   1.00
N927   N     0.13254   0.08773   0.88446   0.00000  Uiso   1.00
N928   N     0.20027   0.24431   0.88599   0.00000  Uiso   1.00
N929   N     0.10127   0.12061   0.61844   0.00000  Uiso   1.00
N930   N     0.03906   0.07886   0.74438   0.00000  Uiso   1.00
N931   N     0.29457   0.25382   0.76072   0.00000  Uiso   1.00
N932   N     0.28967   0.08231   0.73332   0.00000  Uiso   1.00
O933   O     0.10655   0.20625   0.74999   0.00000  Uiso   1.00
O934   O     0.22679   0.12709   0.75001   0.00000  Uiso   1.00
O935   O     0.22679   0.20625   0.75001   0.00000  Uiso   1.00
O936   O     0.10655   0.12709   0.74999   0.00000  Uiso   1.00
O937   O     0.16666   0.20626   0.68573   0.00000  Uiso   1.00
O938   O     0.16667   0.12707   0.81427   0.00000  Uiso   1.00
O939   O     0.16667   0.20626   0.81427   0.00000  Uiso   1.00
O940   O     0.16666   0.12707   0.68573   0.00000  Uiso   1.00
C941   C     0.42073   0.16627   0.75145   0.00000  Uiso   1.00
C942   C     0.64664   0.20938   0.75667   0.00000  Uiso   1.00
C943   C     0.64470   0.12459   0.74381   0.00000  Uiso   1.00
C944   C     0.35558   0.20827   0.75975   0.00000  Uiso   1.00
C945   C     0.52901   0.18909   0.54785   0.00000  Uiso   1.00
C946   C     0.48197   0.12773   0.95304   0.00000  Uiso   1.00
C947   C     0.51150   0.20595   0.95333   0.00000  Uiso   1.00
C948   C     0.46596   0.14384   0.54886   0.00000  Uiso   1.00
C949   C     0.52913   0.19111   0.59370   0.00000  Uiso   1.00
C950   C     0.48292   0.12711   0.90705   0.00000  Uiso   1.00
C951   C     0.51428   0.20555   0.90753   0.00000  Uiso   1.00
C952   C     0.57935   0.16702   0.74951   0.00000  Uiso   1.00
C953   C     0.46655   0.14370   0.59489   0.00000  Uiso   1.00
C954   C     0.49839   0.16735   0.61733   0.00000  Uiso   1.00
C955   C     0.49936   0.16618   0.88375   0.00000  Uiso   1.00
C956   C     0.49712   0.16643   0.52505   0.00000  Uiso   1.00
C957   C     0.49648   0.16680   0.97645   0.00000  Uiso   1.00
C958   C     0.62406   0.16733   0.74953   0.00000  Uiso   1.00
C959   C     0.37615   0.16568   0.75325   0.00000  Uiso   1.00
C960   C     0.55461   0.26668   0.61642   0.00000  Uiso   1.00
C961   C     0.49034   0.04596   0.88666   0.00000  Uiso   1.00
C962   C     0.57654   0.23767   0.87829   0.00000  Uiso   1.00
C963   C     0.49977   0.16682   0.66520   0.00000  Uiso   1.00
C964   C     0.40272   0.15147   0.63266   0.00000  Uiso   1.00
C965   C     0.38159   0.05544   0.78569   0.00000  Uiso   1.00
C966   C     0.62060   0.27923   0.72005   0.00000  Uiso   1.00
C967   C     0.61764   0.07418   0.68660   0.00000  Uiso   1.00
C968   C     0.38408   0.25693   0.81756   0.00000  Uiso   1.00
C969   C     0.49991   0.16652   0.83518   0.00000  Uiso   1.00
C970   C     0.47604   0.02454   0.72109   0.00000  Uiso   1.00
C971   C     0.52404   0.30883   0.77876   0.00000  Uiso   1.00
C972   C     0.52436   0.02513   0.77846   0.00000  Uiso   1.00
C973   C     0.47597   0.30821   0.72114   0.00000  Uiso   1.00
C974   C     0.35360   0.12345   0.74723   0.00000  Uiso   1.00
Cu975  Cu    0.50000   0.21355   0.75000   0.00000  Uiso   1.00
Cu976  Cu    0.50000   0.11978   0.75000   0.00000  Uiso   1.00
H977   H     0.45703   0.04308   0.69782   0.00000  Uiso   1.00
H978   H     0.55425   0.28098   0.58227   0.00000  Uiso   1.00
H979   H     0.57980   0.28415   0.63478   0.00000  Uiso   1.00
H980   H     0.52549   0.27500   0.63283   0.00000  Uiso   1.00
H981   H     0.43604   0.08084   0.89302   0.00000  Uiso   1.00
H982   H     0.49072   0.03150   0.92074   0.00000  Uiso   1.00
H983   H     0.52204   0.05405   0.87629   0.00000  Uiso   1.00
H984   H     0.47723   0.01890   0.86425   0.00000  Uiso   1.00
H985   H     0.52809   0.27620   0.90063   0.00000  Uiso   1.00
H986   H     0.59286   0.23177   0.90999   0.00000  Uiso   1.00
H987   H     0.58975   0.26956   0.86242   0.00000  Uiso   1.00
H988   H     0.54313   0.29037   0.80186   0.00000  Uiso   1.00
H989   H     0.58114   0.20724   0.85619   0.00000  Uiso   1.00
H990   H     0.42303   0.09124   0.60271   0.00000  Uiso   1.00
H991   H     0.38708   0.16707   0.60363   0.00000  Uiso   1.00
H992   H     0.41538   0.18002   0.65369   0.00000  Uiso   1.00
H993   H     0.38003   0.13115   0.65221   0.00000  Uiso   1.00
H994   H     0.39117   0.07289   0.71801   0.00000  Uiso   1.00
H995   H     0.36403   0.02200   0.78745   0.00000  Uiso   1.00
H996   H     0.37333   0.07716   0.81457   0.00000  Uiso   1.00
H997   H     0.41454   0.04768   0.78781   0.00000  Uiso   1.00
H998   H     0.60754   0.25812   0.78592   0.00000  Uiso   1.00
H999   H     0.54414   0.04412   0.80096   0.00000  Uiso   1.00
H1000  H     0.63871   0.31229   0.72032   0.00000  Uiso   1.00
H1001  H     0.58788   0.28776   0.71691   0.00000  Uiso   1.00
H1002  H     0.62971   0.25865   0.69074   0.00000  Uiso   1.00
H1003  H     0.63205   0.05304   0.75064   0.00000  Uiso   1.00
H1004  H     0.64743   0.06707   0.67106   0.00000  Uiso   1.00
H1005  H     0.60363   0.10515   0.67044   0.00000  Uiso   1.00
H1006  H     0.59703   0.04341   0.68153   0.00000  Uiso   1.00
H1007  H     0.36799   0.28018   0.75472   0.00000  Uiso   1.00
H1008  H     0.35467   0.26306   0.83432   0.00000  Uiso   1.00
H1009  H     0.40452   0.28781   0.82287   0.00000  Uiso   1.00
H1010  H     0.45673   0.28921   0.69809   0.00000  Uiso   1.00
H1011  H     0.39886   0.22564   0.83227   0.00000  Uiso   1.00
H1012  H     0.55396   0.20564   0.53020   0.00000  Uiso   1.00
H1013  H     0.47039   0.09705   0.97035   0.00000  Uiso   1.00
H1014  H     0.52203   0.23693   0.97083   0.00000  Uiso   1.00
H1015  H     0.44058   0.12713   0.53188   0.00000  Uiso   1.00
H1016  H     0.58930   0.20826   0.60475   0.00000  Uiso   1.00
N1017  N     0.50000   0.28402   0.75000   0.00000  Uiso   1.00
N1018  N     0.37743   0.25032   0.77082   0.00000  Uiso   1.00
N1019  N     0.50000   0.04931   0.75000   0.00000  Uiso   1.00
N1020  N     0.56070   0.21644   0.61592   0.00000  Uiso   1.00
N1021  N     0.46587   0.08773   0.88446   0.00000  Uiso   1.00
N1022  N     0.53361   0.24431   0.88599   0.00000  Uiso   1.00
N1023  N     0.43461   0.12061   0.61844   0.00000  Uiso   1.00
N1024  N     0.37240   0.07886   0.74438   0.00000  Uiso   1.00
N1025  N     0.62790   0.25382   0.76072   0.00000  Uiso   1.00
N1026  N     0.62301   0.08231   0.73332   0.00000  Uiso   1.00
O1027  O     0.43988   0.20625   0.74999   0.00000  Uiso   1.00
O1028  O     0.56012   0.12709   0.75001   0.00000  Uiso   1.00
O1029  O     0.56012   0.20625   0.75001   0.00000  Uiso   1.00
O1030  O     0.43988   0.12709   0.74999   0.00000  Uiso   1.00
O1031  O     0.50000   0.20626   0.68573   0.00000  Uiso   1.00
O1032  O     0.50000   0.12707   0.81427   0.00000  Uiso   1.00
O1033  O     0.50000   0.20626   0.81427   0.00000  Uiso   1.00
O1034  O     0.50000   0.12707   0.68573   0.00000  Uiso   1.00
C1035  C     0.75406   0.16627   0.75145   0.00000  Uiso   1.00
C1036  C     0.97998   0.20938   0.75667   0.00000  Uiso   1.00
C1037  C     0.97804   0.12459   0.74381   0.00000  Uiso   1.00
C1038  C     0.68891   0.20827   0.75975   0.00000  Uiso   1.00
C1039  C     0.86234   0.18909   0.54785   0.00000  Uiso   1.00
C1040  C     0.81531   0.12773   0.95304   0.00000  Uiso   1.00
C1041  C     0.84483   0.20595   0.95333   0.00000  Uiso   1.00
C1042  C     0.79930   0.14384   0.54886   0.00000  Uiso   1.00
C1043  C     0.86247   0.19111   0.59370   0.00000  Uiso   1.00
C1044  C     0.81625   0.12711   0.90705   0.00000  Uiso   1.00
C1045  C     0.84761   0.20555   0.90753   0.00000  Uiso   1.00
C1046  C     0.91269   0.16702   0.74951   0.00000  Uiso   1.00
C1047  C     0.79988   0.14370   0.59489   0.00000  Uiso   1.00
C1048  C     0.83172   0.16735   0.61733   0.00000  Uiso   1.00
C1049  C     0.83269   0.16618   0.88375   0.00000  Uiso   1.00
C1050  C     0.83045   0.16643   0.52505   0.00000  Uiso   1.00
C1051  C     0.82981   0.16680   0.97645   0.00000  Uiso   1.00
C1052  C     0.95740   0.16733   0.74953   0.00000  Uiso   1.00
C1053  C     0.70948   0.16568   0.75325   0.00000  Uiso   1.00
C1054  C     0.88794   0.26668   0.61642   0.00000  Uiso   1.00
C1055  C     0.82367   0.04596   0.88666   0.00000  Uiso   1.00
C1056  C     0.90987   0.23767   0.87829   0.00000  Uiso   1.00
C1057  C     0.83311   0.16682   0.66520   0.00000  Uiso   1.00
C1058  C     0.73606   0.15147   0.63266   0.00000  Uiso   1.00
C1059  C     0.71492   0.05544   0.78569   0.00000  Uiso   1.00
C1060  C     0.95394   0.27923   0.72005   0.00000  Uiso   1.00
C1061  C     0.95097   0.07418   0.68660   0.00000  Uiso   1.00
C1062  C     0.71741   0.25693   0.81756   0.00000  Uiso   1.00
C1063  C     0.83325   0.16652   0.83518   0.00000  Uiso   1.00
C1064  C     0.80938   0.02454   0.72109   0.00000  Uiso   1.00
C1065  C     0.85737   0.30883   0.77876   0.00000  Uiso   1.00
C1066  C     0.85770   0.02513   0.77846   0.00000  Uiso   1.00
C1067  C     0.80931   0.30821   0.72114   0.00000  Uiso   1.00
C1068  C     0.68694   0.12345   0.74723   0.00000  Uiso   1.00
Cu1069 Cu    0.83333   0.21355   0.75000   0.00000  Uiso   1.00
Cu1070 Cu    0.83333   0.11978   0.75000   0.00000  Uiso   1.00
H1071  H     0.79036   0.04308   0.69782   0.00000  Uiso   1.00
H1072  H     0.88759   0.28098   0.58227   0.00000  Uiso   1.00
H1073  H     0.91314   0.28415   0.63478   0.00000  Uiso   1.00
H1074  H     0.85882   0.27500   0.63283   0.00000  Uiso   1.00
H1075  H     0.76937   0.08084   0.89302   0.00000  Uiso   1.00
H1076  H     0.82405   0.03150   0.92074   0.00000  Uiso   1.00
H1077  H     0.85537   0.05405   0.87629   0.00000  Uiso   1.00
H1078  H     0.81056   0.01890   0.86425   0.00000  Uiso   1.00
H1079  H     0.86142   0.27620   0.90063   0.00000  Uiso   1.00
H1080  H     0.92619   0.23177   0.90999   0.00000  Uiso   1.00
H1081  H     0.92308   0.26956   0.86242   0.00000  Uiso   1.00
H1082  H     0.87646   0.29037   0.80186   0.00000  Uiso   1.00
H1083  H     0.91447   0.20724   0.85619   0.00000  Uiso   1.00
H1084  H     0.75636   0.09124   0.60271   0.00000  Uiso   1.00
H1085  H     0.72041   0.16707   0.60363   0.00000  Uiso   1.00
H1086  H     0.74872   0.18002   0.65369   0.00000  Uiso   1.00
H1087  H     0.71337   0.13115   0.65221   0.00000  Uiso   1.00
H1088  H     0.72451   0.07289   0.71801   0.00000  Uiso   1.00
H1089  H     0.69736   0.02200   0.78745   0.00000  Uiso   1.00
H1090  H     0.70666   0.07716   0.81457   0.00000  Uiso   1.00
H1091  H     0.74787   0.04768   0.78781   0.00000  Uiso   1.00
H1092  H     0.94087   0.25812   0.78592   0.00000  Uiso   1.00
H1093  H     0.87748   0.04412   0.80096   0.00000  Uiso   1.00
H1094  H     0.97205   0.31229   0.72032   0.00000  Uiso   1.00
H1095  H     0.92121   0.28776   0.71691   0.00000  Uiso   1.00
H1096  H     0.96304   0.25865   0.69074   0.00000  Uiso   1.00
H1097  H     0.96539   0.05304   0.75064   0.00000  Uiso   1.00
H1098  H     0.98076   0.06707   0.67106   0.00000  Uiso   1.00
H1099  H     0.93696   0.10515   0.67044   0.00000  Uiso   1.00
H1100  H     0.93036   0.04341   0.68153   0.00000  Uiso   1.00
H1101  H     0.70132   0.28018   0.75472   0.00000  Uiso   1.00
H1102  H     0.68800   0.26306   0.83432   0.00000  Uiso   1.00
H1103  H     0.73786   0.28781   0.82287   0.00000  Uiso   1.00
H1104  H     0.79006   0.28921   0.69809   0.00000  Uiso   1.00
H1105  H     0.73219   0.22564   0.83227   0.00000  Uiso   1.00
H1106  H     0.88729   0.20564   0.53020   0.00000  Uiso   1.00
H1107  H     0.80372   0.09705   0.97035   0.00000  Uiso   1.00
H1108  H     0.85536   0.23693   0.97083   0.00000  Uiso   1.00
H1109  H     0.77391   0.12713   0.53188   0.00000  Uiso   1.00
H1110  H     0.92264   0.20826   0.60475   0.00000  Uiso   1.00
N1111  N     0.83333   0.28402   0.75000   0.00000  Uiso   1.00
N1112  N     0.71076   0.25032   0.77082   0.00000  Uiso   1.00
N1113  N     0.83333   0.04931   0.75000   0.00000  Uiso   1.00
N1114  N     0.89403   0.21644   0.61592   0.00000  Uiso   1.00
N1115  N     0.79921   0.08773   0.88446   0.00000  Uiso   1.00
N1116  N     0.86694   0.24431   0.88599   0.00000  Uiso   1.00
N1117  N     0.76794   0.12061   0.61844   0.00000  Uiso   1.00
N1118  N     0.70573   0.07886   0.74438   0.00000  Uiso   1.00
N1119  N     0.96123   0.25382   0.76072   0.00000  Uiso   1.00
N1120  N     0.95634   0.08231   0.73332   0.00000  Uiso   1.00
O1121  O     0.77321   0.20625   0.74999   0.00000  Uiso   1.00
O1122  O     0.89345   0.12709   0.75001   0.00000  Uiso   1.00
O1123  O     0.89345   0.20625   0.75001   0.00000  Uiso   1.00
O1124  O     0.77321   0.12709   0.74999   0.00000  Uiso   1.00
O1125  O     0.83333   0.20626   0.68573   0.00000  Uiso   1.00
O1126  O     0.83334   0.12707   0.81427   0.00000  Uiso   1.00
O1127  O     0.83334   0.20626   0.81427   0.00000  Uiso   1.00
O1128  O     0.83333   0.12707   0.68573   0.00000  Uiso   1.00
C1129  C     0.08740   0.49960   0.75145   0.00000  Uiso   1.00
C1130  C     0.31331   0.54272   0.75667   0.00000  Uiso   1.00
C1131  C     0.31137   0.45792   0.74381   0.00000  Uiso   1.00
C1132  C     0.02225   0.54160   0.75975   0.00000  Uiso   1.00
C1133  C     0.19567   0.52242   0.54785   0.00000  Uiso   1.00
C1134  C     0.14864   0.46106   0.95304   0.00000  Uiso   1.00
C1135  C     0.17816   0.53929   0.95333   0.00000  Uiso   1.00
C1136  C     0.13263   0.47717   0.54886   0.00000  Uiso   1.00
C1137  C     0.19580   0.52445   0.59370   0.00000  Uiso   1.00
C1138  C     0.14959   0.46044   0.90705   0.00000  Uiso   1.00
C1139  C     0.18095   0.53888   0.90753   0.00000  Uiso   1.00
C1140  C     0.24602   0.50035   0.74951   0.00000  Uiso   1.00
C1141  C     0.13322   0.47704   0.59489   0.00000  Uiso   1.00
C1142  C     0.16506   0.50068   0.61733   0.00000  Uiso   1.00
C1143  C     0.16602   0.49952   0.88375   0.00000  Uiso   1.00
C1144  C     0.16378   0.49976   0.52505   0.00000  Uiso   1.00
C1145  C     0.16315   0.50014   0.97645   0.00000  Uiso   1.00
C1146  C     0.29073   0.50067   0.74953   0.00000  Uiso   1.00
C1147  C     0.04281   0.49902   0.75325   0.00000  Uiso   1.00
C1148  C     0.22127   0.60001   0.61642   0.00000  Uiso   1.00
C1149  C     0.15700   0.37929   0.88666   0.00000  Uiso   1.00
C1150  C     0.24321   0.57101   0.87829   0.00000  Uiso   1.00
C1151  C     0.16644   0.50016   0.66520   0.00000  Uiso   1.00
C1152  C     0.06939   0.48480   0.63266   0.00000  Uiso   1.00
C1153  C     0.04825   0.38877   0.78569   0.00000  Uiso   1.00
C1154  C     0.28727   0.61257   0.72005   0.00000  Uiso   1.00
C1155  C     0.28431   0.40751   0.68660   0.00000  Uiso   1.00
C1156  C     0.05074   0.59026   0.81756   0.00000  Uiso   1.00
C1157  C     0.16658   0.49985   0.83518   0.00000  Uiso   1.00
C1158  C     0.14271   0.35788   0.72109   0.00000  Uiso   1.00
C1159  C     0.19070   0.64216   0.77876   0.00000  Uiso   1.00
C1160  C     0.19103   0.35846   0.77846   0.00000  Uiso   1.00
C1161  C     0.14264   0.64154   0.72114   0.00000  Uiso   1.00
C1162  C     0.02027   0.45678   0.74723   0.00000  Uiso   1.00
Cu1163 Cu    0.16667   0.54689   0.75000   0.00000  Uiso   1.00
Cu1164 Cu    0.16667   0.45311   0.75000   0.00000  Uiso   1.00
H1165  H     0.12369   0.37641   0.69782   0.00000  Uiso   1.00
H1166  H     0.22092   0.61432   0.58227   0.00000  Uiso   1.00
H1167  H     0.24647   0.61749   0.63478   0.00000  Uiso   1.00
H1168  H     0.19215   0.60833   0.63283   0.00000  Uiso   1.00
H1169  H     0.10271   0.41417   0.89302   0.00000  Uiso   1.00
H1170  H     0.15739   0.36484   0.92074   0.00000  Uiso   1.00
H1171  H     0.18870   0.38738   0.87629   0.00000  Uiso   1.00
H1172  H     0.14390   0.35223   0.86425   0.00000  Uiso   1.00
H1173  H     0.19476   0.60954   0.90063   0.00000  Uiso   1.00
H1174  H     0.25952   0.56510   0.90999   0.00000  Uiso   1.00
H1175  H     0.25641   0.60290   0.86242   0.00000  Uiso   1.00
H1176  H     0.20979   0.62370   0.80186   0.00000  Uiso   1.00
H1177  H     0.24781   0.54057   0.85619   0.00000  Uiso   1.00
H1178  H     0.08969   0.42457   0.60271   0.00000  Uiso   1.00
H1179  H     0.05374   0.50041   0.60363   0.00000  Uiso   1.00
H1180  H     0.08205   0.51336   0.65369   0.00000  Uiso   1.00
H1181  H     0.04670   0.46448   0.65221   0.00000  Uiso   1.00
H1182  H     0.05784   0.40622   0.71801   0.00000  Uiso   1.00
H1183  H     0.03070   0.35534   0.78745   0.00000  Uiso   1.00
H1184  H     0.03999   0.41049   0.81457   0.00000  Uiso   1.00
H1185  H     0.08121   0.38101   0.78781   0.00000  Uiso   1.00
H1186  H     0.27421   0.59145   0.78592   0.00000  Uiso   1.00
H1187  H     0.21081   0.37745   0.80096   0.00000  Uiso   1.00
H1188  H     0.30538   0.64563   0.72032   0.00000  Uiso   1.00
H1189  H     0.25455   0.62109   0.71691   0.00000  Uiso   1.00
H1190  H     0.29637   0.59198   0.69074   0.00000  Uiso   1.00
H1191  H     0.29872   0.38638   0.75064   0.00000  Uiso   1.00
H1192  H     0.31410   0.40041   0.67106   0.00000  Uiso   1.00
H1193  H     0.27029   0.43849   0.67044   0.00000  Uiso   1.00
H1194  H     0.26369   0.37674   0.68153   0.00000  Uiso   1.00
H1195  H     0.03465   0.61352   0.75472   0.00000  Uiso   1.00
H1196  H     0.02134   0.59640   0.83432   0.00000  Uiso   1.00
H1197  H     0.07119   0.62114   0.82287   0.00000  Uiso   1.00
H1198  H     0.12339   0.62254   0.69809   0.00000  Uiso   1.00
H1199  H     0.06553   0.55898   0.83227   0.00000  Uiso   1.00
H1200  H     0.22063   0.53897   0.53020   0.00000  Uiso   1.00
H1201  H     0.13706   0.43038   0.97035   0.00000  Uiso   1.00
H1202  H     0.18869   0.57026   0.97083   0.00000  Uiso   1.00
H1203  H     0.10724   0.46047   0.53188   0.00000  Uiso   1.00
H1204  H     0.25597   0.54159   0.60475   0.00000  Uiso   1.00
N1205  N     0.16667   0.61736   0.75000   0.00000  Uiso   1.00
N1206  N     0.04409   0.58365   0.77082   0.00000  Uiso   1.00
N1207  N     0.16667   0.38264   0.75000   0.00000  Uiso   1.00
N1208  N     0.22736   0.54978   0.61592   0.00000  Uiso   1.00
N1209  N     0.13254   0.42106   0.88446   0.00000  Uiso   1.00
N1210  N     0.20027   0.57764   0.88599   0.00000  Uiso   1.00
N1211  N     0.10127   0.45395   0.61844   0.00000  Uiso   1.00
N1212  N     0.03906   0.41220   0.74438   0.00000  Uiso   1.00
N1213  N     0.29457   0.58715   0.76072   0.00000  Uiso   1.00
N1214  N     0.28967   0.41564   0.73332   0.00000  Uiso   1.00
O1215  O     0.10655   0.53958   0.74999   0.00000  Uiso   1.00
O1216  O     0.22679   0.46042   0.75001   0.00000  Uiso   1.00
O1217  O     0.22679   0.53958   0.75001   0.00000  Uiso   1.00
O1218  O     0.10655   0.46042   0.74999   0.00000  Uiso   1.00
O1219  O     0.16666   0.53959   0.68573   0.00000  Uiso   1.00
O1220  O     0.16667   0.46041   0.81427   0.00000  Uiso   1.00
O1221  O     0.16667   0.53959   0.81427   0.00000  Uiso   1.00
O1222  O     0.16666   0.46041   0.68573   0.00000  Uiso   1.00
C1223  C     0.42073   0.49960   0.75145   0.00000  Uiso   1.00
C1224  C     0.64664   0.54272   0.75667   0.00000  Uiso   1.00
C1225  C     0.64470   0.45792   0.74381   0.00000  Uiso   1.00
C1226  C     0.35558   0.54160   0.75975   0.00000  Uiso   1.00
C1227  C     0.52901   0.52242   0.54785   0.00000  Uiso   1.00
C1228  C     0.48197   0.46106   0.95304   0.00000  Uiso   1.00
C1229  C     0.51150   0.53929   0.95333   0.00000  Uiso   1.00
C1230  C     0.46596   0.47717   0.54886   0.00000  Uiso   1.00
C1231  C     0.52913   0.52445   0.59370   0.00000  Uiso   1.00
C1232  C     0.48292   0.46044   0.90705   0.00000  Uiso   1.00
C1233  C     0.51428   0.53888   0.90753   0.00000  Uiso   1.00
C1234  C     0.57935   0.50035   0.74951   0.00000  Uiso   1.00
C1235  C     0.46655   0.47704   0.59489   0.00000  Uiso   1.00
C1236  C     0.49839   0.50068   0.61733   0.00000  Uiso   1.00
C1237  C     0.49936   0.49952   0.88375   0.00000  Uiso   1.00
C1238  C     0.49712   0.49976   0.52505   0.00000  Uiso   1.00
C1239  C     0.49648   0.50014   0.97645   0.00000  Uiso   1.00
C1240  C     0.62406   0.50067   0.74953   0.00000  Uiso   1.00
C1241  C     0.37615   0.49902   0.75325   0.00000  Uiso   1.00
C1242  C     0.55461   0.60001   0.61642   0.00000  Uiso   1.00
C1243  C     0.49034   0.37929   0.88666   0.00000  Uiso   1.00
C1244  C     0.57654   0.57101   0.87829   0.00000  Uiso   1.00
C1245  C     0.49977   0.50016   0.66520   0.00000  Uiso   1.00
C1246  C     0.40272   0.48480   0.63266   0.00000  Uiso   1.00
C1247  C     0.38159   0.38877   0.78569   0.00000  Uiso   1.00
C1248  C     0.62060   0.61257   0.72005   0.00000  Uiso   1.00
C1249  C     0.61764   0.40751   0.68660   0.00000  Uiso   1.00
C1250  C     0.38408   0.59026   0.81756   0.00000  Uiso   1.00
C1251  C     0.49991   0.49985   0.83518   0.00000  Uiso   1.00
C1252  C     0.47604   0.35788   0.72109   0.00000  Uiso   1.00
C1253  C     0.52404   0.64216   0.77876   0.00000  Uiso   1.00
C1254  C     0.52436   0.35846   0.77846   0.00000  Uiso   1.00
C1255  C     0.47597   0.64154   0.72114   0.00000  Uiso   1.00
C1256  C     0.35360   0.45678   0.74723   0.00000  Uiso   1.00
Cu1257 Cu    0.50000   0.54689   0.75000   0.00000  Uiso   1.00
Cu1258 Cu    0.50000   0.45311   0.75000   0.00000  Uiso   1.00
H1259  H     0.45703   0.37641   0.69782   0.00000  Uiso   1.00
H1260  H     0.55425   0.61432   0.58227   0.00000  Uiso   1.00
H1261  H     0.57980   0.61749   0.63478   0.00000  Uiso   1.00
H1262  H     0.52549   0.60833   0.63283   0.00000  Uiso   1.00
H1263  H     0.43604   0.41417   0.89302   0.00000  Uiso   1.00
H1264  H     0.49072   0.36484   0.92074   0.00000  Uiso   1.00
H1265  H     0.52204   0.38738   0.87629   0.00000  Uiso   1.00
H1266  H     0.47723   0.35223   0.86425   0.00000  Uiso   1.00
H1267  H     0.52809   0.60954   0.90063   0.00000  Uiso   1.00
H1268  H     0.59286   0.56510   0.90999   0.00000  Uiso   1.00
H1269  H     0.58975   0.60290   0.86242   0.00000  Uiso   1.00
H1270  H     0.54313   0.62370   0.80186   0.00000  Uiso   1.00
H1271  H     0.58114   0.54057   0.85619   0.00000  Uiso   1.00
H1272  H     0.42303   0.42457   0.60271   0.00000  Uiso   1.00
H1273  H     0.38708   0.50041   0.60363   0.00000  Uiso   1.00
H1274  H     0.41538   0.51336   0.65369   0.00000  Uiso   1.00
H1275  H     0.38003   0.46448   0.65221   0.00000  Uiso   1.00
H1276  H     0.39117   0.40622   0.71801   0.00000  Uiso   1.00
H1277  H     0.36403   0.35534   0.78745   0.00000  Uiso   1.00
H1278  H     0.37333   0.41049   0.81457   0.00000  Uiso   1.00
H1279  H     0.41454   0.38101   0.78781   0.00000  Uiso   1.00
H1280  H     0.60754   0.59145   0.78592   0.00000  Uiso   1.00
H1281  H     0.54414   0.37745   0.80096   0.00000  Uiso   1.00
H1282  H     0.63871   0.64563   0.72032   0.00000  Uiso   1.00
H1283  H     0.58788   0.62109   0.71691   0.00000  Uiso   1.00
H1284  H     0.62971   0.59198   0.69074   0.00000  Uiso   1.00
H1285  H     0.63205   0.38638   0.75064   0.00000  Uiso   1.00
H1286  H     0.64743   0.40041   0.67106   0.00000  Uiso   1.00
H1287  H     0.60363   0.43849   0.67044   0.00000  Uiso   1.00
H1288  H     0.59703   0.37674   0.68153   0.00000  Uiso   1.00
H1289  H     0.36799   0.61352   0.75472   0.00000  Uiso   1.00
H1290  H     0.35467   0.59640   0.83432   0.00000  Uiso   1.00
H1291  H     0.40452   0.62114   0.82287   0.00000  Uiso   1.00
H1292  H     0.45673   0.62254   0.69809   0.00000  Uiso   1.00
H1293  H     0.39886   0.55898   0.83227   0.00000  Uiso   1.00
H1294  H     0.55396   0.53897   0.53020   0.00000  Uiso   1.00
H1295  H     0.47039   0.43038   0.97035   0.00000  Uiso   1.00
H1296  H     0.52203   0.57026   0.97083   0.00000  Uiso   1.00
H1297  H     0.44058   0.46047   0.53188   0.00000  Uiso   1.00
H1298  H     0.58930   0.54159   0.60475   0.00000  Uiso   1.00
N1299  N     0.50000   0.61736   0.75000   0.00000  Uiso   1.00
N1300  N     0.37743   0.58365   0.77082   0.00000  Uiso   1.00
N1301  N     0.50000   0.38264   0.75000   0.00000  Uiso   1.00
N1302  N     0.56070   0.54978   0.61592   0.00000  Uiso   1.00
N1303  N     0.46587   0.42106   0.88446   0.00000  Uiso   1.00
N1304  N     0.53361   0.57764   0.88599   0.00000  Uiso   1.00
N1305  N     0.43461   0.45395   0.61844   0.00000  Uiso   1.00
N1306  N     0.37240   0.41220   0.74438   0.00000  Uiso   1.00
N1307  N     0.62790   0.58715   0.76072   0.00000  Uiso   1.00
N1308  N     0.62301   0.41564   0.73332   0.00000  Uiso   1.00
O1309  O     0.43988   0.53958   0.74999   0.00000  Uiso   1.00
O1310  O     0.56012   0.46042   0.75001   0.00000  Uiso   1.00
O1311  O     0.56012   0.53958   0.75001   0.00000  Uiso   1.00
O1312  O     0.43988   0.46042   0.74999   0.00000  Uiso   1.00
O1313  O     0.50000   0.53959   0.68573   0.00000  Uiso   1.00
O1314  O     0.50000   0.46041   0.81427   0.00000  Uiso   1.00
O1315  O     0.50000   0.53959   0.81427   0.00000  Uiso   1.00
O1316  O     0.50000   0.46041   0.68573   0.00000  Uiso   1.00
C1317  C     0.75406   0.49960   0.75145   0.00000  Uiso   1.00
C1318  C     0.97998   0.54272   0.75667   0.00000  Uiso   1.00
C1319  C     0.97804   0.45792   0.74381   0.00000  Uiso   1.00
C1320  C     0.68891   0.54160   0.75975   0.00000  Uiso   1.00
C1321  C     0.86234   0.52242   0.54785   0.00000  Uiso   1.00
C1322  C     0.81531   0.46106   0.95304   0.00000  Uiso   1.00
C1323  C     0.84483   0.53929   0.95333   0.00000  Uiso   1.00
C1324  C     0.79930   0.47717   0.54886   0.00000  Uiso   1.00
C1325  C     0.86247   0.52445   0.59370   0.00000  Uiso   1.00
C1326  C     0.81625   0.46044   0.90705   0.00000  Uiso   1.00
C1327  C     0.84761   0.53888   0.90753   0.00000  Uiso   1.00
C1328  C     0.91269   0.50035   0.74951   0.00000  Uiso   1.00
C1329  C     0.79988   0.47704   0.59489   0.00000  Uiso   1.00
C1330  C     0.83172   0.50068   0.61733   0.00000  Uiso   1.00
C1331  C     0.83269   0.49952   0.88375   0.00000  Uiso   1.00
C1332  C     0.83045   0.49976   0.52505   0.00000  Uiso   1.00
C1333  C     0.82981   0.50014   0.97645   0.00000  Uiso   1.00
C1334  C     0.95740   0.50067   0.74953   0.00000  Uiso   1.00
C1335  C     0.70948   0.49902   0.75325   0.00000  Uiso   1.00
C1336  C     0.88794   0.60001   0.61642   0.00000  Uiso   1.00
C1337  C     0.82367   0.37929   0.88666   0.00000  Uiso   1.00
C1338  C     0.90987   0.57101   0.87829   0.00000  Uiso   1.00
C1339  C     0.83311   0.50016   0.66520   0.00000  Uiso   1.00
C1340  C     0.73606   0.48480   0.63266   0.00000  Uiso   1.00
C1341  C     0.71492   0.38877   0.78569   0.00000  Uiso   1.00
C1342  C     0.95394   0.61257   0.72005   0.00000  Uiso   1.00
C1343  C     0.95097   0.40751   0.68660   0.00000  Uiso   1.00
C1344  C     0.71741   0.59026   0.81756   0.00000  Uiso   1.00
C1345  C     0.83325   0.49985   0.83518   0.00000  Uiso   1.00
C1346  C     0.80938   0.35788   0.72109   0.00000  Uiso   1.00
C1347  C     0.85737   0.64216   0.77876   0.00000  Uiso   1.00
C1348  C     0.85770   0.35846   0.77846   0.00000  Uiso   1.00
C1349  C     0.80931   0.64154   0.72114   0.00000  Uiso   1.00
C1350  C     0.68694   0.45678   0.74723   0.00000  Uiso   1.00
Cu1351 Cu    0.83333   0.54689   0.75000   0.00000  Uiso   1.00
Cu1352 Cu    0.83333   0.45311   0.75000   0.00000  Uiso   1.00
H1353  H     0.79036   0.37641   0.69782   0.00000  Uiso   1.00
H1354  H     0.88759   0.61432   0.58227   0.00000  Uiso   1.00
H1355  H     0.91314   0.61749   0.63478   0.00000  Uiso   1.00
H1356  H     0.85882   0.60833   0.63283   0.00000  Uiso   1.00
H1357  H     0.76937   0.41417   0.89302   0.00000  Uiso   1.00
H1358  H     0.82405   0.36484   0.92074   0.00000  Uiso   1.00
H1359  H     0.85537   0.38738   0.87629   0.00000  Uiso   1.00
H1360  H     0.81056   0.35223   0.86425   0.00000  Uiso   1.00
H1361  H     0.86142   0.60954   0.90063   0.00000  Uiso   1.00
H1362  H     0.92619   0.56510   0.90999   0.00000  Uiso   1.00
H1363  H     0.92308   0.60290   0.86242   0.00000  Uiso   1.00
H1364  H     0.87646   0.62370   0.80186   0.00000  Uiso   1.00
H1365  H     0.91447   0.54057   0.85619   0.00000  Uiso   1.00
H1366  H     0.75636   0.42457   0.60271   0.00000  Uiso   1.00
H1367  H     0.72041   0.50041   0.60363   0.00000  Uiso   1.00
H1368  H     0.74872   0.51336   0.65369   0.00000  Uiso   1.00
H1369  H     0.71337   0.46448   0.65221   0.00000  Uiso   1.00
H1370  H     0.72451   0.40622   0.71801   0.00000  Uiso   1.00
H1371  H     0.69736   0.35534   0.78745   0.00000  Uiso   1.00
H1372  H     0.70666   0.41049   0.81457   0.00000  Uiso   1.00
H1373  H     0.74787   0.38101   0.78781   0.00000  Uiso   1.00
H1374  H     0.94087   0.59145   0.78592   0.00000  Uiso   1.00
H1375  H     0.87748   0.37745   0.80096   0.00000  Uiso   1.00
H1376  H     0.97205   0.64563   0.72032   0.00000  Uiso   1.00
H1377  H     0.92121   0.62109   0.71691   0.00000  Uiso   1.00
H1378  H     0.96304   0.59198   0.69074   0.00000  Uiso   1.00
H1379  H     0.96539   0.38638   0.75064   0.00000  Uiso   1.00
H1380  H     0.98076   0.40041   0.67106   0.00000  Uiso   1.00
H1381  H     0.93696   0.43849   0.67044   0.00000  Uiso   1.00
H1382  H     0.93036   0.37674   0.68153   0.00000  Uiso   1.00
H1383  H     0.70132   0.61352   0.75472   0.00000  Uiso   1.00
H1384  H     0.68800   0.59640   0.83432   0.00000  Uiso   1.00
H1385  H     0.73786   0.62114   0.82287   0.00000  Uiso   1.00
H1386  H     0.79006   0.62254   0.69809   0.00000  Uiso   1.00
H1387  H     0.73219   0.55898   0.83227   0.00000  Uiso   1.00
H1388  H     0.88729   0.53897   0.53020   0.00000  Uiso   1.00
H1389  H     0.80372   0.43038   0.97035   0.00000  Uiso   1.00
H1390  H     0.85536   0.57026   0.97083   0.00000  Uiso   1.00
H1391  H     0.77391   0.46047   0.53188   0.00000  Uiso   1.00
H1392  H     0.92264   0.54159   0.60475   0.00000  Uiso   1.00
N1393  N     0.83333   0.61736   0.75000   0.00000  Uiso   1.00
N1394  N     0.71076   0.58365   0.77082   0.00000  Uiso   1.00
N1395  N     0.83333   0.38264   0.75000   0.00000  Uiso   1.00
N1396  N     0.89403   0.54978   0.61592   0.00000  Uiso   1.00
N1397  N     0.79921   0.42106   0.88446   0.00000  Uiso   1.00
N1398  N     0.86694   0.57764   0.88599   0.00000  Uiso   1.00
N1399  N     0.76794   0.45395   0.61844   0.00000  Uiso   1.00
N1400  N     0.70573   0.41220   0.74438   0.00000  Uiso   1.00
N1401  N     0.96123   0.58715   0.76072   0.00000  Uiso   1.00
N1402  N     0.95634   0.41564   0.73332   0.00000  Uiso   1.00
O1403  O     0.77321   0.53958   0.74999   0.00000  Uiso   1.00
O1404  O     0.89345   0.46042   0.75001   0.00000  Uiso   1.00
O1405  O     0.89345   0.53958   0.75001   0.00000  Uiso   1.00
O1406  O     0.77321   0.46042   0.74999   0.00000  Uiso   1.00
O1407  O     0.83333   0.53959   0.68573   0.00000  Uiso   1.00
O1408  O     0.83334   0.46041   0.81427   0.00000  Uiso   1.00
O1409  O     0.83334   0.53959   0.81427   0.00000  Uiso   1.00
O1410  O     0.83333   0.46041   0.68573   0.00000  Uiso   1.00
C1411  C     0.08740   0.83293   0.75145   0.00000  Uiso   1.00
C1412  C     0.31331   0.87605   0.75667   0.00000  Uiso   1.00
C1413  C     0.31137   0.79125   0.74381   0.00000  Uiso   1.00
C1414  C     0.02225   0.87494   0.75975   0.00000  Uiso   1.00
C1415  C     0.19567   0.85576   0.54785   0.00000  Uiso   1.00
C1416  C     0.14864   0.79439   0.95304   0.00000  Uiso   1.00
C1417  C     0.17816   0.87262   0.95333   0.00000  Uiso   1.00
C1418  C     0.13263   0.81050   0.54886   0.00000  Uiso   1.00
C1419  C     0.19580   0.85778   0.59370   0.00000  Uiso   1.00
C1420  C     0.14959   0.79378   0.90705   0.00000  Uiso   1.00
C1421  C     0.18095   0.87221   0.90753   0.00000  Uiso   1.00
C1422  C     0.24602   0.83368   0.74951   0.00000  Uiso   1.00
C1423  C     0.13322   0.81037   0.59489   0.00000  Uiso   1.00
C1424  C     0.16506   0.83402   0.61733   0.00000  Uiso   1.00
C1425  C     0.16602   0.83285   0.88375   0.00000  Uiso   1.00
C1426  C     0.16378   0.83310   0.52505   0.00000  Uiso   1.00
C1427  C     0.16315   0.83347   0.97645   0.00000  Uiso   1.00
C1428  C     0.29073   0.83400   0.74953   0.00000  Uiso   1.00
C1429  C     0.04281   0.83235   0.75325   0.00000  Uiso   1.00
C1430  C     0.22127   0.93334   0.61642   0.00000  Uiso   1.00
C1431  C     0.15700   0.71262   0.88666   0.00000  Uiso   1.00
C1432  C     0.24321   0.90434   0.87829   0.00000  Uiso   1.00
C1433  C     0.16644   0.83349   0.66520   0.00000  Uiso   1.00
C1434  C     0.06939   0.81813   0.63266   0.00000  Uiso   1.00
C1435  C     0.04825   0.72211   0.78569   0.00000  Uiso   1.00
C1436  C     0.28727   0.94590   0.72005   0.00000  Uiso   1.00
C1437  C     0.28431   0.74085   0.68660   0.00000  Uiso   1.00
C1438  C     0.05074   0.92359   0.81756   0.00000  Uiso   1.00
C1439  C     0.16658   0.83318   0.83518   0.00000  Uiso   1.00
C1440  C     0.14271   0.69121   0.72109   0.00000  Uiso   1.00
C1441  C     0.19070   0.97549   0.77876   0.00000  Uiso   1.00
C1442  C     0.19103   0.69179   0.77846   0.00000  Uiso   1.00
C1443  C     0.14264   0.97488   0.72114   0.00000  Uiso   1.00
C1444  C     0.02027   0.79011   0.74723   0.00000  Uiso   1.00
Cu1445 Cu    0.16667   0.88022   0.75000   0.00000  Uiso   1.00
Cu1446 Cu    0.16667   0.78645   0.75000   0.00000  Uiso   1.00
H1447  H     0.12369   0.70974   0.69782   0.00000  Uiso   1.00
H1448  H     0.22092   0.94765   0.58227   0.00000  Uiso   1.00
H1449  H     0.24647   0.95082   0.63478   0.00000  Uiso   1.00
H1450  H     0.19215   0.94167   0.63283   0.00000  Uiso   1.00
H1451  H     0.10271   0.74751   0.89302   0.00000  Uiso   1.00
H1452  H     0.15739   0.69817   0.92074   0.00000  Uiso   1.00
H1453  H     0.18870   0.72071   0.87629   0.00000  Uiso   1.00
H1454  H     0.14390   0.68556   0.86425   0.00000  Uiso   1.00
H1455  H     0.19476   0.94287   0.90063   0.00000  Uiso   1.00
H1456  H     0.25952   0.89843   0.90999   0.00000  Uiso   1.00
H1457  H     0.25641   0.93623   0.86242   0.00000  Uiso   1.00
H1458  H     0.20979   0.95703   0.80186   0.00000  Uiso   1.00
H1459  H     0.24781   0.87391   0.85619   0.00000  Uiso   1.00
H1460  H     0.08969   0.75790   0.60271   0.00000  Uiso   1.00
H1461  H     0.05374   0.83374   0.60363   0.00000  Uiso   1.00
H1462  H     0.08205   0.84669   0.65369   0.00000  Uiso   1.00
H1463  H     0.04670   0.79781   0.65221   0.00000  Uiso   1.00
H1464  H     0.05784   0.73955   0.71801   0.00000  Uiso   1.00
H1465  H     0.03070   0.68867   0.78745   0.00000  Uiso   1.00
H1466  H     0.03999   0.74383   0.81457   0.00000  Uiso   1.00
H1467  H     0.08121   0.71435   0.78781   0.00000  Uiso   1.00
H1468  H     0.27421   0.92479   0.78592   0.00000  Uiso   1.00
H1469  H     0.21081   0.71079   0.80096   0.00000  Uiso   1.00
H1470  H     0.30538   0.97896   0.72032   0.00000  Uiso   1.00
H1471  H     0.25455   0.95443   0.71691   0.00000  Uiso   1.00
H1472  H     0.29637   0.92532   0.69074   0.00000  Uiso   1.00
H1473  H     0.29872   0.71971   0.75064   0.00000  Uiso   1.00
H1474  H     0.31410   0.73374   0.67106   0.00000  Uiso   1.00
H1475  H     0.27029   0.77182   0.67044   0.00000  Uiso   1.00
H1476  H     0.26369   0.71007   0.68153   0.00000  Uiso   1.00
H1477  H     0.03465   0.94685   0.75472   0.00000  Uiso   1.00
H1478  H     0.02134   0.92973   0.83432   0.00000  Uiso   1.00
H1479  H     0.07119   0.95447   0.82287   0.00000  Uiso   1.00
H1480  H     0.12339   0.95587   0.69809   0.00000  Uiso   1.00
H1481  H     0.06553   0.89231   0.83227   0.00000  Uiso   1.00
H1482  H     0.22063   0.87230   0.53020   0.00000  Uiso   1.00
H1483  H     0.13706   0.76371   0.97035   0.00000  Uiso   1.00
H1484  H     0.18869   0.90360   0.97083   0.00000  Uiso   1.00
H1485  H     0.10724   0.79380   0.53188   0.00000  Uiso   1.00
H1486  H     0.25597   0.87493   0.60475   0.00000  Uiso   1.00
N1487  N     0.16667   0.95069   0.75000   0.00000  Uiso   1.00
N1488  N     0.04409   0.91699   0.77082   0.00000  Uiso   1.00
N1489  N     0.16667   0.71598   0.75000   0.00000  Uiso   1.00
N1490  N     0.22736   0.88311   0.61592   0.00000  Uiso   1.00
N1491  N     0.13254   0.75439   0.88446   0.00000  Uiso   1.00
N1492  N     0.20027   0.91098   0.88599   0.00000  Uiso   1.00
N1493  N     0.10127   0.78728   0.61844   0.00000  Uiso   1.00
N1494  N     0.03906   0.74553   0.74438   0.00000  Uiso   1.00
N1495  N     0.29457   0.92049   0.76072   0.00000  Uiso   1.00
N1496  N     0.28967   0.74897   0.73332   0.00000  Uiso   1.00
O1497  O     0.10655   0.87291   0.74999   0.00000  Uiso   1.00
O1498  O     0.22679   0.79375   0.75001   0.00000  Uiso   1.00
O1499  O     0.22679   0.87291   0.75001   0.00000  Uiso   1.00
O1500  O     0.10655   0.79375   0.74999   0.00000  Uiso   1.00
O1501  O     0.16666   0.87293   0.68573   0.00000  Uiso   1.00
O1502  O     0.16667   0.79374   0.81427   0.00000  Uiso   1.00
O1503  O     0.16667   0.87293   0.81427   0.00000  Uiso   1.00
O1504  O     0.16666   0.79374   0.68573   0.00000  Uiso   1.00
C1505  C     0.42073   0.83293   0.75145   0.00000  Uiso   1.00
C1506  C     0.64664   0.87605   0.75667   0.00000  Uiso   1.00
C1507  C     0.64470   0.79125   0.74381   0.00000  Uiso   1.00
C1508  C     0.35558   0.87494   0.75975   0.00000  Uiso   1.00
C1509  C     0.52901   0.85576   0.54785   0.00000  Uiso   1.00
C1510  C     0.48197   0.79439   0.95304   0.00000  Uiso   1.00
C1511  C     0.51150   0.87262   0.95333   0.00000  Uiso   1.00
C1512  C     0.46596   0.81050   0.54886   0.00000  Uiso   1.00
C1513  C     0.52913   0.85778   0.59370   0.00000  Uiso   1.00
C1514  C     0.48292   0.79378   0.90705   0.00000  Uiso   1.00
C1515  C     0.51428   0.87221   0.90753   0.00000  Uiso   1.00
C1516  C     0.57935   0.83368   0.74951   0.00000  Uiso   1.00
C1517  C     0.46655   0.81037   0.59489   0.00000  Uiso   1.00
C1518  C     0.49839   0.83402   0.61733   0.00000  Uiso   1.00
C1519  C     0.49936   0.83285   0.88375   0.00000  Uiso   1.00
C1520  C     0.49712   0.83310   0.52505   0.00000  Uiso   1.00
C1521  C     0.49648   0.83347   0.97645   0.00000  Uiso   1.00
C1522  C     0.62406   0.83400   0.74953   0.00000  Uiso   1.00
C1523  C     0.37615   0.83235   0.75325   0.00000  Uiso   1.00
C1524  C     0.55461   0.93334   0.61642   0.00000  Uiso   1.00
C1525  C     0.49034   0.71262   0.88666   0.00000  Uiso   1.00
C1526  C     0.57654   0.90434   0.87829   0.00000  Uiso   1.00
C1527  C     0.49977   0.83349   0.66520   0.00000  Uiso   1.00
C1528  C     0.40272   0.81813   0.63266   0.00000  Uiso   1.00
C1529  C     0.38159   0.72211   0.78569   0.00000  Uiso   1.00
C1530  C     0.62060   0.94590   0.72005   0.00000  Uiso   1.00
C1531  C     0.61764   0.74085   0.68660   0.00000  Uiso   1.00
C1532  C     0.38408   0.92359   0.81756   0.00000  Uiso   1.00
C1533  C     0.49991   0.83318   0.83518   0.00000  Uiso   1.00
C1534  C     0.47604   0.69121   0.72109   0.00000  Uiso   1.00
C1535  C     0.52404   0.97549   0.77876   0.00000  Uiso   1.00
C1536  C     0.52436   0.69179   0.77846   0.00000  Uiso   1.00
C1537  C     0.47597   0.97488   0.72114   0.00000  Uiso   1.00
C1538  C     0.35360   0.79011   0.74723   0.00000  Uiso   1.00
Cu1539 Cu    0.50000   0.88022   0.75000   0.00000  Uiso   1.00
Cu1540 Cu    0.50000   0.78645   0.75000   0.00000  Uiso   1.00
H1541  H     0.45703   0.70974   0.69782   0.00000  Uiso   1.00
H1542  H     0.55425   0.94765   0.58227   0.00000  Uiso   1.00
H1543  H     0.57980   0.95082   0.63478   0.00000  Uiso   1.00
H1544  H     0.52549   0.94167   0.63283   0.00000  Uiso   1.00
H1545  H     0.43604   0.74751   0.89302   0.00000  Uiso   1.00
H1546  H     0.49072   0.69817   0.92074   0.00000  Uiso   1.00
H1547  H     0.52204   0.72071   0.87629   0.00000  Uiso   1.00
H1548  H     0.47723   0.68556   0.86425   0.00000  Uiso   1.00
H1549  H     0.52809   0.94287   0.90063   0.00000  Uiso   1.00
H1550  H     0.59286   0.89843   0.90999   0.00000  Uiso   1.00
H1551  H     0.58975   0.93623   0.86242   0.00000  Uiso   1.00
H1552  H     0.54313   0.95703   0.80186   0.00000  Uiso   1.00
H1553  H     0.58114   0.87391   0.85619   0.00000  Uiso   1.00
H1554  H     0.42303   0.75790   0.60271   0.00000  Uiso   1.00
H1555  H     0.38708   0.83374   0.60363   0.00000  Uiso   1.00
H1556  H     0.41538   0.84669   0.65369   0.00000  Uiso   1.00
H1557  H     0.38003   0.79781   0.65221   0.00000  Uiso   1.00
H1558  H     0.39117   0.73955   0.71801   0.00000  Uiso   1.00
H1559  H     0.36403   0.68867   0.78745   0.00000  Uiso   1.00
H1560  H     0.37333   0.74383   0.81457   0.00000  Uiso   1.00
H1561  H     0.41454   0.71435   0.78781   0.00000  Uiso   1.00
H1562  H     0.60754   0.92479   0.78592   0.00000  Uiso   1.00
H1563  H     0.54414   0.71079   0.80096   0.00000  Uiso   1.00
H1564  H     0.63871   0.97896   0.72032   0.00000  Uiso   1.00
H1565  H     0.58788   0.95443   0.71691   0.00000  Uiso   1.00
H1566  H     0.62971   0.92532   0.69074   0.00000  Uiso   1.00
H1567  H     0.63205   0.71971   0.75064   0.00000  Uiso   1.00
H1568  H     0.64743   0.73374   0.67106   0.00000  Uiso   1.00
H1569  H     0.60363   0.77182   0.67044   0.00000  Uiso   1.00
H1570  H     0.59703   0.71007   0.68153   0.00000  Uiso   1.00
H1571  H     0.36799   0.94685   0.75472   0.00000  Uiso   1.00
H1572  H     0.35467   0.92973   0.83432   0.00000  Uiso   1.00
H1573  H     0.40452   0.95447   0.82287   0.00000  Uiso   1.00
H1574  H     0.45673   0.95587   0.69809   0.00000  Uiso   1.00
H1575  H     0.39886   0.89231   0.83227   0.00000  Uiso   1.00
H1576  H     0.55396   0.87230   0.53020   0.00000  Uiso   1.00
H1577  H     0.47039   0.76371   0.97035   0.00000  Uiso   1.00
H1578  H     0.52203   0.90360   0.97083   0.00000  Uiso   1.00
H1579  H     0.44058   0.79380   0.53188   0.00000  Uiso   1.00
H1580  H     0.58930   0.87493   0.60475   0.00000  Uiso   1.00
N1581  N     0.50000   0.95069   0.75000   0.00000  Uiso   1.00
N1582  N     0.37743   0.91699   0.77082   0.00000  Uiso   1.00
N1583  N     0.50000   0.71598   0.75000   0.00000  Uiso   1.00
N1584  N     0.56070   0.88311   0.61592   0.00000  Uiso   1.00
N1585  N     0.46587   0.75439   0.88446   0.00000  Uiso   1.00
N1586  N     0.53361   0.91098   0.88599   0.00000  Uiso   1.00
N1587  N     0.43461   0.78728   0.61844   0.00000  Uiso   1.00
N1588  N     0.37240   0.74553   0.74438   0.00000  Uiso   1.00
N1589  N     0.62790   0.92049   0.76072   0.00000  Uiso   1.00
N1590  N     0.62301   0.74897   0.73332   0.00000  Uiso   1.00
O1591  O     0.43988   0.87291   0.74999   0.00000  Uiso   1.00
O1592  O     0.56012   0.79375   0.75001   0.00000  Uiso   1.00
O1593  O     0.56012   0.87291   0.75001   0.00000  Uiso   1.00
O1594  O     0.43988   0.79375   0.74999   0.00000  Uiso   1.00
O1595  O     0.50000   0.87293   0.68573   0.00000  Uiso   1.00
O1596  O     0.50000   0.79374   0.81427   0.00000  Uiso   1.00
O1597  O     0.50000   0.87293   0.81427   0.00000  Uiso   1.00
O1598  O     0.50000   0.79374   0.68573   0.00000  Uiso   1.00
C1599  C     0.75406   0.83293   0.75145   0.00000  Uiso   1.00
C1600  C     0.97998   0.87605   0.75667   0.00000  Uiso   1.00
C1601  C     0.97804   0.79125   0.74381   0.00000  Uiso   1.00
C1602  C     0.68891   0.87494   0.75975   0.00000  Uiso   1.00
C1603  C     0.86234   0.85576   0.54785   0.00000  Uiso   1.00
C1604  C     0.81531   0.79439   0.95304   0.00000  Uiso   1.00
C1605  C     0.84483   0.87262   0.95333   0.00000  Uiso   1.00
C1606  C     0.79930   0.81050   0.54886   0.00000  Uiso   1.00
C1607  C     0.86247   0.85778   0.59370   0.00000  Uiso   1.00
C1608  C     0.81625   0.79378   0.90705   0.00000  Uiso   1.00
C1609  C     0.84761   0.87221   0.90753   0.00000  Uiso   1.00
C1610  C     0.91269   0.83368   0.74951   0.00000  Uiso   1.00
C1611  C     0.79988   0.81037   0.59489   0.00000  Uiso   1.00
C1612  C     0.83172   0.83402   0.61733   0.00000  Uiso   1.00
C1613  C     0.83269   0.83285   0.88375   0.00000  Uiso   1.00
C1614  C     0.83045   0.83310   0.52505   0.00000  Uiso   1.00
C1615  C     0.82981   0.83347   0.97645   0.00000  Uiso   1.00
C1616  C     0.95740   0.83400   0.74953   0.00000  Uiso   1.00
C1617  C     0.70948   0.83235   0.75325   0.00000  Uiso   1.00
C1618  C     0.88794   0.93334   0.61642   0.00000  Uiso   1.00
C1619  C     0.82367   0.71262   0.88666   0.00000  Uiso   1.00
C1620  C     0.90987   0.90434   0.87829   0.00000  Uiso   1.00
C1621  C     0.83311   0.83349   0.66520   0.00000  Uiso   1.00
C1622  C     0.73606   0.81813   0.63266   0.00000  Uiso   1.00
C1623  C     0.71492   0.72211   0.78569   0.00000  Uiso   1.00
C1624  C     0.95394   0.94590   0.72005   0.00000  Uiso   1.00
C1625  C     0.95097   0.74085   0.68660   0.00000  Uiso   1.00
C1626  C     0.71741   0.92359   0.81756   0.00000  Uiso   1.00
C1627  C     0.83325   0.83318   0.83518   0.00000  Uiso   1.00
C1628  C     0.80938   0.69121   0.72109   0.00000  Uiso   1.00
C1629  C     0.85737   0.97549   0.77876   0.00000  Uiso   1.00
C1630  C     0.85770   0.69179   0.77846   0.00000  Uiso   1.00
C1631  C     0.80931   0.97488   0.72114   0.00000  Uiso   1.00
C1632  C     0.68694   0.79011   0.74723   0.00000  Uiso   1.00
Cu1633 Cu    0.83333   0.88022   0.75000   0.00000  Uiso   1.00
Cu1634 Cu    0.83333   0.78645   0.75000   0.00000  Uiso   1.00
H1635  H     0.79036   0.70974   0.69782   0.00000  Uiso   1.00
H1636  H     0.88759   0.94765   0.58227   0.00000  Uiso   1.00
H1637  H     0.91314   0.95082   0.63478   0.00000  Uiso   1.00
H1638  H     0.85882   0.94167   0.63283   0.00000  Uiso   1.00
H1639  H     0.76937   0.74751   0.89302   0.00000  Uiso   1.00
H1640  H     0.82405   0.69817   0.92074   0.00000  Uiso   1.00
H1641  H     0.85537   0.72071   0.87629   0.00000  Uiso   1.00
H1642  H     0.81056   0.68556   0.86425   0.00000  Uiso   1.00
H1643  H     0.86142   0.94287   0.90063   0.00000  Uiso   1.00
H1644  H     0.92619   0.89843   0.90999   0.00000  Uiso   1.00
H1645  H     0.92308   0.93623   0.86242   0.00000  Uiso   1.00
H1646  H     0.87646   0.95703   0.80186   0.00000  Uiso   1.00
H1647  H     0.91447   0.87391   0.85619   0.00000  Uiso   1.00
H1648  H     0.75636   0.75790   0.60271   0.00000  Uiso   1.00
H1649  H     0.72041   0.83374   0.60363   0.00000  Uiso   1.00
H1650  H     0.74872   0.84669   0.65369   0.00000  Uiso   1.00
H1651  H     0.71337   0.79781   0.65221   0.00000  Uiso   1.00
H1652  H     0.72451   0.73955   0.71801   0.00000  Uiso   1.00
H1653  H     0.69736   0.68867   0.78745   0.00000  Uiso   1.00
H1654  H     0.70666   0.74383   0.81457   0.00000  Uiso   1.00
H1655  H     0.74787   0.71435   0.78781   0.00000  Uiso   1.00
H1656  H     0.94087   0.92479   0.78592   0.00000  Uiso   1.00
H1657  H     0.87748   0.71079   0.80096   0.00000  Uiso   1.00
H1658  H     0.97205   0.97896   0.72032   0.00000  Uiso   1.00
H1659  H     0.92121   0.95443   0.71691   0.00000  Uiso   1.00
H1660  H     0.96304   0.92532   0.69074   0.00000  Uiso   1.00
H1661  H     0.96539   0.71971   0.75064   0.00000  Uiso   1.00
H1662  H     0.98076   0.73374   0.67106   0.00000  Uiso   1.00
H1663  H     0.93696   0.77182   0.67044   0.00000  Uiso   1.00
H1664  H     0.93036   0.71007   0.68153   0.00000  Uiso   1.00
H1665  H     0.70132   0.94685   0.75472   0.00000  Uiso   1.00
H1666  H     0.68800   0.92973   0.83432   0.00000  Uiso   1.00
H1667  H     0.73786   0.95447   0.82287   0.00000  Uiso   1.00
H1668  H     0.79006   0.95587   0.69809   0.00000  Uiso   1.00
H1669  H     0.73219   0.89231   0.83227   0.00000  Uiso   1.00
H1670  H     0.88729   0.87230   0.53020   0.00000  Uiso   1.00
H1671  H     0.80372   0.76371   0.97035   0.00000  Uiso   1.00
H1672  H     0.85536   0.90360   0.97083   0.00000  Uiso   1.00
H1673  H     0.77391   0.79380   0.53188   0.00000  Uiso   1.00
H1674  H     0.92264   0.87493   0.60475   0.00000  Uiso   1.00
N1675  N     0.83333   0.95069   0.75000   0.00000  Uiso   1.00
N1676  N     0.71076   0.91699   0.77082   0.00000  Uiso   1.00
N1677  N     0.83333   0.71598   0.75000   0.00000  Uiso   1.00
N1678  N     0.89403   0.88311   0.61592   0.00000  Uiso   1.00
N1679  N     0.79921   0.75439   0.88446   0.00000  Uiso   1.00
N1680  N     0.86694   0.91098   0.88599   0.00000  Uiso   1.00
N1681  N     0.76794   0.78728   0.61844   0.00000  Uiso   1.00
N1682  N     0.70573   0.74553   0.74438   0.00000  Uiso   1.00
N1683  N     0.96123   0.92049   0.76072   0.00000  Uiso   1.00
N1684  N     0.95634   0.74897   0.73332   0.00000  Uiso   1.00
O1685  O     0.77321   0.87291   0.74999   0.00000  Uiso   1.00
O1686  O     0.89345   0.79375   0.75001   0.00000  Uiso   1.00
O1687  O     0.89345   0.87291   0.75001   0.00000  Uiso   1.00
O1688  O     0.77321   0.79375   0.74999   0.00000  Uiso   1.00
O1689  O     0.83333   0.87293   0.68573   0.00000  Uiso   1.00
O1690  O     0.83334   0.79374   0.81427   0.00000  Uiso   1.00
O1691  O     0.83334   0.87293   0.81427   0.00000  Uiso   1.00
O1692  O     0.83333   0.79374   0.68573   0.00000  Uiso   1.00
loop_
_geom_bond_atom_site_label_1
_geom_bond_atom_site_label_2
_geom_bond_distance
_geom_bond_site_symmetry_2
_ccdc_geom_bond_type
C1     O87     1.293   .     A
C1     O90     1.290   .     A
C1     C19     1.466   .     S
C2     C18     1.416   .     A
C2     N85     1.422   .     S
C2     C98     1.392   .     S
C3     C18     1.415   .     A
C3     N86     1.426   .     S
C3     C128    1.392   .     S
C4     N78     1.427   .     S
C4     C19     1.413   .     A
C4     C190    1.392   1_455 S
C5     H72     1.083   .     S
C5     C16     1.403   .     A
C5     C9      1.393   .     A
C6     H73     1.083   .     S
C6     C17     1.399   .     A
C6     C10     1.396   .     A
C7     C11     1.394   .     A
C7     C17     1.400   .     A
C7     H74     1.083   .     S
C8     C13     1.397   .     A
C8     C16     1.403   .     A
C8     H75     1.083   .     S
C9     N80     1.423   .     S
C9     C14     1.406   .     A
C10    C15     1.417   .     A
C10    N81     1.423   .     S
C11    C15     1.416   .     A
C11    N82     1.424   .     S
C12    O89     1.292   .     A
C12    O88     1.293   .     A
C12    C18     1.469   .     S
C13    C14     1.409   .     A
C13    N83     1.424   .     S
C14    C23     1.453   .     S
C15    C29     1.474   .     S
C16    C863    1.475   1_554 S
C17    C862    1.475   .     S
C19    C34     1.415   .     A
C20    H40     1.111   .     S
C20    N80     1.448   .     S
C20    H39     1.108   .     S
C20    H38     1.112   .     S
C21    H43     1.111   .     S
C21    H44     1.110   .     S
C21    N81     1.447   .     S
C21    H42     1.111   .     S
C22    N82     1.447   .     S
C22    H47     1.110   .     S
C22    H49     1.111   .     S
C22    H46     1.112   .     S
C23    O91     1.287   .     A
C23    O94     1.290   .     A
C24    H52     1.110   .     S
C24    H51     1.111   .     S
C24    H53     1.110   .     S
C24    N83     1.447   .     S
C25    H56     1.113   .     S
C25    N84     1.449   .     S
C25    H57     1.110   .     S
C25    H55     1.107   .     S
C26    H61     1.109   .     S
C26    H62     1.113   .     S
C26    N85     1.448   .     S
C26    H60     1.106   .     S
C27    N86     1.447   .     S
C27    H65     1.112   .     S
C27    H66     1.110   .     S
C27    H64     1.111   .     S
C28    H68     1.111   .     S
C28    H69     1.110   .     S
C28    N78     1.447   .     S
C28    H71     1.112   .     S
C29    O93     1.295   .     A
C29    O92     1.293   .     A
C30    H37     1.081   .     S
C30    N79     1.366   .     A
C30    C597    1.415   1_545 S
C31    N77     1.366   .     A
C31    H48     1.078   .     S
C31    C314    1.413   .     S
C32    N79     1.365   .     A
C32    H59     1.081   .     S
C32    C595    1.413   1_545 S
C33    H70     1.082   .     S
C33    N77     1.366   .     A
C33    C312    1.415   .     S
C34    N84     1.424   .     S
C34    C191    1.392   1_455 S
Cu35   O87     1.983   .     S
Cu35   O93     1.960   .     S
Cu35   O89     1.990   .     S
Cu35   N77     2.007   .     S
Cu35   Cu36    2.671   .     S
Cu35   O91     1.962   .     S
Cu36   O88     1.983   .     S
Cu36   O92     1.962   .     S
Cu36   N79     2.007   .     S
Cu36   O90     1.990   .     S
Cu36   O94     1.960   .     S
H41    N81     1.032   .     S
H45    N82     1.032   .     S
H50    N83     1.032   .     S
H54    N84     1.030   .     S
H58    N85     1.028   .     S
H63    N86     1.030   .     S
H67    N78     1.030   .     S
H76    N80     1.032   .     S
C95    O181    1.293   .     A
C95    O184    1.290   .     A
C95    C113    1.466   .     S
C96    C112    1.416   .     A
C96    N179    1.422   .     S
C96    C192    1.392   .     S
C97    C112    1.415   .     A
C97    N180    1.426   .     S
C97    C222    1.392   .     S
C98    N172    1.427   .     S
C98    C113    1.413   .     A
C99    H166    1.083   .     S
C99    C110    1.403   .     A
C99    C103    1.393   .     A
C100   H167    1.083   .     S
C100   C111    1.399   .     A
C100   C104    1.396   .     A
C101   C105    1.394   .     A
C101   C111    1.400   .     A
C101   H168    1.083   .     S
C102   C107    1.397   .     A
C102   C110    1.403   .     A
C102   H169    1.083   .     S
C103   N174    1.423   .     S
C103   C108    1.406   .     A
C104   C109    1.417   .     A
C104   N175    1.423   .     S
C105   C109    1.416   .     A
C105   N176    1.424   .     S
C106   O183    1.292   .     A
C106   O182    1.293   .     A
C106   C112    1.469   .     S
C107   C108    1.409   .     A
C107   N177    1.424   .     S
C108   C117    1.453   .     S
C109   C123    1.474   .     S
C110   C957    1.475   1_554 S
C111   C956    1.475   .     S
C113   C128    1.415   .     A
C114   H134    1.111   .     S
C114   N174    1.448   .     S
C114   H133    1.108   .     S
C114   H132    1.112   .     S
C115   H137    1.111   .     S
C115   H138    1.110   .     S
C115   N175    1.447   .     S
C115   H136    1.111   .     S
C116   N176    1.447   .     S
C116   H141    1.110   .     S
C116   H143    1.111   .     S
C116   H140    1.112   .     S
C117   O185    1.287   .     A
C117   O188    1.290   .     A
C118   H146    1.110   .     S
C118   H145    1.111   .     S
C118   H147    1.110   .     S
C118   N177    1.447   .     S
C119   H150    1.113   .     S
C119   N178    1.449   .     S
C119   H151    1.110   .     S
C119   H149    1.107   .     S
C120   H155    1.109   .     S
C120   H156    1.113   .     S
C120   N179    1.448   .     S
C120   H154    1.106   .     S
C121   N180    1.447   .     S
C121   H159    1.112   .     S
C121   H160    1.110   .     S
C121   H158    1.111   .     S
C122   H162    1.111   .     S
C122   H163    1.110   .     S
C122   N172    1.447   .     S
C122   H165    1.112   .     S
C123   O187    1.295   .     A
C123   O186    1.293   .     A
C124   H131    1.081   .     S
C124   N173    1.366   .     A
C124   C691    1.415   1_545 S
C125   N171    1.366   .     A
C125   H142    1.078   .     S
C125   C408    1.413   .     S
C126   N173    1.365   .     A
C126   H153    1.081   .     S
C126   C689    1.413   1_545 S
C127   H164    1.082   .     S
C127   N171    1.366   .     A
C127   C406    1.415   .     S
C128   N178    1.424   .     S
Cu129  O181    1.983   .     S
Cu129  O187    1.960   .     S
Cu129  O183    1.990   .     S
Cu129  N171    2.007   .     S
Cu129  Cu130   2.671   .     S
Cu129  O185    1.962   .     S
Cu130  O182    1.983   .     S
Cu130  O186    1.962   .     S
Cu130  N173    2.007   .     S
Cu130  O184    1.990   .     S
Cu130  O188    1.960   .     S
H135   N175    1.032   .     S
H139   N176    1.032   .     S
H144   N177    1.032   .     S
H148   N178    1.030   .     S
H152   N179    1.028   .     S
H157   N180    1.030   .     S
H161   N172    1.030   .     S
H170   N174    1.032   .     S
C189   O275    1.293   .     A
C189   O278    1.290   .     A
C189   C207    1.466   .     S
C190   C206    1.416   .     A
C190   N273    1.422   .     S
C190   C4      1.392   1_655 S
C191   C206    1.415   .     A
C191   N274    1.426   .     S
C191   C34     1.392   1_655 S
C192   N266    1.427   .     S
C192   C207    1.413   .     A
C193   H260    1.083   .     S
C193   C204    1.403   .     A
C193   C197    1.393   .     A
C194   H261    1.083   .     S
C194   C205    1.399   .     A
C194   C198    1.396   .     A
C195   C199    1.394   .     A
C195   C205    1.400   .     A
C195   H262    1.083   .     S
C196   C201    1.397   .     A
C196   C204    1.403   .     A
C196   H263    1.083   .     S
C197   N268    1.423   .     S
C197   C202    1.406   .     A
C198   C203    1.417   .     A
C198   N269    1.423   .     S
C199   C203    1.416   .     A
C199   N270    1.424   .     S
C200   O277    1.292   .     A
C200   O276    1.293   .     A
C200   C206    1.469   .     S
C201   C202    1.409   .     A
C201   N271    1.424   .     S
C202   C211    1.453   .     S
C203   C217    1.474   .     S
C204   C1051   1.475   1_554 S
C205   C1050   1.475   .     S
C207   C222    1.415   .     A
C208   H228    1.111   .     S
C208   N268    1.448   .     S
C208   H227    1.108   .     S
C208   H226    1.112   .     S
C209   H231    1.111   .     S
C209   H232    1.110   .     S
C209   N269    1.447   .     S
C209   H230    1.111   .     S
C210   N270    1.447   .     S
C210   H235    1.110   .     S
C210   H237    1.111   .     S
C210   H234    1.112   .     S
C211   O279    1.287   .     A
C211   O282    1.290   .     A
C212   H240    1.110   .     S
C212   H239    1.111   .     S
C212   H241    1.110   .     S
C212   N271    1.447   .     S
C213   H244    1.113   .     S
C213   N272    1.449   .     S
C213   H245    1.110   .     S
C213   H243    1.107   .     S
C214   H249    1.109   .     S
C214   H250    1.113   .     S
C214   N273    1.448   .     S
C214   H248    1.106   .     S
C215   N274    1.447   .     S
C215   H253    1.112   .     S
C215   H254    1.110   .     S
C215   H252    1.111   .     S
C216   H256    1.111   .     S
C216   H257    1.110   .     S
C216   N266    1.447   .     S
C216   H259    1.112   .     S
C217   O281    1.295   .     A
C217   O280    1.293   .     A
C218   H225    1.081   .     S
C218   N267    1.366   .     A
C218   C785    1.415   1_545 S
C219   N265    1.366   .     A
C219   H236    1.078   .     S
C219   C502    1.413   .     S
C220   N267    1.365   .     A
C220   H247    1.081   .     S
C220   C783    1.413   1_545 S
C221   H258    1.082   .     S
C221   N265    1.366   .     A
C221   C500    1.415   .     S
C222   N272    1.424   .     S
Cu223  O275    1.983   .     S
Cu223  O281    1.960   .     S
Cu223  O277    1.990   .     S
Cu223  N265    2.007   .     S
Cu223  Cu224   2.671   .     S
Cu223  O279    1.962   .     S
Cu224  O276    1.983   .     S
Cu224  O280    1.962   .     S
Cu224  N267    2.007   .     S
Cu224  O278    1.990   .     S
Cu224  O282    1.960   .     S
H229   N269    1.032   .     S
H233   N270    1.032   .     S
H238   N271    1.032   .     S
H242   N272    1.030   .     S
H246   N273    1.028   .     S
H251   N274    1.030   .     S
H255   N266    1.030   .     S
H264   N268    1.032   .     S
C283   O369    1.293   .     A
C283   O372    1.290   .     A
C283   C301    1.466   .     S
C284   C300    1.416   .     A
C284   N367    1.422   .     S
C284   C380    1.392   .     S
C285   C300    1.415   .     A
C285   N368    1.426   .     S
C285   C410    1.392   .     S
C286   N360    1.427   .     S
C286   C301    1.413   .     A
C286   C472    1.392   1_455 S
C287   H354    1.083   .     S
C287   C298    1.403   .     A
C287   C291    1.393   .     A
C288   H355    1.083   .     S
C288   C299    1.399   .     A
C288   C292    1.396   .     A
C289   C293    1.394   .     A
C289   C299    1.400   .     A
C289   H356    1.083   .     S
C290   C295    1.397   .     A
C290   C298    1.403   .     A
C290   H357    1.083   .     S
C291   N362    1.423   .     S
C291   C296    1.406   .     A
C292   C297    1.417   .     A
C292   N363    1.423   .     S
C293   C297    1.416   .     A
C293   N364    1.424   .     S
C294   O371    1.292   .     A
C294   O370    1.293   .     A
C294   C300    1.469   .     S
C295   C296    1.409   .     A
C295   N365    1.424   .     S
C296   C305    1.453   .     S
C297   C311    1.474   .     S
C298   C1145   1.475   1_554 S
C299   C1144   1.475   .     S
C301   C316    1.415   .     A
C302   H322    1.111   .     S
C302   N362    1.448   .     S
C302   H321    1.108   .     S
C302   H320    1.112   .     S
C303   H325    1.111   .     S
C303   H326    1.110   .     S
C303   N363    1.447   .     S
C303   H324    1.111   .     S
C304   N364    1.447   .     S
C304   H329    1.110   .     S
C304   H331    1.111   .     S
C304   H328    1.112   .     S
C305   O373    1.287   .     A
C305   O376    1.290   .     A
C306   H334    1.110   .     S
C306   H333    1.111   .     S
C306   H335    1.110   .     S
C306   N365    1.447   .     S
C307   H338    1.113   .     S
C307   N366    1.449   .     S
C307   H339    1.110   .     S
C307   H337    1.107   .     S
C308   H343    1.109   .     S
C308   H344    1.113   .     S
C308   N367    1.448   .     S
C308   H342    1.106   .     S
C309   N368    1.447   .     S
C309   H347    1.112   .     S
C309   H348    1.110   .     S
C309   H346    1.111   .     S
C310   H350    1.111   .     S
C310   H351    1.110   .     S
C310   N360    1.447   .     S
C310   H353    1.112   .     S
C311   O375    1.295   .     A
C311   O374    1.293   .     A
C312   H319    1.081   .     S
C312   N361    1.366   .     A
C313   N359    1.366   .     A
C313   H330    1.078   .     S
C313   C596    1.413   .     S
C314   N361    1.365   .     A
C314   H341    1.081   .     S
C315   H352    1.082   .     S
C315   N359    1.366   .     A
C315   C594    1.415   .     S
C316   N366    1.424   .     S
C316   C473    1.392   1_455 S
Cu317  O369    1.983   .     S
Cu317  O375    1.960   .     S
Cu317  O371    1.990   .     S
Cu317  N359    2.007   .     S
Cu317  Cu318   2.671   .     S
Cu317  O373    1.962   .     S
Cu318  O370    1.983   .     S
Cu318  O374    1.962   .     S
Cu318  N361    2.007   .     S
Cu318  O372    1.990   .     S
Cu318  O376    1.960   .     S
H323   N363    1.032   .     S
H327   N364    1.032   .     S
H332   N365    1.032   .     S
H336   N366    1.030   .     S
H340   N367    1.028   .     S
H345   N368    1.030   .     S
H349   N360    1.030   .     S
H358   N362    1.032   .     S
C377   O463    1.293   .     A
C377   O466    1.290   .     A
C377   C395    1.466   .     S
C378   C394    1.416   .     A
C378   N461    1.422   .     S
C378   C474    1.392   .     S
C379   C394    1.415   .     A
C379   N462    1.426   .     S
C379   C504    1.392   .     S
C380   N454    1.427   .     S
C380   C395    1.413   .     A
C381   H448    1.083   .     S
C381   C392    1.403   .     A
C381   C385    1.393   .     A
C382   H449    1.083   .     S
C382   C393    1.399   .     A
C382   C386    1.396   .     A
C383   C387    1.394   .     A
C383   C393    1.400   .     A
C383   H450    1.083   .     S
C384   C389    1.397   .     A
C384   C392    1.403   .     A
C384   H451    1.083   .     S
C385   N456    1.423   .     S
C385   C390    1.406   .     A
C386   C391    1.417   .     A
C386   N457    1.423   .     S
C387   C391    1.416   .     A
C387   N458    1.424   .     S
C388   O465    1.292   .     A
C388   O464    1.293   .     A
C388   C394    1.469   .     S
C389   C390    1.409   .     A
C389   N459    1.424   .     S
C390   C399    1.453   .     S
C391   C405    1.474   .     S
C392   C1239   1.475   1_554 S
C393   C1238   1.475   .     S
C395   C410    1.415   .     A
C396   H416    1.111   .     S
C396   N456    1.448   .     S
C396   H415    1.108   .     S
C396   H414    1.112   .     S
C397   H419    1.111   .     S
C397   H420    1.110   .     S
C397   N457    1.447   .     S
C397   H418    1.111   .     S
C398   N458    1.447   .     S
C398   H423    1.110   .     S
C398   H425    1.111   .     S
C398   H422    1.112   .     S
C399   O467    1.287   .     A
C399   O470    1.290   .     A
C400   H428    1.110   .     S
C400   H427    1.111   .     S
C400   H429    1.110   .     S
C400   N459    1.447   .     S
C401   H432    1.113   .     S
C401   N460    1.449   .     S
C401   H433    1.110   .     S
C401   H431    1.107   .     S
C402   H437    1.109   .     S
C402   H438    1.113   .     S
C402   N461    1.448   .     S
C402   H436    1.106   .     S
C403   N462    1.447   .     S
C403   H441    1.112   .     S
C403   H442    1.110   .     S
C403   H440    1.111   .     S
C404   H444    1.111   .     S
C404   H445    1.110   .     S
C404   N454    1.447   .     S
C404   H447    1.112   .     S
C405   O469    1.295   .     A
C405   O468    1.293   .     A
C406   H413    1.081   .     S
C406   N455    1.366   .     A
C407   N453    1.366   .     A
C407   H424    1.078   .     S
C407   C690    1.413   .     S
C408   N455    1.365   .     A
C408   H435    1.081   .     S
C409   H446    1.082   .     S
C409   N453    1.366   .     A
C409   C688    1.415   .     S
C410   N460    1.424   .     S
Cu411  O463    1.983   .     S
Cu411  O469    1.960   .     S
Cu411  O465    1.990   .     S
Cu411  N453    2.007   .     S
Cu411  Cu412   2.671   .     S
Cu411  O467    1.962   .     S
Cu412  O464    1.983   .     S
Cu412  O468    1.962   .     S
Cu412  N455    2.007   .     S
Cu412  O466    1.990   .     S
Cu412  O470    1.960   .     S
H417   N457    1.032   .     S
H421   N458    1.032   .     S
H426   N459    1.032   .     S
H430   N460    1.030   .     S
H434   N461    1.028   .     S
H439   N462    1.030   .     S
H443   N454    1.030   .     S
H452   N456    1.032   .     S
C471   O557    1.293   .     A
C471   O560    1.290   .     A
C471   C489    1.466   .     S
C472   C488    1.416   .     A
C472   N555    1.422   .     S
C472   C286    1.392   1_655 S
C473   C488    1.415   .     A
C473   N556    1.426   .     S
C473   C316    1.392   1_655 S
C474   N548    1.427   .     S
C474   C489    1.413   .     A
C475   H542    1.083   .     S
C475   C486    1.403   .     A
C475   C479    1.393   .     A
C476   H543    1.083   .     S
C476   C487    1.399   .     A
C476   C480    1.396   .     A
C477   C481    1.394   .     A
C477   C487    1.400   .     A
C477   H544    1.083   .     S
C478   C483    1.397   .     A
C478   C486    1.403   .     A
C478   H545    1.083   .     S
C479   N550    1.423   .     S
C479   C484    1.406   .     A
C480   C485    1.417   .     A
C480   N551    1.423   .     S
C481   C485    1.416   .     A
C481   N552    1.424   .     S
C482   O559    1.292   .     A
C482   O558    1.293   .     A
C482   C488    1.469   .     S
C483   C484    1.409   .     A
C483   N553    1.424   .     S
C484   C493    1.453   .     S
C485   C499    1.474   .     S
C486   C1333   1.475   1_554 S
C487   C1332   1.475   .     S
C489   C504    1.415   .     A
C490   H510    1.111   .     S
C490   N550    1.448   .     S
C490   H509    1.108   .     S
C490   H508    1.112   .     S
C491   H513    1.111   .     S
C491   H514    1.110   .     S
C491   N551    1.447   .     S
C491   H512    1.111   .     S
C492   N552    1.447   .     S
C492   H517    1.110   .     S
C492   H519    1.111   .     S
C492   H516    1.112   .     S
C493   O561    1.287   .     A
C493   O564    1.290   .     A
C494   H522    1.110   .     S
C494   H521    1.111   .     S
C494   H523    1.110   .     S
C494   N553    1.447   .     S
C495   H526    1.113   .     S
C495   N554    1.449   .     S
C495   H527    1.110   .     S
C495   H525    1.107   .     S
C496   H531    1.109   .     S
C496   H532    1.113   .     S
C496   N555    1.448   .     S
C496   H530    1.106   .     S
C497   N556    1.447   .     S
C497   H535    1.112   .     S
C497   H536    1.110   .     S
C497   H534    1.111   .     S
C498   H538    1.111   .     S
C498   H539    1.110   .     S
C498   N548    1.447   .     S
C498   H541    1.112   .     S
C499   O563    1.295   .     A
C499   O562    1.293   .     A
C500   H507    1.081   .     S
C500   N549    1.366   .     A
C501   N547    1.366   .     A
C501   H518    1.078   .     S
C501   C784    1.413   .     S
C502   N549    1.365   .     A
C502   H529    1.081   .     S
C503   H540    1.082   .     S
C503   N547    1.366   .     A
C503   C782    1.415   .     S
C504   N554    1.424   .     S
Cu505  O557    1.983   .     S
Cu505  O563    1.960   .     S
Cu505  O559    1.990   .     S
Cu505  N547    2.007   .     S
Cu505  Cu506   2.671   .     S
Cu505  O561    1.962   .     S
Cu506  O558    1.983   .     S
Cu506  O562    1.962   .     S
Cu506  N549    2.007   .     S
Cu506  O560    1.990   .     S
Cu506  O564    1.960   .     S
H511   N551    1.032   .     S
H515   N552    1.032   .     S
H520   N553    1.032   .     S
H524   N554    1.030   .     S
H528   N555    1.028   .     S
H533   N556    1.030   .     S
H537   N548    1.030   .     S
H546   N550    1.032   .     S
C565   O651    1.293   .     A
C565   O654    1.290   .     A
C565   C583    1.466   .     S
C566   C582    1.416   .     A
C566   N649    1.422   .     S
C566   C662    1.392   .     S
C567   C582    1.415   .     A
C567   N650    1.426   .     S
C567   C692    1.392   .     S
C568   N642    1.427   .     S
C568   C583    1.413   .     A
C568   C754    1.392   1_455 S
C569   H636    1.083   .     S
C569   C580    1.403   .     A
C569   C573    1.393   .     A
C570   H637    1.083   .     S
C570   C581    1.399   .     A
C570   C574    1.396   .     A
C571   C575    1.394   .     A
C571   C581    1.400   .     A
C571   H638    1.083   .     S
C572   C577    1.397   .     A
C572   C580    1.403   .     A
C572   H639    1.083   .     S
C573   N644    1.423   .     S
C573   C578    1.406   .     A
C574   C579    1.417   .     A
C574   N645    1.423   .     S
C575   C579    1.416   .     A
C575   N646    1.424   .     S
C576   O653    1.292   .     A
C576   O652    1.293   .     A
C576   C582    1.469   .     S
C577   C578    1.409   .     A
C577   N647    1.424   .     S
C578   C587    1.453   .     S
C579   C593    1.474   .     S
C580   C1427   1.475   1_554 S
C581   C1426   1.475   .     S
C583   C598    1.415   .     A
C584   H604    1.111   .     S
C584   N644    1.448   .     S
C584   H603    1.108   .     S
C584   H602    1.112   .     S
C585   H607    1.111   .     S
C585   H608    1.110   .     S
C585   N645    1.447   .     S
C585   H606    1.111   .     S
C586   N646    1.447   .     S
C586   H611    1.110   .     S
C586   H613    1.111   .     S
C586   H610    1.112   .     S
C587   O655    1.287   .     A
C587   O658    1.290   .     A
C588   H616    1.110   .     S
C588   H615    1.111   .     S
C588   H617    1.110   .     S
C588   N647    1.447   .     S
C589   H620    1.113   .     S
C589   N648    1.449   .     S
C589   H621    1.110   .     S
C589   H619    1.107   .     S
C590   H625    1.109   .     S
C590   H626    1.113   .     S
C590   N649    1.448   .     S
C590   H624    1.106   .     S
C591   N650    1.447   .     S
C591   H629    1.112   .     S
C591   H630    1.110   .     S
C591   H628    1.111   .     S
C592   H632    1.111   .     S
C592   H633    1.110   .     S
C592   N642    1.447   .     S
C592   H635    1.112   .     S
C593   O657    1.295   .     A
C593   O656    1.293   .     A
C594   H601    1.081   .     S
C594   N643    1.366   .     A
C595   N641    1.366   .     A
C595   H612    1.078   .     S
C595   C32     1.413   1_565 S
C596   N643    1.365   .     A
C596   H623    1.081   .     S
C597   H634    1.082   .     S
C597   N641    1.366   .     A
C597   C30     1.415   1_565 S
C598   N648    1.424   .     S
C598   C755    1.392   1_455 S
Cu599  O651    1.983   .     S
Cu599  O657    1.960   .     S
Cu599  O653    1.990   .     S
Cu599  N641    2.007   .     S
Cu599  Cu600   2.671   .     S
Cu599  O655    1.962   .     S
Cu600  O652    1.983   .     S
Cu600  O656    1.962   .     S
Cu600  N643    2.007   .     S
Cu600  O654    1.990   .     S
Cu600  O658    1.960   .     S
H605   N645    1.032   .     S
H609   N646    1.032   .     S
H614   N647    1.032   .     S
H618   N648    1.030   .     S
H622   N649    1.028   .     S
H627   N650    1.030   .     S
H631   N642    1.030   .     S
H640   N644    1.032   .     S
C659   O745    1.293   .     A
C659   O748    1.290   .     A
C659   C677    1.466   .     S
C660   C676    1.416   .     A
C660   N743    1.422   .     S
C660   C756    1.392   .     S
C661   C676    1.415   .     A
C661   N744    1.426   .     S
C661   C786    1.392   .     S
C662   N736    1.427   .     S
C662   C677    1.413   .     A
C663   H730    1.083   .     S
C663   C674    1.403   .     A
C663   C667    1.393   .     A
C664   H731    1.083   .     S
C664   C675    1.399   .     A
C664   C668    1.396   .     A
C665   C669    1.394   .     A
C665   C675    1.400   .     A
C665   H732    1.083   .     S
C666   C671    1.397   .     A
C666   C674    1.403   .     A
C666   H733    1.083   .     S
C667   N738    1.423   .     S
C667   C672    1.406   .     A
C668   C673    1.417   .     A
C668   N739    1.423   .     S
C669   C673    1.416   .     A
C669   N740    1.424   .     S
C670   O747    1.292   .     A
C670   O746    1.293   .     A
C670   C676    1.469   .     S
C671   C672    1.409   .     A
C671   N741    1.424   .     S
C672   C681    1.453   .     S
C673   C687    1.474   .     S
C674   C1521   1.475   1_554 S
C675   C1520   1.475   .     S
C677   C692    1.415   .     A
C678   H698    1.111   .     S
C678   N738    1.448   .     S
C678   H697    1.108   .     S
C678   H696    1.112   .     S
C679   H701    1.111   .     S
C679   H702    1.110   .     S
C679   N739    1.447   .     S
C679   H700    1.111   .     S
C680   N740    1.447   .     S
C680   H705    1.110   .     S
C680   H707    1.111   .     S
C680   H704    1.112   .     S
C681   O749    1.287   .     A
C681   O752    1.290   .     A
C682   H710    1.110   .     S
C682   H709    1.111   .     S
C682   H711    1.110   .     S
C682   N741    1.447   .     S
C683   H714    1.113   .     S
C683   N742    1.449   .     S
C683   H715    1.110   .     S
C683   H713    1.107   .     S
C684   H719    1.109   .     S
C684   H720    1.113   .     S
C684   N743    1.448   .     S
C684   H718    1.106   .     S
C685   N744    1.447   .     S
C685   H723    1.112   .     S
C685   H724    1.110   .     S
C685   H722    1.111   .     S
C686   H726    1.111   .     S
C686   H727    1.110   .     S
C686   N736    1.447   .     S
C686   H729    1.112   .     S
C687   O751    1.295   .     A
C687   O750    1.293   .     A
C688   H695    1.081   .     S
C688   N737    1.366   .     A
C689   N735    1.366   .     A
C689   H706    1.078   .     S
C689   C126    1.413   1_565 S
C690   N737    1.365   .     A
C690   H717    1.081   .     S
C691   H728    1.082   .     S
C691   N735    1.366   .     A
C691   C124    1.415   1_565 S
C692   N742    1.424   .     S
Cu693  O745    1.983   .     S
Cu693  O751    1.960   .     S
Cu693  O747    1.990   .     S
Cu693  N735    2.007   .     S
Cu693  Cu694   2.671   .     S
Cu693  O749    1.962   .     S
Cu694  O746    1.983   .     S
Cu694  O750    1.962   .     S
Cu694  N737    2.007   .     S
Cu694  O748    1.990   .     S
Cu694  O752    1.960   .     S
H699   N739    1.032   .     S
H703   N740    1.032   .     S
H708   N741    1.032   .     S
H712   N742    1.030   .     S
H716   N743    1.028   .     S
H721   N744    1.030   .     S
H725   N736    1.030   .     S
H734   N738    1.032   .     S
C753   O839    1.293   .     A
C753   O842    1.290   .     A
C753   C771    1.466   .     S
C754   C770    1.416   .     A
C754   N837    1.422   .     S
C754   C568    1.392   1_655 S
C755   C770    1.415   .     A
C755   N838    1.426   .     S
C755   C598    1.392   1_655 S
C756   N830    1.427   .     S
C756   C771    1.413   .     A
C757   H824    1.083   .     S
C757   C768    1.403   .     A
C757   C761    1.393   .     A
C758   H825    1.083   .     S
C758   C769    1.399   .     A
C758   C762    1.396   .     A
C759   C763    1.394   .     A
C759   C769    1.400   .     A
C759   H826    1.083   .     S
C760   C765    1.397   .     A
C760   C768    1.403   .     A
C760   H827    1.083   .     S
C761   N832    1.423   .     S
C761   C766    1.406   .     A
C762   C767    1.417   .     A
C762   N833    1.423   .     S
C763   C767    1.416   .     A
C763   N834    1.424   .     S
C764   O841    1.292   .     A
C764   O840    1.293   .     A
C764   C770    1.469   .     S
C765   C766    1.409   .     A
C765   N835    1.424   .     S
C766   C775    1.453   .     S
C767   C781    1.474   .     S
C768   C1615   1.475   1_554 S
C769   C1614   1.475   .     S
C771   C786    1.415   .     A
C772   H792    1.111   .     S
C772   N832    1.448   .     S
C772   H791    1.108   .     S
C772   H790    1.112   .     S
C773   H795    1.111   .     S
C773   H796    1.110   .     S
C773   N833    1.447   .     S
C773   H794    1.111   .     S
C774   N834    1.447   .     S
C774   H799    1.110   .     S
C774   H801    1.111   .     S
C774   H798    1.112   .     S
C775   O843    1.287   .     A
C775   O846    1.290   .     A
C776   H804    1.110   .     S
C776   H803    1.111   .     S
C776   H805    1.110   .     S
C776   N835    1.447   .     S
C777   H808    1.113   .     S
C777   N836    1.449   .     S
C777   H809    1.110   .     S
C777   H807    1.107   .     S
C778   H813    1.109   .     S
C778   H814    1.113   .     S
C778   N837    1.448   .     S
C778   H812    1.106   .     S
C779   N838    1.447   .     S
C779   H817    1.112   .     S
C779   H818    1.110   .     S
C779   H816    1.111   .     S
C780   H820    1.111   .     S
C780   H821    1.110   .     S
C780   N830    1.447   .     S
C780   H823    1.112   .     S
C781   O845    1.295   .     A
C781   O844    1.293   .     A
C782   H789    1.081   .     S
C782   N831    1.366   .     A
C783   N829    1.366   .     A
C783   H800    1.078   .     S
C783   C220    1.413   1_565 S
C784   N831    1.365   .     A
C784   H811    1.081   .     S
C785   H822    1.082   .     S
C785   N829    1.366   .     A
C785   C218    1.415   1_565 S
C786   N836    1.424   .     S
Cu787  O839    1.983   .     S
Cu787  O845    1.960   .     S
Cu787  O841    1.990   .     S
Cu787  N829    2.007   .     S
Cu787  Cu788   2.671   .     S
Cu787  O843    1.962   .     S
Cu788  O840    1.983   .     S
Cu788  O844    1.962   .     S
Cu788  N831    2.007   .     S
Cu788  O842    1.990   .     S
Cu788  O846    1.960   .     S
H793   N833    1.032   .     S
H797   N834    1.032   .     S
H802   N835    1.032   .     S
H806   N836    1.030   .     S
H810   N837    1.028   .     S
H815   N838    1.030   .     S
H819   N830    1.030   .     S
H828   N832    1.032   .     S
C847   O933    1.293   .     A
C847   O936    1.290   .     A
C847   C865    1.466   .     S
C848   C864    1.416   .     A
C848   N931    1.422   .     S
C848   C944    1.392   .     S
C849   C864    1.415   .     A
C849   N932    1.426   .     S
C849   C974    1.392   .     S
C850   N924    1.427   .     S
C850   C865    1.413   .     A
C850   C1036   1.392   1_455 S
C851   H918    1.083   .     S
C851   C862    1.403   .     A
C851   C855    1.393   .     A
C852   H919    1.083   .     S
C852   C863    1.399   .     A
C852   C856    1.396   .     A
C853   C857    1.394   .     A
C853   C863    1.400   .     A
C853   H920    1.083   .     S
C854   C859    1.397   .     A
C854   C862    1.403   .     A
C854   H921    1.083   .     S
C855   N926    1.423   .     S
C855   C860    1.406   .     A
C856   C861    1.417   .     A
C856   N927    1.423   .     S
C857   C861    1.416   .     A
C857   N928    1.424   .     S
C858   O935    1.292   .     A
C858   O934    1.293   .     A
C858   C864    1.469   .     S
C859   C860    1.409   .     A
C859   N929    1.424   .     S
C860   C869    1.453   .     S
C861   C875    1.474   .     S
C863   C16     1.475   1_556 S
C865   C880    1.415   .     A
C866   H886    1.111   .     S
C866   N926    1.448   .     S
C866   H885    1.108   .     S
C866   H884    1.112   .     S
C867   H889    1.111   .     S
C867   H890    1.110   .     S
C867   N927    1.447   .     S
C867   H888    1.111   .     S
C868   N928    1.447   .     S
C868   H893    1.110   .     S
C868   H895    1.111   .     S
C868   H892    1.112   .     S
C869   O937    1.287   .     A
C869   O940    1.290   .     A
C870   H898    1.110   .     S
C870   H897    1.111   .     S
C870   H899    1.110   .     S
C870   N929    1.447   .     S
C871   H902    1.113   .     S
C871   N930    1.449   .     S
C871   H903    1.110   .     S
C871   H901    1.107   .     S
C872   H907    1.109   .     S
C872   H908    1.113   .     S
C872   N931    1.448   .     S
C872   H906    1.106   .     S
C873   N932    1.447   .     S
C873   H911    1.112   .     S
C873   H912    1.110   .     S
C873   H910    1.111   .     S
C874   H914    1.111   .     S
C874   H915    1.110   .     S
C874   N924    1.447   .     S
C874   H917    1.112   .     S
C875   O939    1.295   .     A
C875   O938    1.293   .     A
C876   H883    1.081   .     S
C876   N925    1.366   .     A
C876   C1443   1.415   1_545 S
C877   N923    1.366   .     A
C877   H894    1.078   .     S
C877   C1160   1.413   .     S
C878   N925    1.365   .     A
C878   H905    1.081   .     S
C878   C1441   1.413   1_545 S
C879   H916    1.082   .     S
C879   N923    1.366   .     A
C879   C1158   1.415   .     S
C880   N930    1.424   .     S
C880   C1037   1.392   1_455 S
Cu881  O933    1.983   .     S
Cu881  O939    1.960   .     S
Cu881  O935    1.990   .     S
Cu881  N923    2.007   .     S
Cu881  Cu882   2.671   .     S
Cu881  O937    1.962   .     S
Cu882  O934    1.983   .     S
Cu882  O938    1.962   .     S
Cu882  N925    2.007   .     S
Cu882  O936    1.990   .     S
Cu882  O940    1.960   .     S
H887   N927    1.032   .     S
H891   N928    1.032   .     S
H896   N929    1.032   .     S
H900   N930    1.030   .     S
H904   N931    1.028   .     S
H909   N932    1.030   .     S
H913   N924    1.030   .     S
H922   N926    1.032   .     S
C941   O1027   1.293   .     A
C941   O1030   1.290   .     A
C941   C959    1.466   .     S
C942   C958    1.416   .     A
C942   N1025   1.422   .     S
C942   C1038   1.392   .     S
C943   C958    1.415   .     A
C943   N1026   1.426   .     S
C943   C1068   1.392   .     S
C944   N1018   1.427   .     S
C944   C959    1.413   .     A
C945   H1012   1.083   .     S
C945   C956    1.403   .     A
C945   C949    1.393   .     A
C946   H1013   1.083   .     S
C946   C957    1.399   .     A
C946   C950    1.396   .     A
C947   C951    1.394   .     A
C947   C957    1.400   .     A
C947   H1014   1.083   .     S
C948   C953    1.397   .     A
C948   C956    1.403   .     A
C948   H1015   1.083   .     S
C949   N1020   1.423   .     S
C949   C954    1.406   .     A
C950   C955    1.417   .     A
C950   N1021   1.423   .     S
C951   C955    1.416   .     A
C951   N1022   1.424   .     S
C952   O1029   1.292   .     A
C952   O1028   1.293   .     A
C952   C958    1.469   .     S
C953   C954    1.409   .     A
C953   N1023   1.424   .     S
C954   C963    1.453   .     S
C955   C969    1.474   .     S
C957   C110    1.475   1_556 S
C959   C974    1.415   .     A
C960   H980    1.111   .     S
C960   N1020   1.448   .     S
C960   H979    1.108   .     S
C960   H978    1.112   .     S
C961   H983    1.111   .     S
C961   H984    1.110   .     S
C961   N1021   1.447   .     S
C961   H982    1.111   .     S
C962   N1022   1.447   .     S
C962   H987    1.110   .     S
C962   H989    1.111   .     S
C962   H986    1.112   .     S
C963   O1031   1.287   .     A
C963   O1034   1.290   .     A
C964   H992    1.110   .     S
C964   H991    1.111   .     S
C964   H993    1.110   .     S
C964   N1023   1.447   .     S
C965   H996    1.113   .     S
C965   N1024   1.449   .     S
C965   H997    1.110   .     S
C965   H995    1.107   .     S
C966   H1001   1.109   .     S
C966   H1002   1.113   .     S
C966   N1025   1.448   .     S
C966   H1000   1.106   .     S
C967   N1026   1.447   .     S
C967   H1005   1.112   .     S
C967   H1006   1.110   .     S
C967   H1004   1.111   .     S
C968   H1008   1.111   .     S
C968   H1009   1.110   .     S
C968   N1018   1.447   .     S
C968   H1011   1.112   .     S
C969   O1033   1.295   .     A
C969   O1032   1.293   .     A
C970   H977    1.081   .     S
C970   N1019   1.366   .     A
C970   C1537   1.415   1_545 S
C971   N1017   1.366   .     A
C971   H988    1.078   .     S
C971   C1254   1.413   .     S
C972   N1019   1.365   .     A
C972   H999    1.081   .     S
C972   C1535   1.413   1_545 S
C973   H1010   1.082   .     S
C973   N1017   1.366   .     A
C973   C1252   1.415   .     S
C974   N1024   1.424   .     S
Cu975  O1027   1.983   .     S
Cu975  O1033   1.960   .     S
Cu975  O1029   1.990   .     S
Cu975  N1017   2.007   .     S
Cu975  Cu976   2.671   .     S
Cu975  O1031   1.962   .     S
Cu976  O1028   1.983   .     S
Cu976  O1032   1.962   .     S
Cu976  N1019   2.007   .     S
Cu976  O1030   1.990   .     S
Cu976  O1034   1.960   .     S
H981   N1021   1.032   .     S
H985   N1022   1.032   .     S
H990   N1023   1.032   .     S
H994   N1024   1.030   .     S
H998   N1025   1.028   .     S
H1003  N1026   1.030   .     S
H1007  N1018   1.030   .     S
H1016  N1020   1.032   .     S
C1035  O1121   1.293   .     A
C1035  O1124   1.290   .     A
C1035  C1053   1.466   .     S
C1036  C1052   1.416   .     A
C1036  N1119   1.422   .     S
C1036  C850    1.392   1_655 S
C1037  C1052   1.415   .     A
C1037  N1120   1.426   .     S
C1037  C880    1.392   1_655 S
C1038  N1112   1.427   .     S
C1038  C1053   1.413   .     A
C1039  H1106   1.083   .     S
C1039  C1050   1.403   .     A
C1039  C1043   1.393   .     A
C1040  H1107   1.083   .     S
C1040  C1051   1.399   .     A
C1040  C1044   1.396   .     A
C1041  C1045   1.394   .     A
C1041  C1051   1.400   .     A
C1041  H1108   1.083   .     S
C1042  C1047   1.397   .     A
C1042  C1050   1.403   .     A
C1042  H1109   1.083   .     S
C1043  N1114   1.423   .     S
C1043  C1048   1.406   .     A
C1044  C1049   1.417   .     A
C1044  N1115   1.423   .     S
C1045  C1049   1.416   .     A
C1045  N1116   1.424   .     S
C1046  O1123   1.292   .     A
C1046  O1122   1.293   .     A
C1046  C1052   1.469   .     S
C1047  C1048   1.409   .     A
C1047  N1117   1.424   .     S
C1048  C1057   1.453   .     S
C1049  C1063   1.474   .     S
C1051  C204    1.475   1_556 S
C1053  C1068   1.415   .     A
C1054  H1074   1.111   .     S
C1054  N1114   1.448   .     S
C1054  H1073   1.108   .     S
C1054  H1072   1.112   .     S
C1055  H1077   1.111   .     S
C1055  H1078   1.110   .     S
C1055  N1115   1.447   .     S
C1055  H1076   1.111   .     S
C1056  N1116   1.447   .     S
C1056  H1081   1.110   .     S
C1056  H1083   1.111   .     S
C1056  H1080   1.112   .     S
C1057  O1125   1.287   .     A
C1057  O1128   1.290   .     A
C1058  H1086   1.110   .     S
C1058  H1085   1.111   .     S
C1058  H1087   1.110   .     S
C1058  N1117   1.447   .     S
C1059  H1090   1.113   .     S
C1059  N1118   1.449   .     S
C1059  H1091   1.110   .     S
C1059  H1089   1.107   .     S
C1060  H1095   1.109   .     S
C1060  H1096   1.113   .     S
C1060  N1119   1.448   .     S
C1060  H1094   1.106   .     S
C1061  N1120   1.447   .     S
C1061  H1099   1.112   .     S
C1061  H1100   1.110   .     S
C1061  H1098   1.111   .     S
C1062  H1102   1.111   .     S
C1062  H1103   1.110   .     S
C1062  N1112   1.447   .     S
C1062  H1105   1.112   .     S
C1063  O1127   1.295   .     A
C1063  O1126   1.293   .     A
C1064  H1071   1.081   .     S
C1064  N1113   1.366   .     A
C1064  C1631   1.415   1_545 S
C1065  N1111   1.366   .     A
C1065  H1082   1.078   .     S
C1065  C1348   1.413   .     S
C1066  N1113   1.365   .     A
C1066  H1093   1.081   .     S
C1066  C1629   1.413   1_545 S
C1067  H1104   1.082   .     S
C1067  N1111   1.366   .     A
C1067  C1346   1.415   .     S
C1068  N1118   1.424   .     S
Cu1069 O1121   1.983   .     S
Cu1069 O1127   1.960   .     S
Cu1069 O1123   1.990   .     S
Cu1069 N1111   2.007   .     S
Cu1069 Cu1070  2.671   .     S
Cu1069 O1125   1.962   .     S
Cu1070 O1122   1.983   .     S
Cu1070 O1126   1.962   .     S
Cu1070 N1113   2.007   .     S
Cu1070 O1124   1.990   .     S
Cu1070 O1128   1.960   .     S
H1075  N1115   1.032   .     S
H1079  N1116   1.032   .     S
H1084  N1117   1.032   .     S
H1088  N1118   1.030   .     S
H1092  N1119   1.028   .     S
H1097  N1120   1.030   .     S
H1101  N1112   1.030   .     S
H1110  N1114   1.032   .     S
C1129  O1215   1.293   .     A
C1129  O1218   1.290   .     A
C1129  C1147   1.466   .     S
C1130  C1146   1.416   .     A
C1130  N1213   1.422   .     S
C1130  C1226   1.392   .     S
C1131  C1146   1.415   .     A
C1131  N1214   1.426   .     S
C1131  C1256   1.392   .     S
C1132  N1206   1.427   .     S
C1132  C1147   1.413   .     A
C1132  C1318   1.392   1_455 S
C1133  H1200   1.083   .     S
C1133  C1144   1.403   .     A
C1133  C1137   1.393   .     A
C1134  H1201   1.083   .     S
C1134  C1145   1.399   .     A
C1134  C1138   1.396   .     A
C1135  C1139   1.394   .     A
C1135  C1145   1.400   .     A
C1135  H1202   1.083   .     S
C1136  C1141   1.397   .     A
C1136  C1144   1.403   .     A
C1136  H1203   1.083   .     S
C1137  N1208   1.423   .     S
C1137  C1142   1.406   .     A
C1138  C1143   1.417   .     A
C1138  N1209   1.423   .     S
C1139  C1143   1.416   .     A
C1139  N1210   1.424   .     S
C1140  O1217   1.292   .     A
C1140  O1216   1.293   .     A
C1140  C1146   1.469   .     S
C1141  C1142   1.409   .     A
C1141  N1211   1.424   .     S
C1142  C1151   1.453   .     S
C1143  C1157   1.474   .     S
C1145  C298    1.475   1_556 S
C1147  C1162   1.415   .     A
C1148  H1168   1.111   .     S
C1148  N1208   1.448   .     S
C1148  H1167   1.108   .     S
C1148  H1166   1.112   .     S
C1149  H1171   1.111   .     S
C1149  H1172   1.110   .     S
C1149  N1209   1.447   .     S
C1149  H1170   1.111   .     S
C1150  N1210   1.447   .     S
C1150  H1175   1.110   .     S
C1150  H1177   1.111   .     S
C1150  H1174   1.112   .     S
C1151  O1219   1.287   .     A
C1151  O1222   1.290   .     A
C1152  H1180   1.110   .     S
C1152  H1179   1.111   .     S
C1152  H1181   1.110   .     S
C1152  N1211   1.447   .     S
C1153  H1184   1.113   .     S
C1153  N1212   1.449   .     S
C1153  H1185   1.110   .     S
C1153  H1183   1.107   .     S
C1154  H1189   1.109   .     S
C1154  H1190   1.113   .     S
C1154  N1213   1.448   .     S
C1154  H1188   1.106   .     S
C1155  N1214   1.447   .     S
C1155  H1193   1.112   .     S
C1155  H1194   1.110   .     S
C1155  H1192   1.111   .     S
C1156  H1196   1.111   .     S
C1156  H1197   1.110   .     S
C1156  N1206   1.447   .     S
C1156  H1199   1.112   .     S
C1157  O1221   1.295   .     A
C1157  O1220   1.293   .     A
C1158  H1165   1.081   .     S
C1158  N1207   1.366   .     A
C1159  N1205   1.366   .     A
C1159  H1176   1.078   .     S
C1159  C1442   1.413   .     S
C1160  N1207   1.365   .     A
C1160  H1187   1.081   .     S
C1161  H1198   1.082   .     S
C1161  N1205   1.366   .     A
C1161  C1440   1.415   .     S
C1162  N1212   1.424   .     S
C1162  C1319   1.392   1_455 S
Cu1163 O1215   1.983   .     S
Cu1163 O1221   1.960   .     S
Cu1163 O1217   1.990   .     S
Cu1163 N1205   2.007   .     S
Cu1163 Cu1164  2.671   .     S
Cu1163 O1219   1.962   .     S
Cu1164 O1216   1.983   .     S
Cu1164 O1220   1.962   .     S
Cu1164 N1207   2.007   .     S
Cu1164 O1218   1.990   .     S
Cu1164 O1222   1.960   .     S
H1169  N1209   1.032   .     S
H1173  N1210   1.032   .     S
H1178  N1211   1.032   .     S
H1182  N1212   1.030   .     S
H1186  N1213   1.028   .     S
H1191  N1214   1.030   .     S
H1195  N1206   1.030   .     S
H1204  N1208   1.032   .     S
C1223  O1309   1.293   .     A
C1223  O1312   1.290   .     A
C1223  C1241   1.466   .     S
C1224  C1240   1.416   .     A
C1224  N1307   1.422   .     S
C1224  C1320   1.392   .     S
C1225  C1240   1.415   .     A
C1225  N1308   1.426   .     S
C1225  C1350   1.392   .     S
C1226  N1300   1.427   .     S
C1226  C1241   1.413   .     A
C1227  H1294   1.083   .     S
C1227  C1238   1.403   .     A
C1227  C1231   1.393   .     A
C1228  H1295   1.083   .     S
C1228  C1239   1.399   .     A
C1228  C1232   1.396   .     A
C1229  C1233   1.394   .     A
C1229  C1239   1.400   .     A
C1229  H1296   1.083   .     S
C1230  C1235   1.397   .     A
C1230  C1238   1.403   .     A
C1230  H1297   1.083   .     S
C1231  N1302   1.423   .     S
C1231  C1236   1.406   .     A
C1232  C1237   1.417   .     A
C1232  N1303   1.423   .     S
C1233  C1237   1.416   .     A
C1233  N1304   1.424   .     S
C1234  O1311   1.292   .     A
C1234  O1310   1.293   .     A
C1234  C1240   1.469   .     S
C1235  C1236   1.409   .     A
C1235  N1305   1.424   .     S
C1236  C1245   1.453   .     S
C1237  C1251   1.474   .     S
C1239  C392    1.475   1_556 S
C1241  C1256   1.415   .     A
C1242  H1262   1.111   .     S
C1242  N1302   1.448   .     S
C1242  H1261   1.108   .     S
C1242  H1260   1.112   .     S
C1243  H1265   1.111   .     S
C1243  H1266   1.110   .     S
C1243  N1303   1.447   .     S
C1243  H1264   1.111   .     S
C1244  N1304   1.447   .     S
C1244  H1269   1.110   .     S
C1244  H1271   1.111   .     S
C1244  H1268   1.112   .     S
C1245  O1313   1.287   .     A
C1245  O1316   1.290   .     A
C1246  H1274   1.110   .     S
C1246  H1273   1.111   .     S
C1246  H1275   1.110   .     S
C1246  N1305   1.447   .     S
C1247  H1278   1.113   .     S
C1247  N1306   1.449   .     S
C1247  H1279   1.110   .     S
C1247  H1277   1.107   .     S
C1248  H1283   1.109   .     S
C1248  H1284   1.113   .     S
C1248  N1307   1.448   .     S
C1248  H1282   1.106   .     S
C1249  N1308   1.447   .     S
C1249  H1287   1.112   .     S
C1249  H1288   1.110   .     S
C1249  H1286   1.111   .     S
C1250  H1290   1.111   .     S
C1250  H1291   1.110   .     S
C1250  N1300   1.447   .     S
C1250  H1293   1.112   .     S
C1251  O1315   1.295   .     A
C1251  O1314   1.293   .     A
C1252  H1259   1.081   .     S
C1252  N1301   1.366   .     A
C1253  N1299   1.366   .     A
C1253  H1270   1.078   .     S
C1253  C1536   1.413   .     S
C1254  N1301   1.365   .     A
C1254  H1281   1.081   .     S
C1255  H1292   1.082   .     S
C1255  N1299   1.366   .     A
C1255  C1534   1.415   .     S
C1256  N1306   1.424   .     S
Cu1257 O1309   1.983   .     S
Cu1257 O1315   1.960   .     S
Cu1257 O1311   1.990   .     S
Cu1257 N1299   2.007   .     S
Cu1257 Cu1258  2.671   .     S
Cu1257 O1313   1.962   .     S
Cu1258 O1310   1.983   .     S
Cu1258 O1314   1.962   .     S
Cu1258 N1301   2.007   .     S
Cu1258 O1312   1.990   .     S
Cu1258 O1316   1.960   .     S
H1263  N1303   1.032   .     S
H1267  N1304   1.032   .     S
H1272  N1305   1.032   .     S
H1276  N1306   1.030   .     S
H1280  N1307   1.028   .     S
H1285  N1308   1.030   .     S
H1289  N1300   1.030   .     S
H1298  N1302   1.032   .     S
C1317  O1403   1.293   .     A
C1317  O1406   1.290   .     A
C1317  C1335   1.466   .     S
C1318  C1334   1.416   .     A
C1318  N1401   1.422   .     S
C1318  C1132   1.392   1_655 S
C1319  C1334   1.415   .     A
C1319  N1402   1.426   .     S
C1319  C1162   1.392   1_655 S
C1320  N1394   1.427   .     S
C1320  C1335   1.413   .     A
C1321  H1388   1.083   .     S
C1321  C1332   1.403   .     A
C1321  C1325   1.393   .     A
C1322  H1389   1.083   .     S
C1322  C1333   1.399   .     A
C1322  C1326   1.396   .     A
C1323  C1327   1.394   .     A
C1323  C1333   1.400   .     A
C1323  H1390   1.083   .     S
C1324  C1329   1.397   .     A
C1324  C1332   1.403   .     A
C1324  H1391   1.083   .     S
C1325  N1396   1.423   .     S
C1325  C1330   1.406   .     A
C1326  C1331   1.417   .     A
C1326  N1397   1.423   .     S
C1327  C1331   1.416   .     A
C1327  N1398   1.424   .     S
C1328  O1405   1.292   .     A
C1328  O1404   1.293   .     A
C1328  C1334   1.469   .     S
C1329  C1330   1.409   .     A
C1329  N1399   1.424   .     S
C1330  C1339   1.453   .     S
C1331  C1345   1.474   .     S
C1333  C486    1.475   1_556 S
C1335  C1350   1.415   .     A
C1336  H1356   1.111   .     S
C1336  N1396   1.448   .     S
C1336  H1355   1.108   .     S
C1336  H1354   1.112   .     S
C1337  H1359   1.111   .     S
C1337  H1360   1.110   .     S
C1337  N1397   1.447   .     S
C1337  H1358   1.111   .     S
C1338  N1398   1.447   .     S
C1338  H1363   1.110   .     S
C1338  H1365   1.111   .     S
C1338  H1362   1.112   .     S
C1339  O1407   1.287   .     A
C1339  O1410   1.290   .     A
C1340  H1368   1.110   .     S
C1340  H1367   1.111   .     S
C1340  H1369   1.110   .     S
C1340  N1399   1.447   .     S
C1341  H1372   1.113   .     S
C1341  N1400   1.449   .     S
C1341  H1373   1.110   .     S
C1341  H1371   1.107   .     S
C1342  H1377   1.109   .     S
C1342  H1378   1.113   .     S
C1342  N1401   1.448   .     S
C1342  H1376   1.106   .     S
C1343  N1402   1.447   .     S
C1343  H1381   1.112   .     S
C1343  H1382   1.110   .     S
C1343  H1380   1.111   .     S
C1344  H1384   1.111   .     S
C1344  H1385   1.110   .     S
C1344  N1394   1.447   .     S
C1344  H1387   1.112   .     S
C1345  O1409   1.295   .     A
C1345  O1408   1.293   .     A
C1346  H1353   1.081   .     S
C1346  N1395   1.366   .     A
C1347  N1393   1.366   .     A
C1347  H1364   1.078   .     S
C1347  C1630   1.413   .     S
C1348  N1395   1.365   .     A
C1348  H1375   1.081   .     S
C1349  H1386   1.082   .     S
C1349  N1393   1.366   .     A
C1349  C1628   1.415   .     S
C1350  N1400   1.424   .     S
Cu1351 O1403   1.983   .     S
Cu1351 O1409   1.960   .     S
Cu1351 O1405   1.990   .     S
Cu1351 N1393   2.007   .     S
Cu1351 Cu1352  2.671   .     S
Cu1351 O1407   1.962   .     S
Cu1352 O1404   1.983   .     S
Cu1352 O1408   1.962   .     S
Cu1352 N1395   2.007   .     S
Cu1352 O1406   1.990   .     S
Cu1352 O1410   1.960   .     S
H1357  N1397   1.032   .     S
H1361  N1398   1.032   .     S
H1366  N1399   1.032   .     S
H1370  N1400   1.030   .     S
H1374  N1401   1.028   .     S
H1379  N1402   1.030   .     S
H1383  N1394   1.030   .     S
H1392  N1396   1.032   .     S
C1411  O1497   1.293   .     A
C1411  O1500   1.290   .     A
C1411  C1429   1.466   .     S
C1412  C1428   1.416   .     A
C1412  N1495   1.422   .     S
C1412  C1508   1.392   .     S
C1413  C1428   1.415   .     A
C1413  N1496   1.426   .     S
C1413  C1538   1.392   .     S
C1414  N1488   1.427   .     S
C1414  C1429   1.413   .     A
C1414  C1600   1.392   1_455 S
C1415  H1482   1.083   .     S
C1415  C1426   1.403   .     A
C1415  C1419   1.393   .     A
C1416  H1483   1.083   .     S
C1416  C1427   1.399   .     A
C1416  C1420   1.396   .     A
C1417  C1421   1.394   .     A
C1417  C1427   1.400   .     A
C1417  H1484   1.083   .     S
C1418  C1423   1.397   .     A
C1418  C1426   1.403   .     A
C1418  H1485   1.083   .     S
C1419  N1490   1.423   .     S
C1419  C1424   1.406   .     A
C1420  C1425   1.417   .     A
C1420  N1491   1.423   .     S
C1421  C1425   1.416   .     A
C1421  N1492   1.424   .     S
C1422  O1499   1.292   .     A
C1422  O1498   1.293   .     A
C1422  C1428   1.469   .     S
C1423  C1424   1.409   .     A
C1423  N1493   1.424   .     S
C1424  C1433   1.453   .     S
C1425  C1439   1.474   .     S
C1427  C580    1.475   1_556 S
C1429  C1444   1.415   .     A
C1430  H1450   1.111   .     S
C1430  N1490   1.448   .     S
C1430  H1449   1.108   .     S
C1430  H1448   1.112   .     S
C1431  H1453   1.111   .     S
C1431  H1454   1.110   .     S
C1431  N1491   1.447   .     S
C1431  H1452   1.111   .     S
C1432  N1492   1.447   .     S
C1432  H1457   1.110   .     S
C1432  H1459   1.111   .     S
C1432  H1456   1.112   .     S
C1433  O1501   1.287   .     A
C1433  O1504   1.290   .     A
C1434  H1462   1.110   .     S
C1434  H1461   1.111   .     S
C1434  H1463   1.110   .     S
C1434  N1493   1.447   .     S
C1435  H1466   1.113   .     S
C1435  N1494   1.449   .     S
C1435  H1467   1.110   .     S
C1435  H1465   1.107   .     S
C1436  H1471   1.109   .     S
C1436  H1472   1.113   .     S
C1436  N1495   1.448   .     S
C1436  H1470   1.106   .     S
C1437  N1496   1.447   .     S
C1437  H1475   1.112   .     S
C1437  H1476   1.110   .     S
C1437  H1474   1.111   .     S
C1438  H1478   1.111   .     S
C1438  H1479   1.110   .     S
C1438  N1488   1.447   .     S
C1438  H1481   1.112   .     S
C1439  O1503   1.295   .     A
C1439  O1502   1.293   .     A
C1440  H1447   1.081   .     S
C1440  N1489   1.366   .     A
C1441  N1487   1.366   .     A
C1441  H1458   1.078   .     S
C1441  C878    1.413   1_565 S
C1442  N1489   1.365   .     A
C1442  H1469   1.081   .     S
C1443  H1480   1.082   .     S
C1443  N1487   1.366   .     A
C1443  C876    1.415   1_565 S
C1444  N1494   1.424   .     S
C1444  C1601   1.392   1_455 S
Cu1445 O1497   1.983   .     S
Cu1445 O1503   1.960   .     S
Cu1445 O1499   1.990   .     S
Cu1445 N1487   2.007   .     S
Cu1445 Cu1446  2.671   .     S
Cu1445 O1501   1.962   .     S
Cu1446 O1498   1.983   .     S
Cu1446 O1502   1.962   .     S
Cu1446 N1489   2.007   .     S
Cu1446 O1500   1.990   .     S
Cu1446 O1504   1.960   .     S
H1451  N1491   1.032   .     S
H1455  N1492   1.032   .     S
H1460  N1493   1.032   .     S
H1464  N1494   1.030   .     S
H1468  N1495   1.028   .     S
H1473  N1496   1.030   .     S
H1477  N1488   1.030   .     S
H1486  N1490   1.032   .     S
C1505  O1591   1.293   .     A
C1505  O1594   1.290   .     A
C1505  C1523   1.466   .     S
C1506  C1522   1.416   .     A
C1506  N1589   1.422   .     S
C1506  C1602   1.392   .     S
C1507  C1522   1.415   .     A
C1507  N1590   1.426   .     S
C1507  C1632   1.392   .     S
C1508  N1582   1.427   .     S
C1508  C1523   1.413   .     A
C1509  H1576   1.083   .     S
C1509  C1520   1.403   .     A
C1509  C1513   1.393   .     A
C1510  H1577   1.083   .     S
C1510  C1521   1.399   .     A
C1510  C1514   1.396   .     A
C1511  C1515   1.394   .     A
C1511  C1521   1.400   .     A
C1511  H1578   1.083   .     S
C1512  C1517   1.397   .     A
C1512  C1520   1.403   .     A
C1512  H1579   1.083   .     S
C1513  N1584   1.423   .     S
C1513  C1518   1.406   .     A
C1514  C1519   1.417   .     A
C1514  N1585   1.423   .     S
C1515  C1519   1.416   .     A
C1515  N1586   1.424   .     S
C1516  O1593   1.292   .     A
C1516  O1592   1.293   .     A
C1516  C1522   1.469   .     S
C1517  C1518   1.409   .     A
C1517  N1587   1.424   .     S
C1518  C1527   1.453   .     S
C1519  C1533   1.474   .     S
C1521  C674    1.475   1_556 S
C1523  C1538   1.415   .     A
C1524  H1544   1.111   .     S
C1524  N1584   1.448   .     S
C1524  H1543   1.108   .     S
C1524  H1542   1.112   .     S
C1525  H1547   1.111   .     S
C1525  H1548   1.110   .     S
C1525  N1585   1.447   .     S
C1525  H1546   1.111   .     S
C1526  N1586   1.447   .     S
C1526  H1551   1.110   .     S
C1526  H1553   1.111   .     S
C1526  H1550   1.112   .     S
C1527  O1595   1.287   .     A
C1527  O1598   1.290   .     A
C1528  H1556   1.110   .     S
C1528  H1555   1.111   .     S
C1528  H1557   1.110   .     S
C1528  N1587   1.447   .     S
C1529  H1560   1.113   .     S
C1529  N1588   1.449   .     S
C1529  H1561   1.110   .     S
C1529  H1559   1.107   .     S
C1530  H1565   1.109   .     S
C1530  H1566   1.113   .     S
C1530  N1589   1.448   .     S
C1530  H1564   1.106   .     S
C1531  N1590   1.447   .     S
C1531  H1569   1.112   .     S
C1531  H1570   1.110   .     S
C1531  H1568   1.111   .     S
C1532  H1572   1.111   .     S
C1532  H1573   1.110   .     S
C1532  N1582   1.447   .     S
C1532  H1575   1.112   .     S
C1533  O1597   1.295   .     A
C1533  O1596   1.293   .     A
C1534  H1541   1.081   .     S
C1534  N1583   1.366   .     A
C1535  N1581   1.366   .     A
C1535  H1552   1.078   .     S
C1535  C972    1.413   1_565 S
C1536  N1583   1.365   .     A
C1536  H1563   1.081   .     S
C1537  H1574   1.082   .     S
C1537  N1581   1.366   .     A
C1537  C970    1.415   1_565 S
C1538  N1588   1.424   .     S
Cu1539 O1591   1.983   .     S
Cu1539 O1597   1.960   .     S
Cu1539 O1593   1.990   .     S
Cu1539 N1581   2.007   .     S
Cu1539 Cu1540  2.671   .     S
Cu1539 O1595   1.962   .     S
Cu1540 O1592   1.983   .     S
Cu1540 O1596   1.962   .     S
Cu1540 N1583   2.007   .     S
Cu1540 O1594   1.990   .     S
Cu1540 O1598   1.960   .     S
H1545  N1585   1.032   .     S
H1549  N1586   1.032   .     S
H1554  N1587   1.032   .     S
H1558  N1588   1.030   .     S
H1562  N1589   1.028   .     S
H1567  N1590   1.030   .     S
H1571  N1582   1.030   .     S
H1580  N1584   1.032   .     S
C1599  O1685   1.293   .     A
C1599  O1688   1.290   .     A
C1599  C1617   1.466   .     S
C1600  C1616   1.416   .     A
C1600  N1683   1.422   .     S
C1600  C1414   1.392   1_655 S
C1601  C1616   1.415   .     A
C1601  N1684   1.426   .     S
C1601  C1444   1.392   1_655 S
C1602  N1676   1.427   .     S
C1602  C1617   1.413   .     A
C1603  H1670   1.083   .     S
C1603  C1614   1.403   .     A
C1603  C1607   1.393   .     A
C1604  H1671   1.083   .     S
C1604  C1615   1.399   .     A
C1604  C1608   1.396   .     A
C1605  C1609   1.394   .     A
C1605  C1615   1.400   .     A
C1605  H1672   1.083   .     S
C1606  C1611   1.397   .     A
C1606  C1614   1.403   .     A
C1606  H1673   1.083   .     S
C1607  N1678   1.423   .     S
C1607  C1612   1.406   .     A
C1608  C1613   1.417   .     A
C1608  N1679   1.423   .     S
C1609  C1613   1.416   .     A
C1609  N1680   1.424   .     S
C1610  O1687   1.292   .     A
C1610  O1686   1.293   .     A
C1610  C1616   1.469   .     S
C1611  C1612   1.409   .     A
C1611  N1681   1.424   .     S
C1612  C1621   1.453   .     S
C1613  C1627   1.474   .     S
C1615  C768    1.475   1_556 S
C1617  C1632   1.415   .     A
C1618  H1638   1.111   .     S
C1618  N1678   1.448   .     S
C1618  H1637   1.108   .     S
C1618  H1636   1.112   .     S
C1619  H1641   1.111   .     S
C1619  H1642   1.110   .     S
C1619  N1679   1.447   .     S
C1619  H1640   1.111   .     S
C1620  N1680   1.447   .     S
C1620  H1645   1.110   .     S
C1620  H1647   1.111   .     S
C1620  H1644   1.112   .     S
C1621  O1689   1.287   .     A
C1621  O1692   1.290   .     A
C1622  H1650   1.110   .     S
C1622  H1649   1.111   .     S
C1622  H1651   1.110   .     S
C1622  N1681   1.447   .     S
C1623  H1654   1.113   .     S
C1623  N1682   1.449   .     S
C1623  H1655   1.110   .     S
C1623  H1653   1.107   .     S
C1624  H1659   1.109   .     S
C1624  H1660   1.113   .     S
C1624  N1683   1.448   .     S
C1624  H1658   1.106   .     S
C1625  N1684   1.447   .     S
C1625  H1663   1.112   .     S
C1625  H1664   1.110   .     S
C1625  H1662   1.111   .     S
C1626  H1666   1.111   .     S
C1626  H1667   1.110   .     S
C1626  N1676   1.447   .     S
C1626  H1669   1.112   .     S
C1627  O1691   1.295   .     A
C1627  O1690   1.293   .     A
C1628  H1635   1.081   .     S
C1628  N1677   1.366   .     A
C1629  N1675   1.366   .     A
C1629  H1646   1.078   .     S
C1629  C1066   1.413   1_565 S
C1630  N1677   1.365   .     A
C1630  H1657   1.081   .     S
C1631  H1668   1.082   .     S
C1631  N1675   1.366   .     A
C1631  C1064   1.415   1_565 S
C1632  N1682   1.424   .     S
Cu1633 O1685   1.983   .     S
Cu1633 O1691   1.960   .     S
Cu1633 O1687   1.990   .     S
Cu1633 N1675   2.007   .     S
Cu1633 Cu1634  2.671   .     S
Cu1633 O1689   1.962   .     S
Cu1634 O1686   1.983   .     S
Cu1634 O1690   1.962   .     S
Cu1634 N1677   2.007   .     S
Cu1634 O1688   1.990   .     S
Cu1634 O1692   1.960   .     S
H1639  N1679   1.032   .     S
H1643  N1680   1.032   .     S
H1648  N1681   1.032   .     S
H1652  N1682   1.030   .     S
H1656  N1683   1.028   .     S
H1661  N1684   1.030   .     S
H1665  N1676   1.030   .     S
H1674  N1678   1.032   .     S
