data_str_m3_o10_o18_pcu_sym.82
_audit_creation_date              2020-01-03
_audit_creation_method            'Materials Studio'
_symmetry_space_group_name_H-M    'P1'
_symmetry_Int_Tables_number       1
_symmetry_cell_setting            triclinic
loop_
_symmetry_equiv_pos_as_xyz
  x,y,z
_cell_length_a                    23.5769
_cell_length_b                    25.6763
_cell_length_c                    27.7484
_cell_angle_alpha                 93.3011
_cell_angle_beta                  94.1208
_cell_angle_gamma                 94.1474
loop_
_atom_site_label
_atom_site_type_symbol
_atom_site_fract_x
_atom_site_fract_y
_atom_site_fract_z
_atom_site_U_iso_or_equiv
_atom_site_adp_type
_atom_site_occupancy
C1     C     0.01500   0.26483   0.24876   0.00000  Uiso   1.00
C2     C     0.31126   0.15992   0.15937   0.00000  Uiso   1.00
C3     C     0.03584   0.18646   0.39310   0.00000  Uiso   1.00
C4     C     0.29773   0.14604   0.10802   0.00000  Uiso   1.00
C5     C     0.01073   0.20412   0.47545   0.00000  Uiso   1.00
C6     C     0.30117   0.08950   0.03522   0.00000  Uiso   1.00
C7     C     0.32842   0.20041   0.42583   0.00000  Uiso   1.00
C8     C     0.31829   0.10148   0.08403   0.00000  Uiso   1.00
C9     C     0.09239   0.18306   0.41131   0.00000  Uiso   1.00
C10    C     0.25623   0.17346   0.08428   0.00000  Uiso   1.00
C11    C     0.10372   0.17467   0.46000   0.00000  Uiso   1.00
C12    C     0.31834   0.06850   0.25122   0.00000  Uiso   1.00
C13    C     0.22777   0.15041   0.04139   0.00000  Uiso   1.00
C14    C     0.06447   0.19050   0.49285   0.00000  Uiso   1.00
C15    C     0.25508   0.11328   0.01379   0.00000  Uiso   1.00
C16    C     0.15421   0.15319   0.47676   0.00000  Uiso   1.00
C17    C     0.17230   0.16207   0.02614   0.00000  Uiso   1.00
C18    C     0.25895   0.26203   0.08118   0.00000  Uiso   1.00
C19    C     0.14947   0.24765   0.38386   0.00000  Uiso   1.00
C20    C     0.14020   0.11381   0.11504   0.00000  Uiso   1.00
C21    C     0.12305   0.05592   0.40602   0.00000  Uiso   1.00
C22    C     0.13191   0.17615   0.05948   0.00000  Uiso   1.00
C23    C     0.18380   0.11826   0.44742   0.00000  Uiso   1.00
C24    C     0.07917   0.19159   0.04238   0.00000  Uiso   1.00
C25    C     0.23331   0.09794   0.46673   0.00000  Uiso   1.00
C26    C     0.02278   0.31944   0.24806   0.00000  Uiso   1.00
C27    C     0.31055   0.01389   0.25183   0.00000  Uiso   1.00
C28    C     0.02243   0.17497   0.34080   0.00000  Uiso   1.00
H29    H     0.04918   0.20289   0.06802   0.00000  Uiso   1.00
H30    H     0.30627   0.26488   0.08121   0.00000  Uiso   1.00
H31    H     0.24683   0.29840   0.10003   0.00000  Uiso   1.00
H32    H     0.16429   0.26377   0.42110   0.00000  Uiso   1.00
H33    H     0.11196   0.26768   0.36969   0.00000  Uiso   1.00
H34    H     0.18427   0.25651   0.36016   0.00000  Uiso   1.00
H35    H     0.01277   0.06962   0.14210   0.00000  Uiso   1.00
H36    H     0.27837   0.23459   0.38252   0.00000  Uiso   1.00
H37    H     0.12315   0.08764   0.08293   0.00000  Uiso   1.00
H38    H     0.11374   0.10421   0.14504   0.00000  Uiso   1.00
H39    H     0.18417   0.10407   0.12584   0.00000  Uiso   1.00
H40    H     0.25393   0.06943   0.44509   0.00000  Uiso   1.00
H41    H     0.08540   0.06750   0.42490   0.00000  Uiso   1.00
H42    H     0.14365   0.02451   0.42516   0.00000  Uiso   1.00
H43    H     0.10735   0.03958   0.36920   0.00000  Uiso   1.00
H44    H     0.31374   0.21664   0.00027   0.00000  Uiso   1.00
H45    H     0.31957   0.05777   0.01582   0.00000  Uiso   1.00
H46    H     0.06571   0.00325   0.24450   0.00000  Uiso   1.00
H47    H     0.26761   0.33008   0.25539   0.00000  Uiso   1.00
H48    H     0.16241   0.12198   0.21761   0.00000  Uiso   1.00
H49    H     0.17120   0.21075   0.28339   0.00000  Uiso   1.00
H50    H     0.23888   0.26028   0.04354   0.00000  Uiso   1.00
N51    N     0.14695   0.15216   0.23740   0.00000  Uiso   1.00
N52    N     0.18638   0.18117   0.26261   0.00000  Uiso   1.00
O53    O     0.29719   0.24631   0.25310   0.00000  Uiso   1.00
O54    O     0.13738   0.19292   0.38279   0.00000  Uiso   1.00
O55    O     0.01796   0.06682   0.10704   0.00000  Uiso   1.00
O56    O     0.27469   0.21352   0.41105   0.00000  Uiso   1.00
O57    O     0.13945   0.16810   0.10840   0.00000  Uiso   1.00
O58    O     0.16213   0.09933   0.40159   0.00000  Uiso   1.00
O59    O     0.03614   0.08702   0.24691   0.00000  Uiso   1.00
O60    O     0.05822   0.23702   0.24502   0.00000  Uiso   1.00
O61    O     0.27512   0.09632   0.25499   0.00000  Uiso   1.00
O62    O     0.30328   0.17397   0.32247   0.00000  Uiso   1.00
O63    O     0.03005   0.15937   0.17753   0.00000  Uiso   1.00
O64    O     0.06431   0.16467   0.31439   0.00000  Uiso   1.00
O65    O     0.26902   0.16866   0.18561   0.00000  Uiso   1.00
O66    O     0.23916   0.21902   0.10635   0.00000  Uiso   1.00
Zn67   Zn    0.27033   0.17287   0.25540   0.00000  Uiso   1.00
Zn68   Zn    0.06300   0.16046   0.24461   0.00000  Uiso   1.00
C69    C     0.34833   0.26483   0.24876   0.00000  Uiso   1.00
C70    C     0.64459   0.15992   0.15937   0.00000  Uiso   1.00
C71    C     0.36918   0.18646   0.39310   0.00000  Uiso   1.00
C72    C     0.63106   0.14604   0.10802   0.00000  Uiso   1.00
C73    C     0.34407   0.20412   0.47545   0.00000  Uiso   1.00
C74    C     0.63451   0.08950   0.03522   0.00000  Uiso   1.00
C75    C     0.66175   0.20041   0.42583   0.00000  Uiso   1.00
C76    C     0.65163   0.10148   0.08403   0.00000  Uiso   1.00
C77    C     0.42573   0.18306   0.41131   0.00000  Uiso   1.00
C78    C     0.58956   0.17346   0.08428   0.00000  Uiso   1.00
C79    C     0.43706   0.17467   0.46000   0.00000  Uiso   1.00
C80    C     0.65167   0.06850   0.25122   0.00000  Uiso   1.00
C81    C     0.56111   0.15041   0.04139   0.00000  Uiso   1.00
C82    C     0.39780   0.19050   0.49285   0.00000  Uiso   1.00
C83    C     0.58841   0.11328   0.01379   0.00000  Uiso   1.00
C84    C     0.48754   0.15319   0.47676   0.00000  Uiso   1.00
C85    C     0.50563   0.16207   0.02614   0.00000  Uiso   1.00
C86    C     0.59228   0.26203   0.08118   0.00000  Uiso   1.00
C87    C     0.48280   0.24765   0.38386   0.00000  Uiso   1.00
C88    C     0.47354   0.11381   0.11504   0.00000  Uiso   1.00
C89    C     0.45638   0.05592   0.40602   0.00000  Uiso   1.00
C90    C     0.46524   0.17615   0.05948   0.00000  Uiso   1.00
C91    C     0.51713   0.11826   0.44742   0.00000  Uiso   1.00
C92    C     0.41250   0.19159   0.04238   0.00000  Uiso   1.00
C93    C     0.56664   0.09794   0.46673   0.00000  Uiso   1.00
C94    C     0.35611   0.31944   0.24806   0.00000  Uiso   1.00
C95    C     0.64388   0.01389   0.25183   0.00000  Uiso   1.00
C96    C     0.35577   0.17497   0.34080   0.00000  Uiso   1.00
H97    H     0.38251   0.20289   0.06802   0.00000  Uiso   1.00
H98    H     0.63961   0.26488   0.08121   0.00000  Uiso   1.00
H99    H     0.58017   0.29840   0.10003   0.00000  Uiso   1.00
H100   H     0.49763   0.26377   0.42110   0.00000  Uiso   1.00
H101   H     0.44530   0.26768   0.36969   0.00000  Uiso   1.00
H102   H     0.51760   0.25651   0.36016   0.00000  Uiso   1.00
H103   H     0.34610   0.06962   0.14210   0.00000  Uiso   1.00
H104   H     0.61170   0.23459   0.38252   0.00000  Uiso   1.00
H105   H     0.45648   0.08764   0.08293   0.00000  Uiso   1.00
H106   H     0.44707   0.10421   0.14504   0.00000  Uiso   1.00
H107   H     0.51750   0.10407   0.12584   0.00000  Uiso   1.00
H108   H     0.58726   0.06943   0.44509   0.00000  Uiso   1.00
H109   H     0.41874   0.06750   0.42490   0.00000  Uiso   1.00
H110   H     0.47699   0.02451   0.42516   0.00000  Uiso   1.00
H111   H     0.44069   0.03958   0.36920   0.00000  Uiso   1.00
H112   H     0.64707   0.21664   0.00027   0.00000  Uiso   1.00
H113   H     0.65290   0.05777   0.01582   0.00000  Uiso   1.00
H114   H     0.39905   0.00325   0.24450   0.00000  Uiso   1.00
H115   H     0.60095   0.33008   0.25539   0.00000  Uiso   1.00
H116   H     0.49575   0.12198   0.21761   0.00000  Uiso   1.00
H117   H     0.50454   0.21075   0.28339   0.00000  Uiso   1.00
H118   H     0.57221   0.26028   0.04354   0.00000  Uiso   1.00
N119   N     0.48029   0.15216   0.23740   0.00000  Uiso   1.00
N120   N     0.51971   0.18117   0.26261   0.00000  Uiso   1.00
O121   O     0.63052   0.24631   0.25310   0.00000  Uiso   1.00
O122   O     0.47071   0.19292   0.38279   0.00000  Uiso   1.00
O123   O     0.35130   0.06682   0.10704   0.00000  Uiso   1.00
O124   O     0.60803   0.21352   0.41105   0.00000  Uiso   1.00
O125   O     0.47278   0.16810   0.10840   0.00000  Uiso   1.00
O126   O     0.49546   0.09933   0.40159   0.00000  Uiso   1.00
O127   O     0.36948   0.08702   0.24691   0.00000  Uiso   1.00
O128   O     0.39155   0.23702   0.24502   0.00000  Uiso   1.00
O129   O     0.60845   0.09632   0.25499   0.00000  Uiso   1.00
O130   O     0.63662   0.17397   0.32247   0.00000  Uiso   1.00
O131   O     0.36338   0.15937   0.17753   0.00000  Uiso   1.00
O132   O     0.39764   0.16467   0.31439   0.00000  Uiso   1.00
O133   O     0.60236   0.16866   0.18561   0.00000  Uiso   1.00
O134   O     0.57249   0.21902   0.10635   0.00000  Uiso   1.00
Zn135  Zn    0.60366   0.17287   0.25540   0.00000  Uiso   1.00
Zn136  Zn    0.39634   0.16046   0.24461   0.00000  Uiso   1.00
C137   C     0.68166   0.26483   0.24876   0.00000  Uiso   1.00
C138   C     0.97792   0.15992   0.15937   0.00000  Uiso   1.00
C139   C     0.70251   0.18646   0.39310   0.00000  Uiso   1.00
C140   C     0.96439   0.14604   0.10802   0.00000  Uiso   1.00
C141   C     0.67740   0.20412   0.47545   0.00000  Uiso   1.00
C142   C     0.96784   0.08950   0.03522   0.00000  Uiso   1.00
C143   C     0.99509   0.20041   0.42583   0.00000  Uiso   1.00
C144   C     0.98496   0.10148   0.08403   0.00000  Uiso   1.00
C145   C     0.75906   0.18306   0.41131   0.00000  Uiso   1.00
C146   C     0.92290   0.17346   0.08428   0.00000  Uiso   1.00
C147   C     0.77039   0.17467   0.46000   0.00000  Uiso   1.00
C148   C     0.98500   0.06850   0.25122   0.00000  Uiso   1.00
C149   C     0.89444   0.15041   0.04139   0.00000  Uiso   1.00
C150   C     0.73113   0.19050   0.49285   0.00000  Uiso   1.00
C151   C     0.92175   0.11328   0.01379   0.00000  Uiso   1.00
C152   C     0.82088   0.15319   0.47676   0.00000  Uiso   1.00
C153   C     0.83896   0.16207   0.02614   0.00000  Uiso   1.00
C154   C     0.92561   0.26203   0.08118   0.00000  Uiso   1.00
C155   C     0.81613   0.24765   0.38386   0.00000  Uiso   1.00
C156   C     0.80687   0.11381   0.11504   0.00000  Uiso   1.00
C157   C     0.78972   0.05592   0.40602   0.00000  Uiso   1.00
C158   C     0.79857   0.17615   0.05948   0.00000  Uiso   1.00
C159   C     0.85047   0.11826   0.44742   0.00000  Uiso   1.00
C160   C     0.74584   0.19159   0.04238   0.00000  Uiso   1.00
C161   C     0.89997   0.09794   0.46673   0.00000  Uiso   1.00
C162   C     0.68944   0.31944   0.24806   0.00000  Uiso   1.00
C163   C     0.97722   0.01389   0.25183   0.00000  Uiso   1.00
C164   C     0.68910   0.17497   0.34080   0.00000  Uiso   1.00
H165   H     0.71584   0.20289   0.06802   0.00000  Uiso   1.00
H166   H     0.97294   0.26488   0.08121   0.00000  Uiso   1.00
H167   H     0.91350   0.29840   0.10003   0.00000  Uiso   1.00
H168   H     0.83096   0.26377   0.42110   0.00000  Uiso   1.00
H169   H     0.77863   0.26768   0.36969   0.00000  Uiso   1.00
H170   H     0.85094   0.25651   0.36016   0.00000  Uiso   1.00
H171   H     0.67943   0.06962   0.14210   0.00000  Uiso   1.00
H172   H     0.94504   0.23459   0.38252   0.00000  Uiso   1.00
H173   H     0.78982   0.08764   0.08293   0.00000  Uiso   1.00
H174   H     0.78041   0.10421   0.14504   0.00000  Uiso   1.00
H175   H     0.85083   0.10407   0.12584   0.00000  Uiso   1.00
H176   H     0.92059   0.06943   0.44509   0.00000  Uiso   1.00
H177   H     0.75207   0.06750   0.42490   0.00000  Uiso   1.00
H178   H     0.81032   0.02451   0.42516   0.00000  Uiso   1.00
H179   H     0.77402   0.03958   0.36920   0.00000  Uiso   1.00
H180   H     0.98040   0.21664   0.00027   0.00000  Uiso   1.00
H181   H     0.98623   0.05777   0.01582   0.00000  Uiso   1.00
H182   H     0.73238   0.00325   0.24450   0.00000  Uiso   1.00
H183   H     0.93428   0.33008   0.25539   0.00000  Uiso   1.00
H184   H     0.82908   0.12198   0.21761   0.00000  Uiso   1.00
H185   H     0.83787   0.21075   0.28339   0.00000  Uiso   1.00
H186   H     0.90554   0.26028   0.04354   0.00000  Uiso   1.00
N187   N     0.81362   0.15216   0.23740   0.00000  Uiso   1.00
N188   N     0.85305   0.18117   0.26261   0.00000  Uiso   1.00
O189   O     0.96386   0.24631   0.25310   0.00000  Uiso   1.00
O190   O     0.80404   0.19292   0.38279   0.00000  Uiso   1.00
O191   O     0.68463   0.06682   0.10704   0.00000  Uiso   1.00
O192   O     0.94136   0.21352   0.41105   0.00000  Uiso   1.00
O193   O     0.80612   0.16810   0.10840   0.00000  Uiso   1.00
O194   O     0.82880   0.09933   0.40159   0.00000  Uiso   1.00
O195   O     0.70281   0.08702   0.24691   0.00000  Uiso   1.00
O196   O     0.72488   0.23702   0.24502   0.00000  Uiso   1.00
O197   O     0.94178   0.09632   0.25499   0.00000  Uiso   1.00
O198   O     0.96995   0.17397   0.32247   0.00000  Uiso   1.00
O199   O     0.69672   0.15937   0.17753   0.00000  Uiso   1.00
O200   O     0.73098   0.16467   0.31439   0.00000  Uiso   1.00
O201   O     0.93569   0.16866   0.18561   0.00000  Uiso   1.00
O202   O     0.90583   0.21902   0.10635   0.00000  Uiso   1.00
Zn203  Zn    0.93700   0.17287   0.25540   0.00000  Uiso   1.00
Zn204  Zn    0.72967   0.16046   0.24461   0.00000  Uiso   1.00
C205   C     0.01500   0.59817   0.24876   0.00000  Uiso   1.00
C206   C     0.31126   0.49326   0.15937   0.00000  Uiso   1.00
C207   C     0.03584   0.51979   0.39310   0.00000  Uiso   1.00
C208   C     0.29773   0.47937   0.10802   0.00000  Uiso   1.00
C209   C     0.01073   0.53745   0.47545   0.00000  Uiso   1.00
C210   C     0.30117   0.42283   0.03522   0.00000  Uiso   1.00
C211   C     0.32842   0.53374   0.42583   0.00000  Uiso   1.00
C212   C     0.31829   0.43482   0.08403   0.00000  Uiso   1.00
C213   C     0.09239   0.51639   0.41131   0.00000  Uiso   1.00
C214   C     0.25623   0.50679   0.08428   0.00000  Uiso   1.00
C215   C     0.10372   0.50801   0.46000   0.00000  Uiso   1.00
C216   C     0.31834   0.40184   0.25122   0.00000  Uiso   1.00
C217   C     0.22777   0.48374   0.04139   0.00000  Uiso   1.00
C218   C     0.06447   0.52383   0.49285   0.00000  Uiso   1.00
C219   C     0.25508   0.44661   0.01379   0.00000  Uiso   1.00
C220   C     0.15421   0.48652   0.47676   0.00000  Uiso   1.00
C221   C     0.17230   0.49540   0.02614   0.00000  Uiso   1.00
C222   C     0.25895   0.59537   0.08118   0.00000  Uiso   1.00
C223   C     0.14947   0.58098   0.38386   0.00000  Uiso   1.00
C224   C     0.14020   0.44714   0.11504   0.00000  Uiso   1.00
C225   C     0.12305   0.38925   0.40602   0.00000  Uiso   1.00
C226   C     0.13191   0.50948   0.05948   0.00000  Uiso   1.00
C227   C     0.18380   0.45160   0.44742   0.00000  Uiso   1.00
C228   C     0.07917   0.52492   0.04238   0.00000  Uiso   1.00
C229   C     0.23331   0.43127   0.46673   0.00000  Uiso   1.00
C230   C     0.02278   0.65277   0.24806   0.00000  Uiso   1.00
C231   C     0.31055   0.34722   0.25183   0.00000  Uiso   1.00
C232   C     0.02243   0.50830   0.34080   0.00000  Uiso   1.00
H233   H     0.04918   0.53623   0.06802   0.00000  Uiso   1.00
H234   H     0.30627   0.59822   0.08121   0.00000  Uiso   1.00
H235   H     0.24683   0.63173   0.10003   0.00000  Uiso   1.00
H236   H     0.16429   0.59711   0.42110   0.00000  Uiso   1.00
H237   H     0.11196   0.60102   0.36969   0.00000  Uiso   1.00
H238   H     0.18427   0.58984   0.36016   0.00000  Uiso   1.00
H239   H     0.01277   0.40295   0.14210   0.00000  Uiso   1.00
H240   H     0.27837   0.56793   0.38252   0.00000  Uiso   1.00
H241   H     0.12315   0.42098   0.08293   0.00000  Uiso   1.00
H242   H     0.11374   0.43754   0.14504   0.00000  Uiso   1.00
H243   H     0.18417   0.43740   0.12584   0.00000  Uiso   1.00
H244   H     0.25393   0.40277   0.44509   0.00000  Uiso   1.00
H245   H     0.08540   0.40083   0.42490   0.00000  Uiso   1.00
H246   H     0.14365   0.35784   0.42516   0.00000  Uiso   1.00
H247   H     0.10735   0.37291   0.36920   0.00000  Uiso   1.00
H248   H     0.31374   0.54997   0.00027   0.00000  Uiso   1.00
H249   H     0.31957   0.39110   0.01582   0.00000  Uiso   1.00
H250   H     0.06571   0.33658   0.24450   0.00000  Uiso   1.00
H251   H     0.26761   0.66341   0.25539   0.00000  Uiso   1.00
H252   H     0.16241   0.45531   0.21761   0.00000  Uiso   1.00
H253   H     0.17120   0.54409   0.28339   0.00000  Uiso   1.00
H254   H     0.23888   0.59362   0.04354   0.00000  Uiso   1.00
N255   N     0.14695   0.48550   0.23740   0.00000  Uiso   1.00
N256   N     0.18638   0.51450   0.26261   0.00000  Uiso   1.00
O257   O     0.29719   0.57964   0.25310   0.00000  Uiso   1.00
O258   O     0.13738   0.52625   0.38279   0.00000  Uiso   1.00
O259   O     0.01796   0.40015   0.10704   0.00000  Uiso   1.00
O260   O     0.27469   0.54685   0.41105   0.00000  Uiso   1.00
O261   O     0.13945   0.50143   0.10840   0.00000  Uiso   1.00
O262   O     0.16213   0.43266   0.40159   0.00000  Uiso   1.00
O263   O     0.03614   0.42036   0.24691   0.00000  Uiso   1.00
O264   O     0.05822   0.57035   0.24502   0.00000  Uiso   1.00
O265   O     0.27512   0.42965   0.25499   0.00000  Uiso   1.00
O266   O     0.30328   0.50730   0.32247   0.00000  Uiso   1.00
O267   O     0.03005   0.49270   0.17753   0.00000  Uiso   1.00
O268   O     0.06431   0.49801   0.31439   0.00000  Uiso   1.00
O269   O     0.26902   0.50199   0.18561   0.00000  Uiso   1.00
O270   O     0.23916   0.55235   0.10635   0.00000  Uiso   1.00
Zn271  Zn    0.27033   0.50621   0.25540   0.00000  Uiso   1.00
Zn272  Zn    0.06300   0.49379   0.24461   0.00000  Uiso   1.00
C273   C     0.34833   0.59817   0.24876   0.00000  Uiso   1.00
C274   C     0.64459   0.49326   0.15937   0.00000  Uiso   1.00
C275   C     0.36918   0.51979   0.39310   0.00000  Uiso   1.00
C276   C     0.63106   0.47937   0.10802   0.00000  Uiso   1.00
C277   C     0.34407   0.53745   0.47545   0.00000  Uiso   1.00
C278   C     0.63451   0.42283   0.03522   0.00000  Uiso   1.00
C279   C     0.66175   0.53374   0.42583   0.00000  Uiso   1.00
C280   C     0.65163   0.43482   0.08403   0.00000  Uiso   1.00
C281   C     0.42573   0.51639   0.41131   0.00000  Uiso   1.00
C282   C     0.58956   0.50679   0.08428   0.00000  Uiso   1.00
C283   C     0.43706   0.50801   0.46000   0.00000  Uiso   1.00
C284   C     0.65167   0.40184   0.25122   0.00000  Uiso   1.00
C285   C     0.56111   0.48374   0.04139   0.00000  Uiso   1.00
C286   C     0.39780   0.52383   0.49285   0.00000  Uiso   1.00
C287   C     0.58841   0.44661   0.01379   0.00000  Uiso   1.00
C288   C     0.48754   0.48652   0.47676   0.00000  Uiso   1.00
C289   C     0.50563   0.49540   0.02614   0.00000  Uiso   1.00
C290   C     0.59228   0.59537   0.08118   0.00000  Uiso   1.00
C291   C     0.48280   0.58098   0.38386   0.00000  Uiso   1.00
C292   C     0.47354   0.44714   0.11504   0.00000  Uiso   1.00
C293   C     0.45638   0.38925   0.40602   0.00000  Uiso   1.00
C294   C     0.46524   0.50948   0.05948   0.00000  Uiso   1.00
C295   C     0.51713   0.45160   0.44742   0.00000  Uiso   1.00
C296   C     0.41250   0.52492   0.04238   0.00000  Uiso   1.00
C297   C     0.56664   0.43127   0.46673   0.00000  Uiso   1.00
C298   C     0.35611   0.65277   0.24806   0.00000  Uiso   1.00
C299   C     0.64388   0.34722   0.25183   0.00000  Uiso   1.00
C300   C     0.35577   0.50830   0.34080   0.00000  Uiso   1.00
H301   H     0.38251   0.53623   0.06802   0.00000  Uiso   1.00
H302   H     0.63961   0.59822   0.08121   0.00000  Uiso   1.00
H303   H     0.58017   0.63173   0.10003   0.00000  Uiso   1.00
H304   H     0.49763   0.59711   0.42110   0.00000  Uiso   1.00
H305   H     0.44530   0.60102   0.36969   0.00000  Uiso   1.00
H306   H     0.51760   0.58984   0.36016   0.00000  Uiso   1.00
H307   H     0.34610   0.40295   0.14210   0.00000  Uiso   1.00
H308   H     0.61170   0.56793   0.38252   0.00000  Uiso   1.00
H309   H     0.45648   0.42098   0.08293   0.00000  Uiso   1.00
H310   H     0.44707   0.43754   0.14504   0.00000  Uiso   1.00
H311   H     0.51750   0.43740   0.12584   0.00000  Uiso   1.00
H312   H     0.58726   0.40277   0.44509   0.00000  Uiso   1.00
H313   H     0.41874   0.40083   0.42490   0.00000  Uiso   1.00
H314   H     0.47699   0.35784   0.42516   0.00000  Uiso   1.00
H315   H     0.44069   0.37291   0.36920   0.00000  Uiso   1.00
H316   H     0.64707   0.54997   0.00027   0.00000  Uiso   1.00
H317   H     0.65290   0.39110   0.01582   0.00000  Uiso   1.00
H318   H     0.39905   0.33658   0.24450   0.00000  Uiso   1.00
H319   H     0.60095   0.66341   0.25539   0.00000  Uiso   1.00
H320   H     0.49575   0.45531   0.21761   0.00000  Uiso   1.00
H321   H     0.50454   0.54409   0.28339   0.00000  Uiso   1.00
H322   H     0.57221   0.59362   0.04354   0.00000  Uiso   1.00
N323   N     0.48029   0.48550   0.23740   0.00000  Uiso   1.00
N324   N     0.51971   0.51450   0.26261   0.00000  Uiso   1.00
O325   O     0.63052   0.57964   0.25310   0.00000  Uiso   1.00
O326   O     0.47071   0.52625   0.38279   0.00000  Uiso   1.00
O327   O     0.35130   0.40015   0.10704   0.00000  Uiso   1.00
O328   O     0.60803   0.54685   0.41105   0.00000  Uiso   1.00
O329   O     0.47278   0.50143   0.10840   0.00000  Uiso   1.00
O330   O     0.49546   0.43266   0.40159   0.00000  Uiso   1.00
O331   O     0.36948   0.42036   0.24691   0.00000  Uiso   1.00
O332   O     0.39155   0.57035   0.24502   0.00000  Uiso   1.00
O333   O     0.60845   0.42965   0.25499   0.00000  Uiso   1.00
O334   O     0.63662   0.50730   0.32247   0.00000  Uiso   1.00
O335   O     0.36338   0.49270   0.17753   0.00000  Uiso   1.00
O336   O     0.39764   0.49801   0.31439   0.00000  Uiso   1.00
O337   O     0.60236   0.50199   0.18561   0.00000  Uiso   1.00
O338   O     0.57249   0.55235   0.10635   0.00000  Uiso   1.00
Zn339  Zn    0.60366   0.50621   0.25540   0.00000  Uiso   1.00
Zn340  Zn    0.39634   0.49379   0.24461   0.00000  Uiso   1.00
C341   C     0.68166   0.59817   0.24876   0.00000  Uiso   1.00
C342   C     0.97792   0.49326   0.15937   0.00000  Uiso   1.00
C343   C     0.70251   0.51979   0.39310   0.00000  Uiso   1.00
C344   C     0.96439   0.47937   0.10802   0.00000  Uiso   1.00
C345   C     0.67740   0.53745   0.47545   0.00000  Uiso   1.00
C346   C     0.96784   0.42283   0.03522   0.00000  Uiso   1.00
C347   C     0.99509   0.53374   0.42583   0.00000  Uiso   1.00
C348   C     0.98496   0.43482   0.08403   0.00000  Uiso   1.00
C349   C     0.75906   0.51639   0.41131   0.00000  Uiso   1.00
C350   C     0.92290   0.50679   0.08428   0.00000  Uiso   1.00
C351   C     0.77039   0.50801   0.46000   0.00000  Uiso   1.00
C352   C     0.98500   0.40184   0.25122   0.00000  Uiso   1.00
C353   C     0.89444   0.48374   0.04139   0.00000  Uiso   1.00
C354   C     0.73113   0.52383   0.49285   0.00000  Uiso   1.00
C355   C     0.92175   0.44661   0.01379   0.00000  Uiso   1.00
C356   C     0.82088   0.48652   0.47676   0.00000  Uiso   1.00
C357   C     0.83896   0.49540   0.02614   0.00000  Uiso   1.00
C358   C     0.92561   0.59537   0.08118   0.00000  Uiso   1.00
C359   C     0.81613   0.58098   0.38386   0.00000  Uiso   1.00
C360   C     0.80687   0.44714   0.11504   0.00000  Uiso   1.00
C361   C     0.78972   0.38925   0.40602   0.00000  Uiso   1.00
C362   C     0.79857   0.50948   0.05948   0.00000  Uiso   1.00
C363   C     0.85047   0.45160   0.44742   0.00000  Uiso   1.00
C364   C     0.74584   0.52492   0.04238   0.00000  Uiso   1.00
C365   C     0.89997   0.43127   0.46673   0.00000  Uiso   1.00
C366   C     0.68944   0.65277   0.24806   0.00000  Uiso   1.00
C367   C     0.97722   0.34722   0.25183   0.00000  Uiso   1.00
C368   C     0.68910   0.50830   0.34080   0.00000  Uiso   1.00
H369   H     0.71584   0.53623   0.06802   0.00000  Uiso   1.00
H370   H     0.97294   0.59822   0.08121   0.00000  Uiso   1.00
H371   H     0.91350   0.63173   0.10003   0.00000  Uiso   1.00
H372   H     0.83096   0.59711   0.42110   0.00000  Uiso   1.00
H373   H     0.77863   0.60102   0.36969   0.00000  Uiso   1.00
H374   H     0.85094   0.58984   0.36016   0.00000  Uiso   1.00
H375   H     0.67943   0.40295   0.14210   0.00000  Uiso   1.00
H376   H     0.94504   0.56793   0.38252   0.00000  Uiso   1.00
H377   H     0.78982   0.42098   0.08293   0.00000  Uiso   1.00
H378   H     0.78041   0.43754   0.14504   0.00000  Uiso   1.00
H379   H     0.85083   0.43740   0.12584   0.00000  Uiso   1.00
H380   H     0.92059   0.40277   0.44509   0.00000  Uiso   1.00
H381   H     0.75207   0.40083   0.42490   0.00000  Uiso   1.00
H382   H     0.81032   0.35784   0.42516   0.00000  Uiso   1.00
H383   H     0.77402   0.37291   0.36920   0.00000  Uiso   1.00
H384   H     0.98040   0.54997   0.00027   0.00000  Uiso   1.00
H385   H     0.98623   0.39110   0.01582   0.00000  Uiso   1.00
H386   H     0.73238   0.33658   0.24450   0.00000  Uiso   1.00
H387   H     0.93428   0.66341   0.25539   0.00000  Uiso   1.00
H388   H     0.82908   0.45531   0.21761   0.00000  Uiso   1.00
H389   H     0.83787   0.54409   0.28339   0.00000  Uiso   1.00
H390   H     0.90554   0.59362   0.04354   0.00000  Uiso   1.00
N391   N     0.81362   0.48550   0.23740   0.00000  Uiso   1.00
N392   N     0.85305   0.51450   0.26261   0.00000  Uiso   1.00
O393   O     0.96386   0.57964   0.25310   0.00000  Uiso   1.00
O394   O     0.80404   0.52625   0.38279   0.00000  Uiso   1.00
O395   O     0.68463   0.40015   0.10704   0.00000  Uiso   1.00
O396   O     0.94136   0.54685   0.41105   0.00000  Uiso   1.00
O397   O     0.80612   0.50143   0.10840   0.00000  Uiso   1.00
O398   O     0.82880   0.43266   0.40159   0.00000  Uiso   1.00
O399   O     0.70281   0.42036   0.24691   0.00000  Uiso   1.00
O400   O     0.72488   0.57035   0.24502   0.00000  Uiso   1.00
O401   O     0.94178   0.42965   0.25499   0.00000  Uiso   1.00
O402   O     0.96995   0.50730   0.32247   0.00000  Uiso   1.00
O403   O     0.69672   0.49270   0.17753   0.00000  Uiso   1.00
O404   O     0.73098   0.49801   0.31439   0.00000  Uiso   1.00
O405   O     0.93569   0.50199   0.18561   0.00000  Uiso   1.00
O406   O     0.90583   0.55235   0.10635   0.00000  Uiso   1.00
Zn407  Zn    0.93700   0.50621   0.25540   0.00000  Uiso   1.00
Zn408  Zn    0.72967   0.49379   0.24461   0.00000  Uiso   1.00
C409   C     0.01500   0.93150   0.24876   0.00000  Uiso   1.00
C410   C     0.31126   0.82659   0.15937   0.00000  Uiso   1.00
C411   C     0.03584   0.85312   0.39310   0.00000  Uiso   1.00
C412   C     0.29773   0.81271   0.10802   0.00000  Uiso   1.00
C413   C     0.01073   0.87079   0.47545   0.00000  Uiso   1.00
C414   C     0.30117   0.75616   0.03522   0.00000  Uiso   1.00
C415   C     0.32842   0.86708   0.42583   0.00000  Uiso   1.00
C416   C     0.31829   0.76815   0.08403   0.00000  Uiso   1.00
C417   C     0.09239   0.84972   0.41131   0.00000  Uiso   1.00
C418   C     0.25623   0.84013   0.08428   0.00000  Uiso   1.00
C419   C     0.10372   0.84134   0.46000   0.00000  Uiso   1.00
C420   C     0.31834   0.73517   0.25122   0.00000  Uiso   1.00
C421   C     0.22777   0.81708   0.04139   0.00000  Uiso   1.00
C422   C     0.06447   0.85716   0.49285   0.00000  Uiso   1.00
C423   C     0.25508   0.77995   0.01379   0.00000  Uiso   1.00
C424   C     0.15421   0.81985   0.47676   0.00000  Uiso   1.00
C425   C     0.17230   0.82874   0.02614   0.00000  Uiso   1.00
C426   C     0.25895   0.92870   0.08118   0.00000  Uiso   1.00
C427   C     0.14947   0.91431   0.38386   0.00000  Uiso   1.00
C428   C     0.14020   0.78047   0.11504   0.00000  Uiso   1.00
C429   C     0.12305   0.72258   0.40602   0.00000  Uiso   1.00
C430   C     0.13191   0.84281   0.05948   0.00000  Uiso   1.00
C431   C     0.18380   0.78493   0.44742   0.00000  Uiso   1.00
C432   C     0.07917   0.85825   0.04238   0.00000  Uiso   1.00
C433   C     0.23331   0.76461   0.46673   0.00000  Uiso   1.00
C434   C     0.02278   0.98611   0.24806   0.00000  Uiso   1.00
C435   C     0.31055   0.68056   0.25183   0.00000  Uiso   1.00
C436   C     0.02243   0.84164   0.34080   0.00000  Uiso   1.00
H437   H     0.04918   0.86956   0.06802   0.00000  Uiso   1.00
H438   H     0.30627   0.93155   0.08121   0.00000  Uiso   1.00
H439   H     0.24683   0.96506   0.10003   0.00000  Uiso   1.00
H440   H     0.16429   0.93044   0.42110   0.00000  Uiso   1.00
H441   H     0.11196   0.93435   0.36969   0.00000  Uiso   1.00
H442   H     0.18427   0.92318   0.36016   0.00000  Uiso   1.00
H443   H     0.01277   0.73629   0.14210   0.00000  Uiso   1.00
H444   H     0.27837   0.90126   0.38252   0.00000  Uiso   1.00
H445   H     0.12315   0.75431   0.08293   0.00000  Uiso   1.00
H446   H     0.11374   0.77088   0.14504   0.00000  Uiso   1.00
H447   H     0.18417   0.77074   0.12584   0.00000  Uiso   1.00
H448   H     0.25393   0.73610   0.44509   0.00000  Uiso   1.00
H449   H     0.08540   0.73417   0.42490   0.00000  Uiso   1.00
H450   H     0.14365   0.69118   0.42516   0.00000  Uiso   1.00
H451   H     0.10735   0.70625   0.36920   0.00000  Uiso   1.00
H452   H     0.31374   0.88330   0.00027   0.00000  Uiso   1.00
H453   H     0.31957   0.72444   0.01582   0.00000  Uiso   1.00
H454   H     0.06571   0.66992   0.24450   0.00000  Uiso   1.00
H455   H     0.26761   0.99675   0.25539   0.00000  Uiso   1.00
H456   H     0.16241   0.78864   0.21761   0.00000  Uiso   1.00
H457   H     0.17120   0.87742   0.28339   0.00000  Uiso   1.00
H458   H     0.23888   0.92695   0.04354   0.00000  Uiso   1.00
N459   N     0.14695   0.81883   0.23740   0.00000  Uiso   1.00
N460   N     0.18638   0.84784   0.26261   0.00000  Uiso   1.00
O461   O     0.29719   0.91298   0.25310   0.00000  Uiso   1.00
O462   O     0.13738   0.85959   0.38279   0.00000  Uiso   1.00
O463   O     0.01796   0.73348   0.10704   0.00000  Uiso   1.00
O464   O     0.27469   0.88018   0.41105   0.00000  Uiso   1.00
O465   O     0.13945   0.83477   0.10840   0.00000  Uiso   1.00
O466   O     0.16213   0.76600   0.40159   0.00000  Uiso   1.00
O467   O     0.03614   0.75369   0.24691   0.00000  Uiso   1.00
O468   O     0.05822   0.90368   0.24502   0.00000  Uiso   1.00
O469   O     0.27512   0.76298   0.25499   0.00000  Uiso   1.00
O470   O     0.30328   0.84063   0.32247   0.00000  Uiso   1.00
O471   O     0.03005   0.82603   0.17753   0.00000  Uiso   1.00
O472   O     0.06431   0.83134   0.31439   0.00000  Uiso   1.00
O473   O     0.26902   0.83533   0.18561   0.00000  Uiso   1.00
O474   O     0.23916   0.88569   0.10635   0.00000  Uiso   1.00
Zn475  Zn    0.27033   0.83954   0.25540   0.00000  Uiso   1.00
Zn476  Zn    0.06300   0.82713   0.24461   0.00000  Uiso   1.00
C477   C     0.34833   0.93150   0.24876   0.00000  Uiso   1.00
C478   C     0.64459   0.82659   0.15937   0.00000  Uiso   1.00
C479   C     0.36918   0.85312   0.39310   0.00000  Uiso   1.00
C480   C     0.63106   0.81271   0.10802   0.00000  Uiso   1.00
C481   C     0.34407   0.87079   0.47545   0.00000  Uiso   1.00
C482   C     0.63451   0.75616   0.03522   0.00000  Uiso   1.00
C483   C     0.66175   0.86708   0.42583   0.00000  Uiso   1.00
C484   C     0.65163   0.76815   0.08403   0.00000  Uiso   1.00
C485   C     0.42573   0.84972   0.41131   0.00000  Uiso   1.00
C486   C     0.58956   0.84013   0.08428   0.00000  Uiso   1.00
C487   C     0.43706   0.84134   0.46000   0.00000  Uiso   1.00
C488   C     0.65167   0.73517   0.25122   0.00000  Uiso   1.00
C489   C     0.56111   0.81708   0.04139   0.00000  Uiso   1.00
C490   C     0.39780   0.85716   0.49285   0.00000  Uiso   1.00
C491   C     0.58841   0.77995   0.01379   0.00000  Uiso   1.00
C492   C     0.48754   0.81985   0.47676   0.00000  Uiso   1.00
C493   C     0.50563   0.82874   0.02614   0.00000  Uiso   1.00
C494   C     0.59228   0.92870   0.08118   0.00000  Uiso   1.00
C495   C     0.48280   0.91431   0.38386   0.00000  Uiso   1.00
C496   C     0.47354   0.78047   0.11504   0.00000  Uiso   1.00
C497   C     0.45638   0.72258   0.40602   0.00000  Uiso   1.00
C498   C     0.46524   0.84281   0.05948   0.00000  Uiso   1.00
C499   C     0.51713   0.78493   0.44742   0.00000  Uiso   1.00
C500   C     0.41250   0.85825   0.04238   0.00000  Uiso   1.00
C501   C     0.56664   0.76461   0.46673   0.00000  Uiso   1.00
C502   C     0.35611   0.98611   0.24806   0.00000  Uiso   1.00
C503   C     0.64388   0.68056   0.25183   0.00000  Uiso   1.00
C504   C     0.35577   0.84164   0.34080   0.00000  Uiso   1.00
H505   H     0.38251   0.86956   0.06802   0.00000  Uiso   1.00
H506   H     0.63961   0.93155   0.08121   0.00000  Uiso   1.00
H507   H     0.58017   0.96506   0.10003   0.00000  Uiso   1.00
H508   H     0.49763   0.93044   0.42110   0.00000  Uiso   1.00
H509   H     0.44530   0.93435   0.36969   0.00000  Uiso   1.00
H510   H     0.51760   0.92318   0.36016   0.00000  Uiso   1.00
H511   H     0.34610   0.73629   0.14210   0.00000  Uiso   1.00
H512   H     0.61170   0.90126   0.38252   0.00000  Uiso   1.00
H513   H     0.45648   0.75431   0.08293   0.00000  Uiso   1.00
H514   H     0.44707   0.77088   0.14504   0.00000  Uiso   1.00
H515   H     0.51750   0.77074   0.12584   0.00000  Uiso   1.00
H516   H     0.58726   0.73610   0.44509   0.00000  Uiso   1.00
H517   H     0.41874   0.73417   0.42490   0.00000  Uiso   1.00
H518   H     0.47699   0.69118   0.42516   0.00000  Uiso   1.00
H519   H     0.44069   0.70625   0.36920   0.00000  Uiso   1.00
H520   H     0.64707   0.88330   0.00027   0.00000  Uiso   1.00
H521   H     0.65290   0.72444   0.01582   0.00000  Uiso   1.00
H522   H     0.39905   0.66992   0.24450   0.00000  Uiso   1.00
H523   H     0.60095   0.99675   0.25539   0.00000  Uiso   1.00
H524   H     0.49575   0.78864   0.21761   0.00000  Uiso   1.00
H525   H     0.50454   0.87742   0.28339   0.00000  Uiso   1.00
H526   H     0.57221   0.92695   0.04354   0.00000  Uiso   1.00
N527   N     0.48029   0.81883   0.23740   0.00000  Uiso   1.00
N528   N     0.51971   0.84784   0.26261   0.00000  Uiso   1.00
O529   O     0.63052   0.91298   0.25310   0.00000  Uiso   1.00
O530   O     0.47071   0.85959   0.38279   0.00000  Uiso   1.00
O531   O     0.35130   0.73348   0.10704   0.00000  Uiso   1.00
O532   O     0.60803   0.88018   0.41105   0.00000  Uiso   1.00
O533   O     0.47278   0.83477   0.10840   0.00000  Uiso   1.00
O534   O     0.49546   0.76600   0.40159   0.00000  Uiso   1.00
O535   O     0.36948   0.75369   0.24691   0.00000  Uiso   1.00
O536   O     0.39155   0.90368   0.24502   0.00000  Uiso   1.00
O537   O     0.60845   0.76298   0.25499   0.00000  Uiso   1.00
O538   O     0.63662   0.84063   0.32247   0.00000  Uiso   1.00
O539   O     0.36338   0.82603   0.17753   0.00000  Uiso   1.00
O540   O     0.39764   0.83134   0.31439   0.00000  Uiso   1.00
O541   O     0.60236   0.83533   0.18561   0.00000  Uiso   1.00
O542   O     0.57249   0.88569   0.10635   0.00000  Uiso   1.00
Zn543  Zn    0.60366   0.83954   0.25540   0.00000  Uiso   1.00
Zn544  Zn    0.39634   0.82713   0.24461   0.00000  Uiso   1.00
C545   C     0.68166   0.93150   0.24876   0.00000  Uiso   1.00
C546   C     0.97792   0.82659   0.15937   0.00000  Uiso   1.00
C547   C     0.70251   0.85312   0.39310   0.00000  Uiso   1.00
C548   C     0.96439   0.81271   0.10802   0.00000  Uiso   1.00
C549   C     0.67740   0.87079   0.47545   0.00000  Uiso   1.00
C550   C     0.96784   0.75616   0.03522   0.00000  Uiso   1.00
C551   C     0.99509   0.86708   0.42583   0.00000  Uiso   1.00
C552   C     0.98496   0.76815   0.08403   0.00000  Uiso   1.00
C553   C     0.75906   0.84972   0.41131   0.00000  Uiso   1.00
C554   C     0.92290   0.84013   0.08428   0.00000  Uiso   1.00
C555   C     0.77039   0.84134   0.46000   0.00000  Uiso   1.00
C556   C     0.98500   0.73517   0.25122   0.00000  Uiso   1.00
C557   C     0.89444   0.81708   0.04139   0.00000  Uiso   1.00
C558   C     0.73113   0.85716   0.49285   0.00000  Uiso   1.00
C559   C     0.92175   0.77995   0.01379   0.00000  Uiso   1.00
C560   C     0.82088   0.81985   0.47676   0.00000  Uiso   1.00
C561   C     0.83896   0.82874   0.02614   0.00000  Uiso   1.00
C562   C     0.92561   0.92870   0.08118   0.00000  Uiso   1.00
C563   C     0.81613   0.91431   0.38386   0.00000  Uiso   1.00
C564   C     0.80687   0.78047   0.11504   0.00000  Uiso   1.00
C565   C     0.78972   0.72258   0.40602   0.00000  Uiso   1.00
C566   C     0.79857   0.84281   0.05948   0.00000  Uiso   1.00
C567   C     0.85047   0.78493   0.44742   0.00000  Uiso   1.00
C568   C     0.74584   0.85825   0.04238   0.00000  Uiso   1.00
C569   C     0.89997   0.76461   0.46673   0.00000  Uiso   1.00
C570   C     0.68944   0.98611   0.24806   0.00000  Uiso   1.00
C571   C     0.97722   0.68056   0.25183   0.00000  Uiso   1.00
C572   C     0.68910   0.84164   0.34080   0.00000  Uiso   1.00
H573   H     0.71584   0.86956   0.06802   0.00000  Uiso   1.00
H574   H     0.97294   0.93155   0.08121   0.00000  Uiso   1.00
H575   H     0.91350   0.96506   0.10003   0.00000  Uiso   1.00
H576   H     0.83096   0.93044   0.42110   0.00000  Uiso   1.00
H577   H     0.77863   0.93435   0.36969   0.00000  Uiso   1.00
H578   H     0.85094   0.92318   0.36016   0.00000  Uiso   1.00
H579   H     0.67943   0.73629   0.14210   0.00000  Uiso   1.00
H580   H     0.94504   0.90126   0.38252   0.00000  Uiso   1.00
H581   H     0.78982   0.75431   0.08293   0.00000  Uiso   1.00
H582   H     0.78041   0.77088   0.14504   0.00000  Uiso   1.00
H583   H     0.85083   0.77074   0.12584   0.00000  Uiso   1.00
H584   H     0.92059   0.73610   0.44509   0.00000  Uiso   1.00
H585   H     0.75207   0.73417   0.42490   0.00000  Uiso   1.00
H586   H     0.81032   0.69118   0.42516   0.00000  Uiso   1.00
H587   H     0.77402   0.70625   0.36920   0.00000  Uiso   1.00
H588   H     0.98040   0.88330   0.00027   0.00000  Uiso   1.00
H589   H     0.98623   0.72444   0.01582   0.00000  Uiso   1.00
H590   H     0.73238   0.66992   0.24450   0.00000  Uiso   1.00
H591   H     0.93428   0.99675   0.25539   0.00000  Uiso   1.00
H592   H     0.82908   0.78864   0.21761   0.00000  Uiso   1.00
H593   H     0.83787   0.87742   0.28339   0.00000  Uiso   1.00
H594   H     0.90554   0.92695   0.04354   0.00000  Uiso   1.00
N595   N     0.81362   0.81883   0.23740   0.00000  Uiso   1.00
N596   N     0.85305   0.84784   0.26261   0.00000  Uiso   1.00
O597   O     0.96386   0.91298   0.25310   0.00000  Uiso   1.00
O598   O     0.80404   0.85959   0.38279   0.00000  Uiso   1.00
O599   O     0.68463   0.73348   0.10704   0.00000  Uiso   1.00
O600   O     0.94136   0.88018   0.41105   0.00000  Uiso   1.00
O601   O     0.80612   0.83477   0.10840   0.00000  Uiso   1.00
O602   O     0.82880   0.76600   0.40159   0.00000  Uiso   1.00
O603   O     0.70281   0.75369   0.24691   0.00000  Uiso   1.00
O604   O     0.72488   0.90368   0.24502   0.00000  Uiso   1.00
O605   O     0.94178   0.76298   0.25499   0.00000  Uiso   1.00
O606   O     0.96995   0.84063   0.32247   0.00000  Uiso   1.00
O607   O     0.69672   0.82603   0.17753   0.00000  Uiso   1.00
O608   O     0.73098   0.83134   0.31439   0.00000  Uiso   1.00
O609   O     0.93569   0.83533   0.18561   0.00000  Uiso   1.00
O610   O     0.90583   0.88569   0.10635   0.00000  Uiso   1.00
Zn611  Zn    0.93700   0.83954   0.25540   0.00000  Uiso   1.00
Zn612  Zn    0.72967   0.82713   0.24461   0.00000  Uiso   1.00
C613   C     0.01500   0.26483   0.74876   0.00000  Uiso   1.00
C614   C     0.31126   0.15992   0.65937   0.00000  Uiso   1.00
C615   C     0.03584   0.18646   0.89310   0.00000  Uiso   1.00
C616   C     0.29773   0.14604   0.60802   0.00000  Uiso   1.00
C617   C     0.01073   0.20412   0.97545   0.00000  Uiso   1.00
C618   C     0.30117   0.08950   0.53522   0.00000  Uiso   1.00
C619   C     0.32842   0.20041   0.92583   0.00000  Uiso   1.00
C620   C     0.31829   0.10148   0.58403   0.00000  Uiso   1.00
C621   C     0.09239   0.18306   0.91131   0.00000  Uiso   1.00
C622   C     0.25623   0.17346   0.58428   0.00000  Uiso   1.00
C623   C     0.10372   0.17467   0.96000   0.00000  Uiso   1.00
C624   C     0.31834   0.06850   0.75122   0.00000  Uiso   1.00
C625   C     0.22777   0.15041   0.54139   0.00000  Uiso   1.00
C626   C     0.06447   0.19050   0.99285   0.00000  Uiso   1.00
C627   C     0.25508   0.11328   0.51379   0.00000  Uiso   1.00
C628   C     0.15421   0.15319   0.97676   0.00000  Uiso   1.00
C629   C     0.17230   0.16207   0.52614   0.00000  Uiso   1.00
C630   C     0.25895   0.26203   0.58118   0.00000  Uiso   1.00
C631   C     0.14947   0.24765   0.88386   0.00000  Uiso   1.00
C632   C     0.14020   0.11381   0.61504   0.00000  Uiso   1.00
C633   C     0.12305   0.05592   0.90602   0.00000  Uiso   1.00
C634   C     0.13191   0.17615   0.55948   0.00000  Uiso   1.00
C635   C     0.18380   0.11826   0.94742   0.00000  Uiso   1.00
C636   C     0.07917   0.19159   0.54238   0.00000  Uiso   1.00
C637   C     0.23331   0.09794   0.96673   0.00000  Uiso   1.00
C638   C     0.02278   0.31944   0.74806   0.00000  Uiso   1.00
C639   C     0.31055   0.01389   0.75183   0.00000  Uiso   1.00
C640   C     0.02243   0.17497   0.84080   0.00000  Uiso   1.00
H641   H     0.04918   0.20289   0.56802   0.00000  Uiso   1.00
H642   H     0.30627   0.26488   0.58121   0.00000  Uiso   1.00
H643   H     0.24683   0.29840   0.60003   0.00000  Uiso   1.00
H644   H     0.16429   0.26377   0.92110   0.00000  Uiso   1.00
H645   H     0.11196   0.26768   0.86969   0.00000  Uiso   1.00
H646   H     0.18427   0.25651   0.86016   0.00000  Uiso   1.00
H647   H     0.01277   0.06962   0.64210   0.00000  Uiso   1.00
H648   H     0.27837   0.23459   0.88252   0.00000  Uiso   1.00
H649   H     0.12315   0.08764   0.58293   0.00000  Uiso   1.00
H650   H     0.11374   0.10421   0.64504   0.00000  Uiso   1.00
H651   H     0.18417   0.10407   0.62584   0.00000  Uiso   1.00
H652   H     0.25393   0.06943   0.94509   0.00000  Uiso   1.00
H653   H     0.08540   0.06750   0.92490   0.00000  Uiso   1.00
H654   H     0.14365   0.02451   0.92516   0.00000  Uiso   1.00
H655   H     0.10735   0.03958   0.86920   0.00000  Uiso   1.00
H656   H     0.31374   0.21664   0.50027   0.00000  Uiso   1.00
H657   H     0.31957   0.05777   0.51582   0.00000  Uiso   1.00
H658   H     0.06571   0.00325   0.74450   0.00000  Uiso   1.00
H659   H     0.26761   0.33008   0.75539   0.00000  Uiso   1.00
H660   H     0.16241   0.12198   0.71761   0.00000  Uiso   1.00
H661   H     0.17120   0.21075   0.78339   0.00000  Uiso   1.00
H662   H     0.23888   0.26028   0.54354   0.00000  Uiso   1.00
N663   N     0.14695   0.15216   0.73740   0.00000  Uiso   1.00
N664   N     0.18638   0.18117   0.76261   0.00000  Uiso   1.00
O665   O     0.29719   0.24631   0.75310   0.00000  Uiso   1.00
O666   O     0.13738   0.19292   0.88279   0.00000  Uiso   1.00
O667   O     0.01796   0.06682   0.60704   0.00000  Uiso   1.00
O668   O     0.27469   0.21352   0.91105   0.00000  Uiso   1.00
O669   O     0.13945   0.16810   0.60840   0.00000  Uiso   1.00
O670   O     0.16213   0.09933   0.90159   0.00000  Uiso   1.00
O671   O     0.03614   0.08702   0.74691   0.00000  Uiso   1.00
O672   O     0.05822   0.23702   0.74502   0.00000  Uiso   1.00
O673   O     0.27512   0.09632   0.75499   0.00000  Uiso   1.00
O674   O     0.30328   0.17397   0.82247   0.00000  Uiso   1.00
O675   O     0.03005   0.15937   0.67753   0.00000  Uiso   1.00
O676   O     0.06431   0.16467   0.81439   0.00000  Uiso   1.00
O677   O     0.26902   0.16866   0.68561   0.00000  Uiso   1.00
O678   O     0.23916   0.21902   0.60635   0.00000  Uiso   1.00
Zn679  Zn    0.27033   0.17287   0.75540   0.00000  Uiso   1.00
Zn680  Zn    0.06300   0.16046   0.74461   0.00000  Uiso   1.00
C681   C     0.34833   0.26483   0.74876   0.00000  Uiso   1.00
C682   C     0.64459   0.15992   0.65937   0.00000  Uiso   1.00
C683   C     0.36918   0.18646   0.89310   0.00000  Uiso   1.00
C684   C     0.63106   0.14604   0.60802   0.00000  Uiso   1.00
C685   C     0.34407   0.20412   0.97545   0.00000  Uiso   1.00
C686   C     0.63451   0.08950   0.53522   0.00000  Uiso   1.00
C687   C     0.66175   0.20041   0.92583   0.00000  Uiso   1.00
C688   C     0.65163   0.10148   0.58403   0.00000  Uiso   1.00
C689   C     0.42573   0.18306   0.91131   0.00000  Uiso   1.00
C690   C     0.58956   0.17346   0.58428   0.00000  Uiso   1.00
C691   C     0.43706   0.17467   0.96000   0.00000  Uiso   1.00
C692   C     0.65167   0.06850   0.75122   0.00000  Uiso   1.00
C693   C     0.56111   0.15041   0.54139   0.00000  Uiso   1.00
C694   C     0.39780   0.19050   0.99285   0.00000  Uiso   1.00
C695   C     0.58841   0.11328   0.51379   0.00000  Uiso   1.00
C696   C     0.48754   0.15319   0.97676   0.00000  Uiso   1.00
C697   C     0.50563   0.16207   0.52614   0.00000  Uiso   1.00
C698   C     0.59228   0.26203   0.58118   0.00000  Uiso   1.00
C699   C     0.48280   0.24765   0.88386   0.00000  Uiso   1.00
C700   C     0.47354   0.11381   0.61504   0.00000  Uiso   1.00
C701   C     0.45638   0.05592   0.90602   0.00000  Uiso   1.00
C702   C     0.46524   0.17615   0.55948   0.00000  Uiso   1.00
C703   C     0.51713   0.11826   0.94742   0.00000  Uiso   1.00
C704   C     0.41250   0.19159   0.54238   0.00000  Uiso   1.00
C705   C     0.56664   0.09794   0.96673   0.00000  Uiso   1.00
C706   C     0.35611   0.31944   0.74806   0.00000  Uiso   1.00
C707   C     0.64388   0.01389   0.75183   0.00000  Uiso   1.00
C708   C     0.35577   0.17497   0.84080   0.00000  Uiso   1.00
H709   H     0.38251   0.20289   0.56802   0.00000  Uiso   1.00
H710   H     0.63961   0.26488   0.58121   0.00000  Uiso   1.00
H711   H     0.58017   0.29840   0.60003   0.00000  Uiso   1.00
H712   H     0.49763   0.26377   0.92110   0.00000  Uiso   1.00
H713   H     0.44530   0.26768   0.86969   0.00000  Uiso   1.00
H714   H     0.51760   0.25651   0.86016   0.00000  Uiso   1.00
H715   H     0.34610   0.06962   0.64210   0.00000  Uiso   1.00
H716   H     0.61170   0.23459   0.88252   0.00000  Uiso   1.00
H717   H     0.45648   0.08764   0.58293   0.00000  Uiso   1.00
H718   H     0.44707   0.10421   0.64504   0.00000  Uiso   1.00
H719   H     0.51750   0.10407   0.62584   0.00000  Uiso   1.00
H720   H     0.58726   0.06943   0.94509   0.00000  Uiso   1.00
H721   H     0.41874   0.06750   0.92490   0.00000  Uiso   1.00
H722   H     0.47699   0.02451   0.92516   0.00000  Uiso   1.00
H723   H     0.44069   0.03958   0.86920   0.00000  Uiso   1.00
H724   H     0.64707   0.21664   0.50027   0.00000  Uiso   1.00
H725   H     0.65290   0.05777   0.51582   0.00000  Uiso   1.00
H726   H     0.39905   0.00325   0.74450   0.00000  Uiso   1.00
H727   H     0.60095   0.33008   0.75539   0.00000  Uiso   1.00
H728   H     0.49575   0.12198   0.71761   0.00000  Uiso   1.00
H729   H     0.50454   0.21075   0.78339   0.00000  Uiso   1.00
H730   H     0.57221   0.26028   0.54354   0.00000  Uiso   1.00
N731   N     0.48029   0.15216   0.73740   0.00000  Uiso   1.00
N732   N     0.51971   0.18117   0.76261   0.00000  Uiso   1.00
O733   O     0.63052   0.24631   0.75310   0.00000  Uiso   1.00
O734   O     0.47071   0.19292   0.88279   0.00000  Uiso   1.00
O735   O     0.35130   0.06682   0.60704   0.00000  Uiso   1.00
O736   O     0.60803   0.21352   0.91105   0.00000  Uiso   1.00
O737   O     0.47278   0.16810   0.60840   0.00000  Uiso   1.00
O738   O     0.49546   0.09933   0.90159   0.00000  Uiso   1.00
O739   O     0.36948   0.08702   0.74691   0.00000  Uiso   1.00
O740   O     0.39155   0.23702   0.74502   0.00000  Uiso   1.00
O741   O     0.60845   0.09632   0.75499   0.00000  Uiso   1.00
O742   O     0.63662   0.17397   0.82247   0.00000  Uiso   1.00
O743   O     0.36338   0.15937   0.67753   0.00000  Uiso   1.00
O744   O     0.39764   0.16467   0.81439   0.00000  Uiso   1.00
O745   O     0.60236   0.16866   0.68561   0.00000  Uiso   1.00
O746   O     0.57249   0.21902   0.60635   0.00000  Uiso   1.00
Zn747  Zn    0.60366   0.17287   0.75540   0.00000  Uiso   1.00
Zn748  Zn    0.39634   0.16046   0.74461   0.00000  Uiso   1.00
C749   C     0.68166   0.26483   0.74876   0.00000  Uiso   1.00
C750   C     0.97792   0.15992   0.65937   0.00000  Uiso   1.00
C751   C     0.70251   0.18646   0.89310   0.00000  Uiso   1.00
C752   C     0.96439   0.14604   0.60802   0.00000  Uiso   1.00
C753   C     0.67740   0.20412   0.97545   0.00000  Uiso   1.00
C754   C     0.96784   0.08950   0.53522   0.00000  Uiso   1.00
C755   C     0.99509   0.20041   0.92583   0.00000  Uiso   1.00
C756   C     0.98496   0.10148   0.58403   0.00000  Uiso   1.00
C757   C     0.75906   0.18306   0.91131   0.00000  Uiso   1.00
C758   C     0.92290   0.17346   0.58428   0.00000  Uiso   1.00
C759   C     0.77039   0.17467   0.96000   0.00000  Uiso   1.00
C760   C     0.98500   0.06850   0.75122   0.00000  Uiso   1.00
C761   C     0.89444   0.15041   0.54139   0.00000  Uiso   1.00
C762   C     0.73113   0.19050   0.99285   0.00000  Uiso   1.00
C763   C     0.92175   0.11328   0.51379   0.00000  Uiso   1.00
C764   C     0.82088   0.15319   0.97676   0.00000  Uiso   1.00
C765   C     0.83896   0.16207   0.52614   0.00000  Uiso   1.00
C766   C     0.92561   0.26203   0.58118   0.00000  Uiso   1.00
C767   C     0.81613   0.24765   0.88386   0.00000  Uiso   1.00
C768   C     0.80687   0.11381   0.61504   0.00000  Uiso   1.00
C769   C     0.78972   0.05592   0.90602   0.00000  Uiso   1.00
C770   C     0.79857   0.17615   0.55948   0.00000  Uiso   1.00
C771   C     0.85047   0.11826   0.94742   0.00000  Uiso   1.00
C772   C     0.74584   0.19159   0.54238   0.00000  Uiso   1.00
C773   C     0.89997   0.09794   0.96673   0.00000  Uiso   1.00
C774   C     0.68944   0.31944   0.74806   0.00000  Uiso   1.00
C775   C     0.97722   0.01389   0.75183   0.00000  Uiso   1.00
C776   C     0.68910   0.17497   0.84080   0.00000  Uiso   1.00
H777   H     0.71584   0.20289   0.56802   0.00000  Uiso   1.00
H778   H     0.97294   0.26488   0.58121   0.00000  Uiso   1.00
H779   H     0.91350   0.29840   0.60003   0.00000  Uiso   1.00
H780   H     0.83096   0.26377   0.92110   0.00000  Uiso   1.00
H781   H     0.77863   0.26768   0.86969   0.00000  Uiso   1.00
H782   H     0.85094   0.25651   0.86016   0.00000  Uiso   1.00
H783   H     0.67943   0.06962   0.64210   0.00000  Uiso   1.00
H784   H     0.94504   0.23459   0.88252   0.00000  Uiso   1.00
H785   H     0.78982   0.08764   0.58293   0.00000  Uiso   1.00
H786   H     0.78041   0.10421   0.64504   0.00000  Uiso   1.00
H787   H     0.85083   0.10407   0.62584   0.00000  Uiso   1.00
H788   H     0.92059   0.06943   0.94509   0.00000  Uiso   1.00
H789   H     0.75207   0.06750   0.92490   0.00000  Uiso   1.00
H790   H     0.81032   0.02451   0.92516   0.00000  Uiso   1.00
H791   H     0.77402   0.03958   0.86920   0.00000  Uiso   1.00
H792   H     0.98040   0.21664   0.50027   0.00000  Uiso   1.00
H793   H     0.98623   0.05777   0.51582   0.00000  Uiso   1.00
H794   H     0.73238   0.00325   0.74450   0.00000  Uiso   1.00
H795   H     0.93428   0.33008   0.75539   0.00000  Uiso   1.00
H796   H     0.82908   0.12198   0.71761   0.00000  Uiso   1.00
H797   H     0.83787   0.21075   0.78339   0.00000  Uiso   1.00
H798   H     0.90554   0.26028   0.54354   0.00000  Uiso   1.00
N799   N     0.81362   0.15216   0.73740   0.00000  Uiso   1.00
N800   N     0.85305   0.18117   0.76261   0.00000  Uiso   1.00
O801   O     0.96386   0.24631   0.75310   0.00000  Uiso   1.00
O802   O     0.80404   0.19292   0.88279   0.00000  Uiso   1.00
O803   O     0.68463   0.06682   0.60704   0.00000  Uiso   1.00
O804   O     0.94136   0.21352   0.91105   0.00000  Uiso   1.00
O805   O     0.80612   0.16810   0.60840   0.00000  Uiso   1.00
O806   O     0.82880   0.09933   0.90159   0.00000  Uiso   1.00
O807   O     0.70281   0.08702   0.74691   0.00000  Uiso   1.00
O808   O     0.72488   0.23702   0.74502   0.00000  Uiso   1.00
O809   O     0.94178   0.09632   0.75499   0.00000  Uiso   1.00
O810   O     0.96995   0.17397   0.82247   0.00000  Uiso   1.00
O811   O     0.69672   0.15937   0.67753   0.00000  Uiso   1.00
O812   O     0.73098   0.16467   0.81439   0.00000  Uiso   1.00
O813   O     0.93569   0.16866   0.68561   0.00000  Uiso   1.00
O814   O     0.90583   0.21902   0.60635   0.00000  Uiso   1.00
Zn815  Zn    0.93700   0.17287   0.75540   0.00000  Uiso   1.00
Zn816  Zn    0.72967   0.16046   0.74461   0.00000  Uiso   1.00
C817   C     0.01500   0.59817   0.74876   0.00000  Uiso   1.00
C818   C     0.31126   0.49326   0.65937   0.00000  Uiso   1.00
C819   C     0.03584   0.51979   0.89310   0.00000  Uiso   1.00
C820   C     0.29773   0.47937   0.60802   0.00000  Uiso   1.00
C821   C     0.01073   0.53745   0.97545   0.00000  Uiso   1.00
C822   C     0.30117   0.42283   0.53522   0.00000  Uiso   1.00
C823   C     0.32842   0.53374   0.92583   0.00000  Uiso   1.00
C824   C     0.31829   0.43482   0.58403   0.00000  Uiso   1.00
C825   C     0.09239   0.51639   0.91131   0.00000  Uiso   1.00
C826   C     0.25623   0.50679   0.58428   0.00000  Uiso   1.00
C827   C     0.10372   0.50801   0.96000   0.00000  Uiso   1.00
C828   C     0.31834   0.40184   0.75122   0.00000  Uiso   1.00
C829   C     0.22777   0.48374   0.54139   0.00000  Uiso   1.00
C830   C     0.06447   0.52383   0.99285   0.00000  Uiso   1.00
C831   C     0.25508   0.44661   0.51379   0.00000  Uiso   1.00
C832   C     0.15421   0.48652   0.97676   0.00000  Uiso   1.00
C833   C     0.17230   0.49540   0.52614   0.00000  Uiso   1.00
C834   C     0.25895   0.59537   0.58118   0.00000  Uiso   1.00
C835   C     0.14947   0.58098   0.88386   0.00000  Uiso   1.00
C836   C     0.14020   0.44714   0.61504   0.00000  Uiso   1.00
C837   C     0.12305   0.38925   0.90602   0.00000  Uiso   1.00
C838   C     0.13191   0.50948   0.55948   0.00000  Uiso   1.00
C839   C     0.18380   0.45160   0.94742   0.00000  Uiso   1.00
C840   C     0.07917   0.52492   0.54238   0.00000  Uiso   1.00
C841   C     0.23331   0.43127   0.96673   0.00000  Uiso   1.00
C842   C     0.02278   0.65277   0.74806   0.00000  Uiso   1.00
C843   C     0.31055   0.34722   0.75183   0.00000  Uiso   1.00
C844   C     0.02243   0.50830   0.84080   0.00000  Uiso   1.00
H845   H     0.04918   0.53623   0.56802   0.00000  Uiso   1.00
H846   H     0.30627   0.59822   0.58121   0.00000  Uiso   1.00
H847   H     0.24683   0.63173   0.60003   0.00000  Uiso   1.00
H848   H     0.16429   0.59711   0.92110   0.00000  Uiso   1.00
H849   H     0.11196   0.60102   0.86969   0.00000  Uiso   1.00
H850   H     0.18427   0.58984   0.86016   0.00000  Uiso   1.00
H851   H     0.01277   0.40295   0.64210   0.00000  Uiso   1.00
H852   H     0.27837   0.56793   0.88252   0.00000  Uiso   1.00
H853   H     0.12315   0.42098   0.58293   0.00000  Uiso   1.00
H854   H     0.11374   0.43754   0.64504   0.00000  Uiso   1.00
H855   H     0.18417   0.43740   0.62584   0.00000  Uiso   1.00
H856   H     0.25393   0.40277   0.94509   0.00000  Uiso   1.00
H857   H     0.08540   0.40083   0.92490   0.00000  Uiso   1.00
H858   H     0.14365   0.35784   0.92516   0.00000  Uiso   1.00
H859   H     0.10735   0.37291   0.86920   0.00000  Uiso   1.00
H860   H     0.31374   0.54997   0.50027   0.00000  Uiso   1.00
H861   H     0.31957   0.39110   0.51582   0.00000  Uiso   1.00
H862   H     0.06571   0.33658   0.74450   0.00000  Uiso   1.00
H863   H     0.26761   0.66341   0.75539   0.00000  Uiso   1.00
H864   H     0.16241   0.45531   0.71761   0.00000  Uiso   1.00
H865   H     0.17120   0.54409   0.78339   0.00000  Uiso   1.00
H866   H     0.23888   0.59362   0.54354   0.00000  Uiso   1.00
N867   N     0.14695   0.48550   0.73740   0.00000  Uiso   1.00
N868   N     0.18638   0.51450   0.76261   0.00000  Uiso   1.00
O869   O     0.29719   0.57964   0.75310   0.00000  Uiso   1.00
O870   O     0.13738   0.52625   0.88279   0.00000  Uiso   1.00
O871   O     0.01796   0.40015   0.60704   0.00000  Uiso   1.00
O872   O     0.27469   0.54685   0.91105   0.00000  Uiso   1.00
O873   O     0.13945   0.50143   0.60840   0.00000  Uiso   1.00
O874   O     0.16213   0.43266   0.90159   0.00000  Uiso   1.00
O875   O     0.03614   0.42036   0.74691   0.00000  Uiso   1.00
O876   O     0.05822   0.57035   0.74502   0.00000  Uiso   1.00
O877   O     0.27512   0.42965   0.75499   0.00000  Uiso   1.00
O878   O     0.30328   0.50730   0.82247   0.00000  Uiso   1.00
O879   O     0.03005   0.49270   0.67753   0.00000  Uiso   1.00
O880   O     0.06431   0.49801   0.81439   0.00000  Uiso   1.00
O881   O     0.26902   0.50199   0.68561   0.00000  Uiso   1.00
O882   O     0.23916   0.55235   0.60635   0.00000  Uiso   1.00
Zn883  Zn    0.27033   0.50621   0.75540   0.00000  Uiso   1.00
Zn884  Zn    0.06300   0.49379   0.74461   0.00000  Uiso   1.00
C885   C     0.34833   0.59817   0.74876   0.00000  Uiso   1.00
C886   C     0.64459   0.49326   0.65937   0.00000  Uiso   1.00
C887   C     0.36918   0.51979   0.89310   0.00000  Uiso   1.00
C888   C     0.63106   0.47937   0.60802   0.00000  Uiso   1.00
C889   C     0.34407   0.53745   0.97545   0.00000  Uiso   1.00
C890   C     0.63451   0.42283   0.53522   0.00000  Uiso   1.00
C891   C     0.66175   0.53374   0.92583   0.00000  Uiso   1.00
C892   C     0.65163   0.43482   0.58403   0.00000  Uiso   1.00
C893   C     0.42573   0.51639   0.91131   0.00000  Uiso   1.00
C894   C     0.58956   0.50679   0.58428   0.00000  Uiso   1.00
C895   C     0.43706   0.50801   0.96000   0.00000  Uiso   1.00
C896   C     0.65167   0.40184   0.75122   0.00000  Uiso   1.00
C897   C     0.56111   0.48374   0.54139   0.00000  Uiso   1.00
C898   C     0.39780   0.52383   0.99285   0.00000  Uiso   1.00
C899   C     0.58841   0.44661   0.51379   0.00000  Uiso   1.00
C900   C     0.48754   0.48652   0.97676   0.00000  Uiso   1.00
C901   C     0.50563   0.49540   0.52614   0.00000  Uiso   1.00
C902   C     0.59228   0.59537   0.58118   0.00000  Uiso   1.00
C903   C     0.48280   0.58098   0.88386   0.00000  Uiso   1.00
C904   C     0.47354   0.44714   0.61504   0.00000  Uiso   1.00
C905   C     0.45638   0.38925   0.90602   0.00000  Uiso   1.00
C906   C     0.46524   0.50948   0.55948   0.00000  Uiso   1.00
C907   C     0.51713   0.45160   0.94742   0.00000  Uiso   1.00
C908   C     0.41250   0.52492   0.54238   0.00000  Uiso   1.00
C909   C     0.56664   0.43127   0.96673   0.00000  Uiso   1.00
C910   C     0.35611   0.65277   0.74806   0.00000  Uiso   1.00
C911   C     0.64388   0.34722   0.75183   0.00000  Uiso   1.00
C912   C     0.35577   0.50830   0.84080   0.00000  Uiso   1.00
H913   H     0.38251   0.53623   0.56802   0.00000  Uiso   1.00
H914   H     0.63961   0.59822   0.58121   0.00000  Uiso   1.00
H915   H     0.58017   0.63173   0.60003   0.00000  Uiso   1.00
H916   H     0.49763   0.59711   0.92110   0.00000  Uiso   1.00
H917   H     0.44530   0.60102   0.86969   0.00000  Uiso   1.00
H918   H     0.51760   0.58984   0.86016   0.00000  Uiso   1.00
H919   H     0.34610   0.40295   0.64210   0.00000  Uiso   1.00
H920   H     0.61170   0.56793   0.88252   0.00000  Uiso   1.00
H921   H     0.45648   0.42098   0.58293   0.00000  Uiso   1.00
H922   H     0.44707   0.43754   0.64504   0.00000  Uiso   1.00
H923   H     0.51750   0.43740   0.62584   0.00000  Uiso   1.00
H924   H     0.58726   0.40277   0.94509   0.00000  Uiso   1.00
H925   H     0.41874   0.40083   0.92490   0.00000  Uiso   1.00
H926   H     0.47699   0.35784   0.92516   0.00000  Uiso   1.00
H927   H     0.44069   0.37291   0.86920   0.00000  Uiso   1.00
H928   H     0.64707   0.54997   0.50027   0.00000  Uiso   1.00
H929   H     0.65290   0.39110   0.51582   0.00000  Uiso   1.00
H930   H     0.39905   0.33658   0.74450   0.00000  Uiso   1.00
H931   H     0.60095   0.66341   0.75539   0.00000  Uiso   1.00
H932   H     0.49575   0.45531   0.71761   0.00000  Uiso   1.00
H933   H     0.50454   0.54409   0.78339   0.00000  Uiso   1.00
H934   H     0.57221   0.59362   0.54354   0.00000  Uiso   1.00
N935   N     0.48029   0.48550   0.73740   0.00000  Uiso   1.00
N936   N     0.51971   0.51450   0.76261   0.00000  Uiso   1.00
O937   O     0.63052   0.57964   0.75310   0.00000  Uiso   1.00
O938   O     0.47071   0.52625   0.88279   0.00000  Uiso   1.00
O939   O     0.35130   0.40015   0.60704   0.00000  Uiso   1.00
O940   O     0.60803   0.54685   0.91105   0.00000  Uiso   1.00
O941   O     0.47278   0.50143   0.60840   0.00000  Uiso   1.00
O942   O     0.49546   0.43266   0.90159   0.00000  Uiso   1.00
O943   O     0.36948   0.42036   0.74691   0.00000  Uiso   1.00
O944   O     0.39155   0.57035   0.74502   0.00000  Uiso   1.00
O945   O     0.60845   0.42965   0.75499   0.00000  Uiso   1.00
O946   O     0.63662   0.50730   0.82247   0.00000  Uiso   1.00
O947   O     0.36338   0.49270   0.67753   0.00000  Uiso   1.00
O948   O     0.39764   0.49801   0.81439   0.00000  Uiso   1.00
O949   O     0.60236   0.50199   0.68561   0.00000  Uiso   1.00
O950   O     0.57249   0.55235   0.60635   0.00000  Uiso   1.00
Zn951  Zn    0.60366   0.50621   0.75540   0.00000  Uiso   1.00
Zn952  Zn    0.39634   0.49379   0.74461   0.00000  Uiso   1.00
C953   C     0.68166   0.59817   0.74876   0.00000  Uiso   1.00
C954   C     0.97792   0.49326   0.65937   0.00000  Uiso   1.00
C955   C     0.70251   0.51979   0.89310   0.00000  Uiso   1.00
C956   C     0.96439   0.47937   0.60802   0.00000  Uiso   1.00
C957   C     0.67740   0.53745   0.97545   0.00000  Uiso   1.00
C958   C     0.96784   0.42283   0.53522   0.00000  Uiso   1.00
C959   C     0.99509   0.53374   0.92583   0.00000  Uiso   1.00
C960   C     0.98496   0.43482   0.58403   0.00000  Uiso   1.00
C961   C     0.75906   0.51639   0.91131   0.00000  Uiso   1.00
C962   C     0.92290   0.50679   0.58428   0.00000  Uiso   1.00
C963   C     0.77039   0.50801   0.96000   0.00000  Uiso   1.00
C964   C     0.98500   0.40184   0.75122   0.00000  Uiso   1.00
C965   C     0.89444   0.48374   0.54139   0.00000  Uiso   1.00
C966   C     0.73113   0.52383   0.99285   0.00000  Uiso   1.00
C967   C     0.92175   0.44661   0.51379   0.00000  Uiso   1.00
C968   C     0.82088   0.48652   0.97676   0.00000  Uiso   1.00
C969   C     0.83896   0.49540   0.52614   0.00000  Uiso   1.00
C970   C     0.92561   0.59537   0.58118   0.00000  Uiso   1.00
C971   C     0.81613   0.58098   0.88386   0.00000  Uiso   1.00
C972   C     0.80687   0.44714   0.61504   0.00000  Uiso   1.00
C973   C     0.78972   0.38925   0.90602   0.00000  Uiso   1.00
C974   C     0.79857   0.50948   0.55948   0.00000  Uiso   1.00
C975   C     0.85047   0.45160   0.94742   0.00000  Uiso   1.00
C976   C     0.74584   0.52492   0.54238   0.00000  Uiso   1.00
C977   C     0.89997   0.43127   0.96673   0.00000  Uiso   1.00
C978   C     0.68944   0.65277   0.74806   0.00000  Uiso   1.00
C979   C     0.97722   0.34722   0.75183   0.00000  Uiso   1.00
C980   C     0.68910   0.50830   0.84080   0.00000  Uiso   1.00
H981   H     0.71584   0.53623   0.56802   0.00000  Uiso   1.00
H982   H     0.97294   0.59822   0.58121   0.00000  Uiso   1.00
H983   H     0.91350   0.63173   0.60003   0.00000  Uiso   1.00
H984   H     0.83096   0.59711   0.92110   0.00000  Uiso   1.00
H985   H     0.77863   0.60102   0.86969   0.00000  Uiso   1.00
H986   H     0.85094   0.58984   0.86016   0.00000  Uiso   1.00
H987   H     0.67943   0.40295   0.64210   0.00000  Uiso   1.00
H988   H     0.94504   0.56793   0.88252   0.00000  Uiso   1.00
H989   H     0.78982   0.42098   0.58293   0.00000  Uiso   1.00
H990   H     0.78041   0.43754   0.64504   0.00000  Uiso   1.00
H991   H     0.85083   0.43740   0.62584   0.00000  Uiso   1.00
H992   H     0.92059   0.40277   0.94509   0.00000  Uiso   1.00
H993   H     0.75207   0.40083   0.92490   0.00000  Uiso   1.00
H994   H     0.81032   0.35784   0.92516   0.00000  Uiso   1.00
H995   H     0.77402   0.37291   0.86920   0.00000  Uiso   1.00
H996   H     0.98040   0.54997   0.50027   0.00000  Uiso   1.00
H997   H     0.98623   0.39110   0.51582   0.00000  Uiso   1.00
H998   H     0.73238   0.33658   0.74450   0.00000  Uiso   1.00
H999   H     0.93428   0.66341   0.75539   0.00000  Uiso   1.00
H1000  H     0.82908   0.45531   0.71761   0.00000  Uiso   1.00
H1001  H     0.83787   0.54409   0.78339   0.00000  Uiso   1.00
H1002  H     0.90554   0.59362   0.54354   0.00000  Uiso   1.00
N1003  N     0.81362   0.48550   0.73740   0.00000  Uiso   1.00
N1004  N     0.85305   0.51450   0.76261   0.00000  Uiso   1.00
O1005  O     0.96386   0.57964   0.75310   0.00000  Uiso   1.00
O1006  O     0.80404   0.52625   0.88279   0.00000  Uiso   1.00
O1007  O     0.68463   0.40015   0.60704   0.00000  Uiso   1.00
O1008  O     0.94136   0.54685   0.91105   0.00000  Uiso   1.00
O1009  O     0.80612   0.50143   0.60840   0.00000  Uiso   1.00
O1010  O     0.82880   0.43266   0.90159   0.00000  Uiso   1.00
O1011  O     0.70281   0.42036   0.74691   0.00000  Uiso   1.00
O1012  O     0.72488   0.57035   0.74502   0.00000  Uiso   1.00
O1013  O     0.94178   0.42965   0.75499   0.00000  Uiso   1.00
O1014  O     0.96995   0.50730   0.82247   0.00000  Uiso   1.00
O1015  O     0.69672   0.49270   0.67753   0.00000  Uiso   1.00
O1016  O     0.73098   0.49801   0.81439   0.00000  Uiso   1.00
O1017  O     0.93569   0.50199   0.68561   0.00000  Uiso   1.00
O1018  O     0.90583   0.55235   0.60635   0.00000  Uiso   1.00
Zn1019 Zn    0.93700   0.50621   0.75540   0.00000  Uiso   1.00
Zn1020 Zn    0.72967   0.49379   0.74461   0.00000  Uiso   1.00
C1021  C     0.01500   0.93150   0.74876   0.00000  Uiso   1.00
C1022  C     0.31126   0.82659   0.65937   0.00000  Uiso   1.00
C1023  C     0.03584   0.85312   0.89310   0.00000  Uiso   1.00
C1024  C     0.29773   0.81271   0.60802   0.00000  Uiso   1.00
C1025  C     0.01073   0.87079   0.97545   0.00000  Uiso   1.00
C1026  C     0.30117   0.75616   0.53522   0.00000  Uiso   1.00
C1027  C     0.32842   0.86708   0.92583   0.00000  Uiso   1.00
C1028  C     0.31829   0.76815   0.58403   0.00000  Uiso   1.00
C1029  C     0.09239   0.84972   0.91131   0.00000  Uiso   1.00
C1030  C     0.25623   0.84013   0.58428   0.00000  Uiso   1.00
C1031  C     0.10372   0.84134   0.96000   0.00000  Uiso   1.00
C1032  C     0.31834   0.73517   0.75122   0.00000  Uiso   1.00
C1033  C     0.22777   0.81708   0.54139   0.00000  Uiso   1.00
C1034  C     0.06447   0.85716   0.99285   0.00000  Uiso   1.00
C1035  C     0.25508   0.77995   0.51379   0.00000  Uiso   1.00
C1036  C     0.15421   0.81985   0.97676   0.00000  Uiso   1.00
C1037  C     0.17230   0.82874   0.52614   0.00000  Uiso   1.00
C1038  C     0.25895   0.92870   0.58118   0.00000  Uiso   1.00
C1039  C     0.14947   0.91431   0.88386   0.00000  Uiso   1.00
C1040  C     0.14020   0.78047   0.61504   0.00000  Uiso   1.00
C1041  C     0.12305   0.72258   0.90602   0.00000  Uiso   1.00
C1042  C     0.13191   0.84281   0.55948   0.00000  Uiso   1.00
C1043  C     0.18380   0.78493   0.94742   0.00000  Uiso   1.00
C1044  C     0.07917   0.85825   0.54238   0.00000  Uiso   1.00
C1045  C     0.23331   0.76461   0.96673   0.00000  Uiso   1.00
C1046  C     0.02278   0.98611   0.74806   0.00000  Uiso   1.00
C1047  C     0.31055   0.68056   0.75183   0.00000  Uiso   1.00
C1048  C     0.02243   0.84164   0.84080   0.00000  Uiso   1.00
H1049  H     0.04918   0.86956   0.56802   0.00000  Uiso   1.00
H1050  H     0.30627   0.93155   0.58121   0.00000  Uiso   1.00
H1051  H     0.24683   0.96506   0.60003   0.00000  Uiso   1.00
H1052  H     0.16429   0.93044   0.92110   0.00000  Uiso   1.00
H1053  H     0.11196   0.93435   0.86969   0.00000  Uiso   1.00
H1054  H     0.18427   0.92318   0.86016   0.00000  Uiso   1.00
H1055  H     0.01277   0.73629   0.64210   0.00000  Uiso   1.00
H1056  H     0.27837   0.90126   0.88252   0.00000  Uiso   1.00
H1057  H     0.12315   0.75431   0.58293   0.00000  Uiso   1.00
H1058  H     0.11374   0.77088   0.64504   0.00000  Uiso   1.00
H1059  H     0.18417   0.77074   0.62584   0.00000  Uiso   1.00
H1060  H     0.25393   0.73610   0.94509   0.00000  Uiso   1.00
H1061  H     0.08540   0.73417   0.92490   0.00000  Uiso   1.00
H1062  H     0.14365   0.69118   0.92516   0.00000  Uiso   1.00
H1063  H     0.10735   0.70625   0.86920   0.00000  Uiso   1.00
H1064  H     0.31374   0.88330   0.50027   0.00000  Uiso   1.00
H1065  H     0.31957   0.72444   0.51582   0.00000  Uiso   1.00
H1066  H     0.06571   0.66992   0.74450   0.00000  Uiso   1.00
H1067  H     0.26761   0.99675   0.75539   0.00000  Uiso   1.00
H1068  H     0.16241   0.78864   0.71761   0.00000  Uiso   1.00
H1069  H     0.17120   0.87742   0.78339   0.00000  Uiso   1.00
H1070  H     0.23888   0.92695   0.54354   0.00000  Uiso   1.00
N1071  N     0.14695   0.81883   0.73740   0.00000  Uiso   1.00
N1072  N     0.18638   0.84784   0.76261   0.00000  Uiso   1.00
O1073  O     0.29719   0.91298   0.75310   0.00000  Uiso   1.00
O1074  O     0.13738   0.85959   0.88279   0.00000  Uiso   1.00
O1075  O     0.01796   0.73348   0.60704   0.00000  Uiso   1.00
O1076  O     0.27469   0.88018   0.91105   0.00000  Uiso   1.00
O1077  O     0.13945   0.83477   0.60840   0.00000  Uiso   1.00
O1078  O     0.16213   0.76600   0.90159   0.00000  Uiso   1.00
O1079  O     0.03614   0.75369   0.74691   0.00000  Uiso   1.00
O1080  O     0.05822   0.90368   0.74502   0.00000  Uiso   1.00
O1081  O     0.27512   0.76298   0.75499   0.00000  Uiso   1.00
O1082  O     0.30328   0.84063   0.82247   0.00000  Uiso   1.00
O1083  O     0.03005   0.82603   0.67753   0.00000  Uiso   1.00
O1084  O     0.06431   0.83134   0.81439   0.00000  Uiso   1.00
O1085  O     0.26902   0.83533   0.68561   0.00000  Uiso   1.00
O1086  O     0.23916   0.88569   0.60635   0.00000  Uiso   1.00
Zn1087 Zn    0.27033   0.83954   0.75540   0.00000  Uiso   1.00
Zn1088 Zn    0.06300   0.82713   0.74461   0.00000  Uiso   1.00
C1089  C     0.34833   0.93150   0.74876   0.00000  Uiso   1.00
C1090  C     0.64459   0.82659   0.65937   0.00000  Uiso   1.00
C1091  C     0.36918   0.85312   0.89310   0.00000  Uiso   1.00
C1092  C     0.63106   0.81271   0.60802   0.00000  Uiso   1.00
C1093  C     0.34407   0.87079   0.97545   0.00000  Uiso   1.00
C1094  C     0.63451   0.75616   0.53522   0.00000  Uiso   1.00
C1095  C     0.66175   0.86708   0.92583   0.00000  Uiso   1.00
C1096  C     0.65163   0.76815   0.58403   0.00000  Uiso   1.00
C1097  C     0.42573   0.84972   0.91131   0.00000  Uiso   1.00
C1098  C     0.58956   0.84013   0.58428   0.00000  Uiso   1.00
C1099  C     0.43706   0.84134   0.96000   0.00000  Uiso   1.00
C1100  C     0.65167   0.73517   0.75122   0.00000  Uiso   1.00
C1101  C     0.56111   0.81708   0.54139   0.00000  Uiso   1.00
C1102  C     0.39780   0.85716   0.99285   0.00000  Uiso   1.00
C1103  C     0.58841   0.77995   0.51379   0.00000  Uiso   1.00
C1104  C     0.48754   0.81985   0.97676   0.00000  Uiso   1.00
C1105  C     0.50563   0.82874   0.52614   0.00000  Uiso   1.00
C1106  C     0.59228   0.92870   0.58118   0.00000  Uiso   1.00
C1107  C     0.48280   0.91431   0.88386   0.00000  Uiso   1.00
C1108  C     0.47354   0.78047   0.61504   0.00000  Uiso   1.00
C1109  C     0.45638   0.72258   0.90602   0.00000  Uiso   1.00
C1110  C     0.46524   0.84281   0.55948   0.00000  Uiso   1.00
C1111  C     0.51713   0.78493   0.94742   0.00000  Uiso   1.00
C1112  C     0.41250   0.85825   0.54238   0.00000  Uiso   1.00
C1113  C     0.56664   0.76461   0.96673   0.00000  Uiso   1.00
C1114  C     0.35611   0.98611   0.74806   0.00000  Uiso   1.00
C1115  C     0.64388   0.68056   0.75183   0.00000  Uiso   1.00
C1116  C     0.35577   0.84164   0.84080   0.00000  Uiso   1.00
H1117  H     0.38251   0.86956   0.56802   0.00000  Uiso   1.00
H1118  H     0.63961   0.93155   0.58121   0.00000  Uiso   1.00
H1119  H     0.58017   0.96506   0.60003   0.00000  Uiso   1.00
H1120  H     0.49763   0.93044   0.92110   0.00000  Uiso   1.00
H1121  H     0.44530   0.93435   0.86969   0.00000  Uiso   1.00
H1122  H     0.51760   0.92318   0.86016   0.00000  Uiso   1.00
H1123  H     0.34610   0.73629   0.64210   0.00000  Uiso   1.00
H1124  H     0.61170   0.90126   0.88252   0.00000  Uiso   1.00
H1125  H     0.45648   0.75431   0.58293   0.00000  Uiso   1.00
H1126  H     0.44707   0.77088   0.64504   0.00000  Uiso   1.00
H1127  H     0.51750   0.77074   0.62584   0.00000  Uiso   1.00
H1128  H     0.58726   0.73610   0.94509   0.00000  Uiso   1.00
H1129  H     0.41874   0.73417   0.92490   0.00000  Uiso   1.00
H1130  H     0.47699   0.69118   0.92516   0.00000  Uiso   1.00
H1131  H     0.44069   0.70625   0.86920   0.00000  Uiso   1.00
H1132  H     0.64707   0.88330   0.50027   0.00000  Uiso   1.00
H1133  H     0.65290   0.72444   0.51582   0.00000  Uiso   1.00
H1134  H     0.39905   0.66992   0.74450   0.00000  Uiso   1.00
H1135  H     0.60095   0.99675   0.75539   0.00000  Uiso   1.00
H1136  H     0.49575   0.78864   0.71761   0.00000  Uiso   1.00
H1137  H     0.50454   0.87742   0.78339   0.00000  Uiso   1.00
H1138  H     0.57221   0.92695   0.54354   0.00000  Uiso   1.00
N1139  N     0.48029   0.81883   0.73740   0.00000  Uiso   1.00
N1140  N     0.51971   0.84784   0.76261   0.00000  Uiso   1.00
O1141  O     0.63052   0.91298   0.75310   0.00000  Uiso   1.00
O1142  O     0.47071   0.85959   0.88279   0.00000  Uiso   1.00
O1143  O     0.35130   0.73348   0.60704   0.00000  Uiso   1.00
O1144  O     0.60803   0.88018   0.91105   0.00000  Uiso   1.00
O1145  O     0.47278   0.83477   0.60840   0.00000  Uiso   1.00
O1146  O     0.49546   0.76600   0.90159   0.00000  Uiso   1.00
O1147  O     0.36948   0.75369   0.74691   0.00000  Uiso   1.00
O1148  O     0.39155   0.90368   0.74502   0.00000  Uiso   1.00
O1149  O     0.60845   0.76298   0.75499   0.00000  Uiso   1.00
O1150  O     0.63662   0.84063   0.82247   0.00000  Uiso   1.00
O1151  O     0.36338   0.82603   0.67753   0.00000  Uiso   1.00
O1152  O     0.39764   0.83134   0.81439   0.00000  Uiso   1.00
O1153  O     0.60236   0.83533   0.68561   0.00000  Uiso   1.00
O1154  O     0.57249   0.88569   0.60635   0.00000  Uiso   1.00
Zn1155 Zn    0.60366   0.83954   0.75540   0.00000  Uiso   1.00
Zn1156 Zn    0.39634   0.82713   0.74461   0.00000  Uiso   1.00
C1157  C     0.68166   0.93150   0.74876   0.00000  Uiso   1.00
C1158  C     0.97792   0.82659   0.65937   0.00000  Uiso   1.00
C1159  C     0.70251   0.85312   0.89310   0.00000  Uiso   1.00
C1160  C     0.96439   0.81271   0.60802   0.00000  Uiso   1.00
C1161  C     0.67740   0.87079   0.97545   0.00000  Uiso   1.00
C1162  C     0.96784   0.75616   0.53522   0.00000  Uiso   1.00
C1163  C     0.99509   0.86708   0.92583   0.00000  Uiso   1.00
C1164  C     0.98496   0.76815   0.58403   0.00000  Uiso   1.00
C1165  C     0.75906   0.84972   0.91131   0.00000  Uiso   1.00
C1166  C     0.92290   0.84013   0.58428   0.00000  Uiso   1.00
C1167  C     0.77039   0.84134   0.96000   0.00000  Uiso   1.00
C1168  C     0.98500   0.73517   0.75122   0.00000  Uiso   1.00
C1169  C     0.89444   0.81708   0.54139   0.00000  Uiso   1.00
C1170  C     0.73113   0.85716   0.99285   0.00000  Uiso   1.00
C1171  C     0.92175   0.77995   0.51379   0.00000  Uiso   1.00
C1172  C     0.82088   0.81985   0.97676   0.00000  Uiso   1.00
C1173  C     0.83896   0.82874   0.52614   0.00000  Uiso   1.00
C1174  C     0.92561   0.92870   0.58118   0.00000  Uiso   1.00
C1175  C     0.81613   0.91431   0.88386   0.00000  Uiso   1.00
C1176  C     0.80687   0.78047   0.61504   0.00000  Uiso   1.00
C1177  C     0.78972   0.72258   0.90602   0.00000  Uiso   1.00
C1178  C     0.79857   0.84281   0.55948   0.00000  Uiso   1.00
C1179  C     0.85047   0.78493   0.94742   0.00000  Uiso   1.00
C1180  C     0.74584   0.85825   0.54238   0.00000  Uiso   1.00
C1181  C     0.89997   0.76461   0.96673   0.00000  Uiso   1.00
C1182  C     0.68944   0.98611   0.74806   0.00000  Uiso   1.00
C1183  C     0.97722   0.68056   0.75183   0.00000  Uiso   1.00
C1184  C     0.68910   0.84164   0.84080   0.00000  Uiso   1.00
H1185  H     0.71584   0.86956   0.56802   0.00000  Uiso   1.00
H1186  H     0.97294   0.93155   0.58121   0.00000  Uiso   1.00
H1187  H     0.91350   0.96506   0.60003   0.00000  Uiso   1.00
H1188  H     0.83096   0.93044   0.92110   0.00000  Uiso   1.00
H1189  H     0.77863   0.93435   0.86969   0.00000  Uiso   1.00
H1190  H     0.85094   0.92318   0.86016   0.00000  Uiso   1.00
H1191  H     0.67943   0.73629   0.64210   0.00000  Uiso   1.00
H1192  H     0.94504   0.90126   0.88252   0.00000  Uiso   1.00
H1193  H     0.78982   0.75431   0.58293   0.00000  Uiso   1.00
H1194  H     0.78041   0.77088   0.64504   0.00000  Uiso   1.00
H1195  H     0.85083   0.77074   0.62584   0.00000  Uiso   1.00
H1196  H     0.92059   0.73610   0.94509   0.00000  Uiso   1.00
H1197  H     0.75207   0.73417   0.92490   0.00000  Uiso   1.00
H1198  H     0.81032   0.69118   0.92516   0.00000  Uiso   1.00
H1199  H     0.77402   0.70625   0.86920   0.00000  Uiso   1.00
H1200  H     0.98040   0.88330   0.50027   0.00000  Uiso   1.00
H1201  H     0.98623   0.72444   0.51582   0.00000  Uiso   1.00
H1202  H     0.73238   0.66992   0.74450   0.00000  Uiso   1.00
H1203  H     0.93428   0.99675   0.75539   0.00000  Uiso   1.00
H1204  H     0.82908   0.78864   0.71761   0.00000  Uiso   1.00
H1205  H     0.83787   0.87742   0.78339   0.00000  Uiso   1.00
H1206  H     0.90554   0.92695   0.54354   0.00000  Uiso   1.00
N1207  N     0.81362   0.81883   0.73740   0.00000  Uiso   1.00
N1208  N     0.85305   0.84784   0.76261   0.00000  Uiso   1.00
O1209  O     0.96386   0.91298   0.75310   0.00000  Uiso   1.00
O1210  O     0.80404   0.85959   0.88279   0.00000  Uiso   1.00
O1211  O     0.68463   0.73348   0.60704   0.00000  Uiso   1.00
O1212  O     0.94136   0.88018   0.91105   0.00000  Uiso   1.00
O1213  O     0.80612   0.83477   0.60840   0.00000  Uiso   1.00
O1214  O     0.82880   0.76600   0.90159   0.00000  Uiso   1.00
O1215  O     0.70281   0.75369   0.74691   0.00000  Uiso   1.00
O1216  O     0.72488   0.90368   0.74502   0.00000  Uiso   1.00
O1217  O     0.94178   0.76298   0.75499   0.00000  Uiso   1.00
O1218  O     0.96995   0.84063   0.82247   0.00000  Uiso   1.00
O1219  O     0.69672   0.82603   0.67753   0.00000  Uiso   1.00
O1220  O     0.73098   0.83134   0.81439   0.00000  Uiso   1.00
O1221  O     0.93569   0.83533   0.68561   0.00000  Uiso   1.00
O1222  O     0.90583   0.88569   0.60635   0.00000  Uiso   1.00
Zn1223 Zn    0.93700   0.83954   0.75540   0.00000  Uiso   1.00
Zn1224 Zn    0.72967   0.82713   0.74461   0.00000  Uiso   1.00
loop_
_geom_bond_atom_site_label_1
_geom_bond_atom_site_label_2
_geom_bond_distance
_geom_bond_site_symmetry_2
_ccdc_geom_bond_type
C1     C26     1.402   .     S
C1     O60     1.293   .     A
C1     O189    1.280   1_455 S
C2     C4      1.456   .     S
C2     O65     1.300   .     A
C2     O131    1.296   .     S
C3     C9      1.402   .     A
C3     C28     1.471   .     S
C3     C143    1.419   1_455 S
C4     C8      1.423   .     A
C4     C10     1.396   .     A
C5     C14     1.399   .     A
C5     C143    1.396   1_455 S
C5     H792    1.081   1_455 S
C6     H45     1.084   .     S
C6     C8      1.396   .     A
C6     C15     1.397   .     A
C7     O56     1.374   .     S
C7     C71     1.419   .     S
C7     C73     1.396   .     S
C8     O123    1.378   .     S
C9     C11     1.390   .     A
C9     O54     1.386   .     S
C10    O66     1.388   .     S
C10    C13     1.401   .     A
C11    C16     1.408   .     A
C11    C14     1.409   .     A
C12    C27     1.402   .     S
C12    O61     1.293   .     A
C12    O127    1.280   .     S
C13    C17     1.404   .     A
C13    C15     1.409   .     A
C14    C636    1.391   .     S
C15    C637    1.393   1_554 S
C16    C23     1.429   .     A
C16    C629    1.406   .     S
C17    C22     1.425   .     A
C17    C628    1.406   1_554 S
C18    H30     1.113   .     S
C18    O66     1.409   .     S
C18    H50     1.113   .     S
C18    H31     1.109   .     S
C19    H32     1.113   .     S
C19    O54     1.412   .     S
C19    H33     1.114   .     S
C19    H34     1.107   .     S
C20    H38     1.104   .     S
C20    H37     1.117   .     S
C20    H39     1.108   .     S
C20    O57     1.418   .     S
C21    O58     1.411   .     S
C21    H43     1.109   .     S
C21    H41     1.112   .     S
C21    H42     1.112   .     S
C22    O57     1.385   .     S
C22    C24     1.392   .     A
C23    O58     1.383   .     S
C23    C25     1.397   .     A
C24    H29     1.081   .     S
C24    C626    1.391   1_554 S
C25    H40     1.084   .     S
C25    C627    1.393   .     S
C26    C367    1.339   1_455 S
C26    H250    1.088   .     S
C27    C502    1.339   1_545 S
C27    H455    1.088   1_545 S
C28    O64     1.304   .     A
C28    O198    1.302   1_455 S
H35    O55     0.989   .     S
H36    O56     0.990   .     S
H44    C685    1.081   1_554 S
H46    C434    1.088   1_545 S
H47    C231    1.088   .     S
H48    N51     1.027   .     S
H49    N52     1.028   .     S
N51    Zn68    2.029   .     S
N51    N52     1.286   .     D
N52    Zn67    2.029   .     S
O53    Zn67    1.951   .     S
O53    C69     1.280   .     S
O55    C144    1.378   1_455 S
O59    Zn68    1.951   .     S
O59    C148    1.280   1_455 S
O60    Zn68    1.976   .     S
O61    Zn67    1.976   .     S
O62    Zn67    1.963   .     S
O62    C96     1.302   .     S
O63    Zn68    1.963   .     S
O63    C138    1.296   1_455 S
O64    Zn68    1.931   .     S
O65    Zn67    1.931   .     S
C69    C94     1.402   .     S
C69    O128    1.293   .     A
C70    C72     1.456   .     S
C70    O133    1.300   .     A
C70    O199    1.296   .     S
C71    C77     1.402   .     A
C71    C96     1.471   .     S
C72    C76     1.423   .     A
C72    C78     1.396   .     A
C73    C82     1.399   .     A
C73    H656    1.081   .     S
C74    H113    1.084   .     S
C74    C76     1.396   .     A
C74    C83     1.397   .     A
C75    O124    1.374   .     S
C75    C139    1.419   .     S
C75    C141    1.396   .     S
C76    O191    1.378   .     S
C77    C79     1.390   .     A
C77    O122    1.386   .     S
C78    O134    1.388   .     S
C78    C81     1.401   .     A
C79    C84     1.408   .     A
C79    C82     1.409   .     A
C80    C95     1.402   .     S
C80    O129    1.293   .     A
C80    O195    1.280   .     S
C81    C85     1.404   .     A
C81    C83     1.409   .     A
C82    C704    1.391   .     S
C83    C705    1.393   1_554 S
C84    C91     1.429   .     A
C84    C697    1.406   .     S
C85    C90     1.425   .     A
C85    C696    1.406   1_554 S
C86    H98     1.113   .     S
C86    O134    1.409   .     S
C86    H118    1.113   .     S
C86    H99     1.109   .     S
C87    H100    1.113   .     S
C87    O122    1.412   .     S
C87    H101    1.114   .     S
C87    H102    1.107   .     S
C88    H106    1.104   .     S
C88    H105    1.117   .     S
C88    H107    1.108   .     S
C88    O125    1.418   .     S
C89    O126    1.411   .     S
C89    H111    1.109   .     S
C89    H109    1.112   .     S
C89    H110    1.112   .     S
C90    O125    1.385   .     S
C90    C92     1.392   .     A
C91    O126    1.383   .     S
C91    C93     1.397   .     A
C92    H97     1.081   .     S
C92    C694    1.391   1_554 S
C93    H108    1.084   .     S
C93    C695    1.393   .     S
C94    C231    1.339   .     S
C94    H318    1.088   .     S
C95    C570    1.339   1_545 S
C95    H523    1.088   1_545 S
C96    O132    1.304   .     A
H103   O123    0.989   .     S
H104   O124    0.990   .     S
H112   C753    1.081   1_554 S
H114   C502    1.088   1_545 S
H115   C299    1.088   .     S
H116   N119    1.027   .     S
H117   N120    1.028   .     S
N119   Zn136   2.029   .     S
N119   N120    1.286   .     D
N120   Zn135   2.029   .     S
O121   Zn135   1.951   .     S
O121   C137    1.280   .     S
O127   Zn136   1.951   .     S
O128   Zn136   1.976   .     S
O129   Zn135   1.976   .     S
O130   Zn135   1.963   .     S
O130   C164    1.302   .     S
O131   Zn136   1.963   .     S
O132   Zn136   1.931   .     S
O133   Zn135   1.931   .     S
C137   C162    1.402   .     S
C137   O196    1.293   .     A
C138   C140    1.456   .     S
C138   O201    1.300   .     A
C138   O63     1.296   1_655 S
C139   C145    1.402   .     A
C139   C164    1.471   .     S
C140   C144    1.423   .     A
C140   C146    1.396   .     A
C141   C150    1.399   .     A
C141   H724    1.081   .     S
C142   H181    1.084   .     S
C142   C144    1.396   .     A
C142   C151    1.397   .     A
C143   O192    1.374   .     S
C143   C3      1.419   1_655 S
C143   C5      1.396   1_655 S
C144   O55     1.378   1_655 S
C145   C147    1.390   .     A
C145   O190    1.386   .     S
C146   O202    1.388   .     S
C146   C149    1.401   .     A
C147   C152    1.408   .     A
C147   C150    1.409   .     A
C148   C163    1.402   .     S
C148   O197    1.293   .     A
C148   O59     1.280   1_655 S
C149   C153    1.404   .     A
C149   C151    1.409   .     A
C150   C772    1.391   .     S
C151   C773    1.393   1_554 S
C152   C159    1.429   .     A
C152   C765    1.406   .     S
C153   C158    1.425   .     A
C153   C764    1.406   1_554 S
C154   H166    1.113   .     S
C154   O202    1.409   .     S
C154   H186    1.113   .     S
C154   H167    1.109   .     S
C155   H168    1.113   .     S
C155   O190    1.412   .     S
C155   H169    1.114   .     S
C155   H170    1.107   .     S
C156   H174    1.104   .     S
C156   H173    1.117   .     S
C156   H175    1.108   .     S
C156   O193    1.418   .     S
C157   O194    1.411   .     S
C157   H179    1.109   .     S
C157   H177    1.112   .     S
C157   H178    1.112   .     S
C158   O193    1.385   .     S
C158   C160    1.392   .     A
C159   O194    1.383   .     S
C159   C161    1.397   .     A
C160   H165    1.081   .     S
C160   C762    1.391   1_554 S
C161   H176    1.084   .     S
C161   C763    1.393   .     S
C162   C299    1.339   .     S
C162   H386    1.088   .     S
C163   C434    1.339   1_645 S
C163   H591    1.088   1_545 S
C164   O200    1.304   .     A
H171   O191    0.989   .     S
H172   O192    0.990   .     S
H180   C617    1.081   1_654 S
H182   C570    1.088   1_545 S
H183   C367    1.088   .     S
H184   N187    1.027   .     S
H185   N188    1.028   .     S
N187   Zn204   2.029   .     S
N187   N188    1.286   .     D
N188   Zn203   2.029   .     S
O189   Zn203   1.951   .     S
O189   C1      1.280   1_655 S
O195   Zn204   1.951   .     S
O196   Zn204   1.976   .     S
O197   Zn203   1.976   .     S
O198   Zn203   1.963   .     S
O198   C28     1.302   1_655 S
O199   Zn204   1.963   .     S
O200   Zn204   1.931   .     S
O201   Zn203   1.931   .     S
C205   C230    1.402   .     S
C205   O264    1.293   .     A
C205   O393    1.280   1_455 S
C206   C208    1.456   .     S
C206   O269    1.300   .     A
C206   O335    1.296   .     S
C207   C213    1.402   .     A
C207   C232    1.471   .     S
C207   C347    1.419   1_455 S
C208   C212    1.423   .     A
C208   C214    1.396   .     A
C209   C218    1.399   .     A
C209   C347    1.396   1_455 S
C209   H996    1.081   1_455 S
C210   H249    1.084   .     S
C210   C212    1.396   .     A
C210   C219    1.397   .     A
C211   O260    1.374   .     S
C211   C275    1.419   .     S
C211   C277    1.396   .     S
C212   O327    1.378   .     S
C213   C215    1.390   .     A
C213   O258    1.386   .     S
C214   O270    1.388   .     S
C214   C217    1.401   .     A
C215   C220    1.408   .     A
C215   C218    1.409   .     A
C216   C231    1.402   .     S
C216   O265    1.293   .     A
C216   O331    1.280   .     S
C217   C221    1.404   .     A
C217   C219    1.409   .     A
C218   C840    1.391   .     S
C219   C841    1.393   1_554 S
C220   C227    1.429   .     A
C220   C833    1.406   .     S
C221   C226    1.425   .     A
C221   C832    1.406   1_554 S
C222   H234    1.113   .     S
C222   O270    1.409   .     S
C222   H254    1.113   .     S
C222   H235    1.109   .     S
C223   H236    1.113   .     S
C223   O258    1.412   .     S
C223   H237    1.114   .     S
C223   H238    1.107   .     S
C224   H242    1.104   .     S
C224   H241    1.117   .     S
C224   H243    1.108   .     S
C224   O261    1.418   .     S
C225   O262    1.411   .     S
C225   H247    1.109   .     S
C225   H245    1.112   .     S
C225   H246    1.112   .     S
C226   O261    1.385   .     S
C226   C228    1.392   .     A
C227   O262    1.383   .     S
C227   C229    1.397   .     A
C228   H233    1.081   .     S
C228   C830    1.391   1_554 S
C229   H244    1.084   .     S
C229   C831    1.393   .     S
C230   C571    1.339   1_455 S
C230   H454    1.088   .     S
C232   O268    1.304   .     A
C232   O402    1.302   1_455 S
H239   O259    0.989   .     S
H240   O260    0.990   .     S
H248   C889    1.081   1_554 S
H251   C435    1.088   .     S
H252   N255    1.027   .     S
H253   N256    1.028   .     S
N255   Zn272   2.029   .     S
N255   N256    1.286   .     D
N256   Zn271   2.029   .     S
O257   Zn271   1.951   .     S
O257   C273    1.280   .     S
O259   C348    1.378   1_455 S
O263   Zn272   1.951   .     S
O263   C352    1.280   1_455 S
O264   Zn272   1.976   .     S
O265   Zn271   1.976   .     S
O266   Zn271   1.963   .     S
O266   C300    1.302   .     S
O267   Zn272   1.963   .     S
O267   C342    1.296   1_455 S
O268   Zn272   1.931   .     S
O269   Zn271   1.931   .     S
C273   C298    1.402   .     S
C273   O332    1.293   .     A
C274   C276    1.456   .     S
C274   O337    1.300   .     A
C274   O403    1.296   .     S
C275   C281    1.402   .     A
C275   C300    1.471   .     S
C276   C280    1.423   .     A
C276   C282    1.396   .     A
C277   C286    1.399   .     A
C277   H860    1.081   .     S
C278   H317    1.084   .     S
C278   C280    1.396   .     A
C278   C287    1.397   .     A
C279   O328    1.374   .     S
C279   C343    1.419   .     S
C279   C345    1.396   .     S
C280   O395    1.378   .     S
C281   C283    1.390   .     A
C281   O326    1.386   .     S
C282   O338    1.388   .     S
C282   C285    1.401   .     A
C283   C288    1.408   .     A
C283   C286    1.409   .     A
C284   C299    1.402   .     S
C284   O333    1.293   .     A
C284   O399    1.280   .     S
C285   C289    1.404   .     A
C285   C287    1.409   .     A
C286   C908    1.391   .     S
C287   C909    1.393   1_554 S
C288   C295    1.429   .     A
C288   C901    1.406   .     S
C289   C294    1.425   .     A
C289   C900    1.406   1_554 S
C290   H302    1.113   .     S
C290   O338    1.409   .     S
C290   H322    1.113   .     S
C290   H303    1.109   .     S
C291   H304    1.113   .     S
C291   O326    1.412   .     S
C291   H305    1.114   .     S
C291   H306    1.107   .     S
C292   H310    1.104   .     S
C292   H309    1.117   .     S
C292   H311    1.108   .     S
C292   O329    1.418   .     S
C293   O330    1.411   .     S
C293   H315    1.109   .     S
C293   H313    1.112   .     S
C293   H314    1.112   .     S
C294   O329    1.385   .     S
C294   C296    1.392   .     A
C295   O330    1.383   .     S
C295   C297    1.397   .     A
C296   H301    1.081   .     S
C296   C898    1.391   1_554 S
C297   H312    1.084   .     S
C297   C899    1.393   .     S
C298   C435    1.339   .     S
C298   H522    1.088   .     S
C300   O336    1.304   .     A
H307   O327    0.989   .     S
H308   O328    0.990   .     S
H316   C957    1.081   1_554 S
H319   C503    1.088   .     S
H320   N323    1.027   .     S
H321   N324    1.028   .     S
N323   Zn340   2.029   .     S
N323   N324    1.286   .     D
N324   Zn339   2.029   .     S
O325   Zn339   1.951   .     S
O325   C341    1.280   .     S
O331   Zn340   1.951   .     S
O332   Zn340   1.976   .     S
O333   Zn339   1.976   .     S
O334   Zn339   1.963   .     S
O334   C368    1.302   .     S
O335   Zn340   1.963   .     S
O336   Zn340   1.931   .     S
O337   Zn339   1.931   .     S
C341   C366    1.402   .     S
C341   O400    1.293   .     A
C342   C344    1.456   .     S
C342   O405    1.300   .     A
C342   O267    1.296   1_655 S
C343   C349    1.402   .     A
C343   C368    1.471   .     S
C344   C348    1.423   .     A
C344   C350    1.396   .     A
C345   C354    1.399   .     A
C345   H928    1.081   .     S
C346   H385    1.084   .     S
C346   C348    1.396   .     A
C346   C355    1.397   .     A
C347   O396    1.374   .     S
C347   C207    1.419   1_655 S
C347   C209    1.396   1_655 S
C348   O259    1.378   1_655 S
C349   C351    1.390   .     A
C349   O394    1.386   .     S
C350   O406    1.388   .     S
C350   C353    1.401   .     A
C351   C356    1.408   .     A
C351   C354    1.409   .     A
C352   C367    1.402   .     S
C352   O401    1.293   .     A
C352   O263    1.280   1_655 S
C353   C357    1.404   .     A
C353   C355    1.409   .     A
C354   C976    1.391   .     S
C355   C977    1.393   1_554 S
C356   C363    1.429   .     A
C356   C969    1.406   .     S
C357   C362    1.425   .     A
C357   C968    1.406   1_554 S
C358   H370    1.113   .     S
C358   O406    1.409   .     S
C358   H390    1.113   .     S
C358   H371    1.109   .     S
C359   H372    1.113   .     S
C359   O394    1.412   .     S
C359   H373    1.114   .     S
C359   H374    1.107   .     S
C360   H378    1.104   .     S
C360   H377    1.117   .     S
C360   H379    1.108   .     S
C360   O397    1.418   .     S
C361   O398    1.411   .     S
C361   H383    1.109   .     S
C361   H381    1.112   .     S
C361   H382    1.112   .     S
C362   O397    1.385   .     S
C362   C364    1.392   .     A
C363   O398    1.383   .     S
C363   C365    1.397   .     A
C364   H369    1.081   .     S
C364   C966    1.391   1_554 S
C365   H380    1.084   .     S
C365   C967    1.393   .     S
C366   C503    1.339   .     S
C366   H590    1.088   .     S
C367   C26     1.339   1_655 S
C368   O404    1.304   .     A
H375   O395    0.989   .     S
H376   O396    0.990   .     S
H384   C821    1.081   1_654 S
H387   C571    1.088   .     S
H388   N391    1.027   .     S
H389   N392    1.028   .     S
N391   Zn408   2.029   .     S
N391   N392    1.286   .     D
N392   Zn407   2.029   .     S
O393   Zn407   1.951   .     S
O393   C205    1.280   1_655 S
O399   Zn408   1.951   .     S
O400   Zn408   1.976   .     S
O401   Zn407   1.976   .     S
O402   Zn407   1.963   .     S
O402   C232    1.302   1_655 S
O403   Zn408   1.963   .     S
O404   Zn408   1.931   .     S
O405   Zn407   1.931   .     S
C409   C434    1.402   .     S
C409   O468    1.293   .     A
C409   O597    1.280   1_455 S
C410   C412    1.456   .     S
C410   O473    1.300   .     A
C410   O539    1.296   .     S
C411   C417    1.402   .     A
C411   C436    1.471   .     S
C411   C551    1.419   1_455 S
C412   C416    1.423   .     A
C412   C418    1.396   .     A
C413   C422    1.399   .     A
C413   C551    1.396   1_455 S
C413   H1200   1.081   1_455 S
C414   H453    1.084   .     S
C414   C416    1.396   .     A
C414   C423    1.397   .     A
C415   O464    1.374   .     S
C415   C479    1.419   .     S
C415   C481    1.396   .     S
C416   O531    1.378   .     S
C417   C419    1.390   .     A
C417   O462    1.386   .     S
C418   O474    1.388   .     S
C418   C421    1.401   .     A
C419   C424    1.408   .     A
C419   C422    1.409   .     A
C420   C435    1.402   .     S
C420   O469    1.293   .     A
C420   O535    1.280   .     S
C421   C425    1.404   .     A
C421   C423    1.409   .     A
C422   C1044   1.391   .     S
C423   C1045   1.393   1_554 S
C424   C431    1.429   .     A
C424   C1037   1.406   .     S
C425   C430    1.425   .     A
C425   C1036   1.406   1_554 S
C426   H438    1.113   .     S
C426   O474    1.409   .     S
C426   H458    1.113   .     S
C426   H439    1.109   .     S
C427   H440    1.113   .     S
C427   O462    1.412   .     S
C427   H441    1.114   .     S
C427   H442    1.107   .     S
C428   H446    1.104   .     S
C428   H445    1.117   .     S
C428   H447    1.108   .     S
C428   O465    1.418   .     S
C429   O466    1.411   .     S
C429   H451    1.109   .     S
C429   H449    1.112   .     S
C429   H450    1.112   .     S
C430   O465    1.385   .     S
C430   C432    1.392   .     A
C431   O466    1.383   .     S
C431   C433    1.397   .     A
C432   H437    1.081   .     S
C432   C1034   1.391   1_554 S
C433   H448    1.084   .     S
C433   C1035   1.393   .     S
C434   C163    1.339   1_465 S
C434   H46     1.088   1_565 S
C436   O472    1.304   .     A
C436   O606    1.302   1_455 S
H443   O463    0.989   .     S
H444   O464    0.990   .     S
H452   C1093   1.081   1_554 S
H455   C27     1.088   1_565 S
H456   N459    1.027   .     S
H457   N460    1.028   .     S
N459   Zn476   2.029   .     S
N459   N460    1.286   .     D
N460   Zn475   2.029   .     S
O461   Zn475   1.951   .     S
O461   C477    1.280   .     S
O463   C552    1.378   1_455 S
O467   Zn476   1.951   .     S
O467   C556    1.280   1_455 S
O468   Zn476   1.976   .     S
O469   Zn475   1.976   .     S
O470   Zn475   1.963   .     S
O470   C504    1.302   .     S
O471   Zn476   1.963   .     S
O471   C546    1.296   1_455 S
O472   Zn476   1.931   .     S
O473   Zn475   1.931   .     S
C477   C502    1.402   .     S
C477   O536    1.293   .     A
C478   C480    1.456   .     S
C478   O541    1.300   .     A
C478   O607    1.296   .     S
C479   C485    1.402   .     A
C479   C504    1.471   .     S
C480   C484    1.423   .     A
C480   C486    1.396   .     A
C481   C490    1.399   .     A
C481   H1064   1.081   .     S
C482   H521    1.084   .     S
C482   C484    1.396   .     A
C482   C491    1.397   .     A
C483   O532    1.374   .     S
C483   C547    1.419   .     S
C483   C549    1.396   .     S
C484   O599    1.378   .     S
C485   C487    1.390   .     A
C485   O530    1.386   .     S
C486   O542    1.388   .     S
C486   C489    1.401   .     A
C487   C492    1.408   .     A
C487   C490    1.409   .     A
C488   C503    1.402   .     S
C488   O537    1.293   .     A
C488   O603    1.280   .     S
C489   C493    1.404   .     A
C489   C491    1.409   .     A
C490   C1112   1.391   .     S
C491   C1113   1.393   1_554 S
C492   C499    1.429   .     A
C492   C1105   1.406   .     S
C493   C498    1.425   .     A
C493   C1104   1.406   1_554 S
C494   H506    1.113   .     S
C494   O542    1.409   .     S
C494   H526    1.113   .     S
C494   H507    1.109   .     S
C495   H508    1.113   .     S
C495   O530    1.412   .     S
C495   H509    1.114   .     S
C495   H510    1.107   .     S
C496   H514    1.104   .     S
C496   H513    1.117   .     S
C496   H515    1.108   .     S
C496   O533    1.418   .     S
C497   O534    1.411   .     S
C497   H519    1.109   .     S
C497   H517    1.112   .     S
C497   H518    1.112   .     S
C498   O533    1.385   .     S
C498   C500    1.392   .     A
C499   O534    1.383   .     S
C499   C501    1.397   .     A
C500   H505    1.081   .     S
C500   C1102   1.391   1_554 S
C501   H516    1.084   .     S
C501   C1103   1.393   .     S
C502   C27     1.339   1_565 S
C502   H114    1.088   1_565 S
C504   O540    1.304   .     A
H511   O531    0.989   .     S
H512   O532    0.990   .     S
H520   C1161   1.081   1_554 S
H523   C95     1.088   1_565 S
H524   N527    1.027   .     S
H525   N528    1.028   .     S
N527   Zn544   2.029   .     S
N527   N528    1.286   .     D
N528   Zn543   2.029   .     S
O529   Zn543   1.951   .     S
O529   C545    1.280   .     S
O535   Zn544   1.951   .     S
O536   Zn544   1.976   .     S
O537   Zn543   1.976   .     S
O538   Zn543   1.963   .     S
O538   C572    1.302   .     S
O539   Zn544   1.963   .     S
O540   Zn544   1.931   .     S
O541   Zn543   1.931   .     S
C545   C570    1.402   .     S
C545   O604    1.293   .     A
C546   C548    1.456   .     S
C546   O609    1.300   .     A
C546   O471    1.296   1_655 S
C547   C553    1.402   .     A
C547   C572    1.471   .     S
C548   C552    1.423   .     A
C548   C554    1.396   .     A
C549   C558    1.399   .     A
C549   H1132   1.081   .     S
C550   H589    1.084   .     S
C550   C552    1.396   .     A
C550   C559    1.397   .     A
C551   O600    1.374   .     S
C551   C411    1.419   1_655 S
C551   C413    1.396   1_655 S
C552   O463    1.378   1_655 S
C553   C555    1.390   .     A
C553   O598    1.386   .     S
C554   O610    1.388   .     S
C554   C557    1.401   .     A
C555   C560    1.408   .     A
C555   C558    1.409   .     A
C556   C571    1.402   .     S
C556   O605    1.293   .     A
C556   O467    1.280   1_655 S
C557   C561    1.404   .     A
C557   C559    1.409   .     A
C558   C1180   1.391   .     S
C559   C1181   1.393   1_554 S
C560   C567    1.429   .     A
C560   C1173   1.406   .     S
C561   C566    1.425   .     A
C561   C1172   1.406   1_554 S
C562   H574    1.113   .     S
C562   O610    1.409   .     S
C562   H594    1.113   .     S
C562   H575    1.109   .     S
C563   H576    1.113   .     S
C563   O598    1.412   .     S
C563   H577    1.114   .     S
C563   H578    1.107   .     S
C564   H582    1.104   .     S
C564   H581    1.117   .     S
C564   H583    1.108   .     S
C564   O601    1.418   .     S
C565   O602    1.411   .     S
C565   H587    1.109   .     S
C565   H585    1.112   .     S
C565   H586    1.112   .     S
C566   O601    1.385   .     S
C566   C568    1.392   .     A
C567   O602    1.383   .     S
C567   C569    1.397   .     A
C568   H573    1.081   .     S
C568   C1170   1.391   1_554 S
C569   H584    1.084   .     S
C569   C1171   1.393   .     S
C570   C95     1.339   1_565 S
C570   H182    1.088   1_565 S
C571   C230    1.339   1_655 S
C572   O608    1.304   .     A
H579   O599    0.989   .     S
H580   O600    0.990   .     S
H588   C1025   1.081   1_654 S
H591   C163    1.088   1_565 S
H592   N595    1.027   .     S
H593   N596    1.028   .     S
N595   Zn612   2.029   .     S
N595   N596    1.286   .     D
N596   Zn611   2.029   .     S
O597   Zn611   1.951   .     S
O597   C409    1.280   1_655 S
O603   Zn612   1.951   .     S
O604   Zn612   1.976   .     S
O605   Zn611   1.976   .     S
O606   Zn611   1.963   .     S
O606   C436    1.302   1_655 S
O607   Zn612   1.963   .     S
O608   Zn612   1.931   .     S
O609   Zn611   1.931   .     S
C613   C638    1.402   .     S
C613   O672    1.293   .     A
C613   O801    1.280   1_455 S
C614   C616    1.456   .     S
C614   O677    1.300   .     A
C614   O743    1.296   .     S
C615   C621    1.402   .     A
C615   C640    1.471   .     S
C615   C755    1.419   1_455 S
C616   C620    1.423   .     A
C616   C622    1.396   .     A
C617   C626    1.399   .     A
C617   C755    1.396   1_455 S
C617   H180    1.081   1_456 S
C618   H657    1.084   .     S
C618   C620    1.396   .     A
C618   C627    1.397   .     A
C619   O668    1.374   .     S
C619   C683    1.419   .     S
C619   C685    1.396   .     S
C620   O735    1.378   .     S
C621   C623    1.390   .     A
C621   O666    1.386   .     S
C622   O678    1.388   .     S
C622   C625    1.401   .     A
C623   C628    1.408   .     A
C623   C626    1.409   .     A
C624   C639    1.402   .     S
C624   O673    1.293   .     A
C624   O739    1.280   .     S
C625   C629    1.404   .     A
C625   C627    1.409   .     A
C626   C24     1.391   1_556 S
C628   C635    1.429   .     A
C628   C17     1.406   1_556 S
C629   C634    1.425   .     A
C630   H642    1.113   .     S
C630   O678    1.409   .     S
C630   H662    1.113   .     S
C630   H643    1.109   .     S
C631   H644    1.113   .     S
C631   O666    1.412   .     S
C631   H645    1.114   .     S
C631   H646    1.107   .     S
C632   H650    1.104   .     S
C632   H649    1.117   .     S
C632   H651    1.108   .     S
C632   O669    1.418   .     S
C633   O670    1.411   .     S
C633   H655    1.109   .     S
C633   H653    1.112   .     S
C633   H654    1.112   .     S
C634   O669    1.385   .     S
C634   C636    1.392   .     A
C635   O670    1.383   .     S
C635   C637    1.397   .     A
C636   H641    1.081   .     S
C637   H652    1.084   .     S
C637   C15     1.393   1_556 S
C638   C979    1.339   1_455 S
C638   H862    1.088   .     S
C639   C1114   1.339   1_545 S
C639   H1067   1.088   1_545 S
C640   O676    1.304   .     A
C640   O810    1.302   1_455 S
H647   O667    0.989   .     S
H648   O668    0.990   .     S
H658   C1046   1.088   1_545 S
H659   C843    1.088   .     S
H660   N663    1.027   .     S
H661   N664    1.028   .     S
N663   Zn680   2.029   .     S
N663   N664    1.286   .     D
N664   Zn679   2.029   .     S
O665   Zn679   1.951   .     S
O665   C681    1.280   .     S
O667   C756    1.378   1_455 S
O671   Zn680   1.951   .     S
O671   C760    1.280   1_455 S
O672   Zn680   1.976   .     S
O673   Zn679   1.976   .     S
O674   Zn679   1.963   .     S
O674   C708    1.302   .     S
O675   Zn680   1.963   .     S
O675   C750    1.296   1_455 S
O676   Zn680   1.931   .     S
O677   Zn679   1.931   .     S
C681   C706    1.402   .     S
C681   O740    1.293   .     A
C682   C684    1.456   .     S
C682   O745    1.300   .     A
C682   O811    1.296   .     S
C683   C689    1.402   .     A
C683   C708    1.471   .     S
C684   C688    1.423   .     A
C684   C690    1.396   .     A
C685   C694    1.399   .     A
C685   H44     1.081   1_556 S
C686   H725    1.084   .     S
C686   C688    1.396   .     A
C686   C695    1.397   .     A
C687   O736    1.374   .     S
C687   C751    1.419   .     S
C687   C753    1.396   .     S
C688   O803    1.378   .     S
C689   C691    1.390   .     A
C689   O734    1.386   .     S
C690   O746    1.388   .     S
C690   C693    1.401   .     A
C691   C696    1.408   .     A
C691   C694    1.409   .     A
C692   C707    1.402   .     S
C692   O741    1.293   .     A
C692   O807    1.280   .     S
C693   C697    1.404   .     A
C693   C695    1.409   .     A
C694   C92     1.391   1_556 S
C696   C703    1.429   .     A
C696   C85     1.406   1_556 S
C697   C702    1.425   .     A
C698   H710    1.113   .     S
C698   O746    1.409   .     S
C698   H730    1.113   .     S
C698   H711    1.109   .     S
C699   H712    1.113   .     S
C699   O734    1.412   .     S
C699   H713    1.114   .     S
C699   H714    1.107   .     S
C700   H718    1.104   .     S
C700   H717    1.117   .     S
C700   H719    1.108   .     S
C700   O737    1.418   .     S
C701   O738    1.411   .     S
C701   H723    1.109   .     S
C701   H721    1.112   .     S
C701   H722    1.112   .     S
C702   O737    1.385   .     S
C702   C704    1.392   .     A
C703   O738    1.383   .     S
C703   C705    1.397   .     A
C704   H709    1.081   .     S
C705   H720    1.084   .     S
C705   C83     1.393   1_556 S
C706   C843    1.339   .     S
C706   H930    1.088   .     S
C707   C1182   1.339   1_545 S
C707   H1135   1.088   1_545 S
C708   O744    1.304   .     A
H715   O735    0.989   .     S
H716   O736    0.990   .     S
H726   C1114   1.088   1_545 S
H727   C911    1.088   .     S
H728   N731    1.027   .     S
H729   N732    1.028   .     S
N731   Zn748   2.029   .     S
N731   N732    1.286   .     D
N732   Zn747   2.029   .     S
O733   Zn747   1.951   .     S
O733   C749    1.280   .     S
O739   Zn748   1.951   .     S
O740   Zn748   1.976   .     S
O741   Zn747   1.976   .     S
O742   Zn747   1.963   .     S
O742   C776    1.302   .     S
O743   Zn748   1.963   .     S
O744   Zn748   1.931   .     S
O745   Zn747   1.931   .     S
C749   C774    1.402   .     S
C749   O808    1.293   .     A
C750   C752    1.456   .     S
C750   O813    1.300   .     A
C750   O675    1.296   1_655 S
C751   C757    1.402   .     A
C751   C776    1.471   .     S
C752   C756    1.423   .     A
C752   C758    1.396   .     A
C753   C762    1.399   .     A
C753   H112    1.081   1_556 S
C754   H793    1.084   .     S
C754   C756    1.396   .     A
C754   C763    1.397   .     A
C755   O804    1.374   .     S
C755   C615    1.419   1_655 S
C755   C617    1.396   1_655 S
C756   O667    1.378   1_655 S
C757   C759    1.390   .     A
C757   O802    1.386   .     S
C758   O814    1.388   .     S
C758   C761    1.401   .     A
C759   C764    1.408   .     A
C759   C762    1.409   .     A
C760   C775    1.402   .     S
C760   O809    1.293   .     A
C760   O671    1.280   1_655 S
C761   C765    1.404   .     A
C761   C763    1.409   .     A
C762   C160    1.391   1_556 S
C764   C771    1.429   .     A
C764   C153    1.406   1_556 S
C765   C770    1.425   .     A
C766   H778    1.113   .     S
C766   O814    1.409   .     S
C766   H798    1.113   .     S
C766   H779    1.109   .     S
C767   H780    1.113   .     S
C767   O802    1.412   .     S
C767   H781    1.114   .     S
C767   H782    1.107   .     S
C768   H786    1.104   .     S
C768   H785    1.117   .     S
C768   H787    1.108   .     S
C768   O805    1.418   .     S
C769   O806    1.411   .     S
C769   H791    1.109   .     S
C769   H789    1.112   .     S
C769   H790    1.112   .     S
C770   O805    1.385   .     S
C770   C772    1.392   .     A
C771   O806    1.383   .     S
C771   C773    1.397   .     A
C772   H777    1.081   .     S
C773   H788    1.084   .     S
C773   C151    1.393   1_556 S
C774   C911    1.339   .     S
C774   H998    1.088   .     S
C775   C1046   1.339   1_645 S
C775   H1203   1.088   1_545 S
C776   O812    1.304   .     A
H783   O803    0.989   .     S
H784   O804    0.990   .     S
H792   C5      1.081   1_655 S
H794   C1182   1.088   1_545 S
H795   C979    1.088   .     S
H796   N799    1.027   .     S
H797   N800    1.028   .     S
N799   Zn816   2.029   .     S
N799   N800    1.286   .     D
N800   Zn815   2.029   .     S
O801   Zn815   1.951   .     S
O801   C613    1.280   1_655 S
O807   Zn816   1.951   .     S
O808   Zn816   1.976   .     S
O809   Zn815   1.976   .     S
O810   Zn815   1.963   .     S
O810   C640    1.302   1_655 S
O811   Zn816   1.963   .     S
O812   Zn816   1.931   .     S
O813   Zn815   1.931   .     S
C817   C842    1.402   .     S
C817   O876    1.293   .     A
C817   O1005   1.280   1_455 S
C818   C820    1.456   .     S
C818   O881    1.300   .     A
C818   O947    1.296   .     S
C819   C825    1.402   .     A
C819   C844    1.471   .     S
C819   C959    1.419   1_455 S
C820   C824    1.423   .     A
C820   C826    1.396   .     A
C821   C830    1.399   .     A
C821   C959    1.396   1_455 S
C821   H384    1.081   1_456 S
C822   H861    1.084   .     S
C822   C824    1.396   .     A
C822   C831    1.397   .     A
C823   O872    1.374   .     S
C823   C887    1.419   .     S
C823   C889    1.396   .     S
C824   O939    1.378   .     S
C825   C827    1.390   .     A
C825   O870    1.386   .     S
C826   O882    1.388   .     S
C826   C829    1.401   .     A
C827   C832    1.408   .     A
C827   C830    1.409   .     A
C828   C843    1.402   .     S
C828   O877    1.293   .     A
C828   O943    1.280   .     S
C829   C833    1.404   .     A
C829   C831    1.409   .     A
C830   C228    1.391   1_556 S
C832   C839    1.429   .     A
C832   C221    1.406   1_556 S
C833   C838    1.425   .     A
C834   H846    1.113   .     S
C834   O882    1.409   .     S
C834   H866    1.113   .     S
C834   H847    1.109   .     S
C835   H848    1.113   .     S
C835   O870    1.412   .     S
C835   H849    1.114   .     S
C835   H850    1.107   .     S
C836   H854    1.104   .     S
C836   H853    1.117   .     S
C836   H855    1.108   .     S
C836   O873    1.418   .     S
C837   O874    1.411   .     S
C837   H859    1.109   .     S
C837   H857    1.112   .     S
C837   H858    1.112   .     S
C838   O873    1.385   .     S
C838   C840    1.392   .     A
C839   O874    1.383   .     S
C839   C841    1.397   .     A
C840   H845    1.081   .     S
C841   H856    1.084   .     S
C841   C219    1.393   1_556 S
C842   C1183   1.339   1_455 S
C842   H1066   1.088   .     S
C844   O880    1.304   .     A
C844   O1014   1.302   1_455 S
H851   O871    0.989   .     S
H852   O872    0.990   .     S
H863   C1047   1.088   .     S
H864   N867    1.027   .     S
H865   N868    1.028   .     S
N867   Zn884   2.029   .     S
N867   N868    1.286   .     D
N868   Zn883   2.029   .     S
O869   Zn883   1.951   .     S
O869   C885    1.280   .     S
O871   C960    1.378   1_455 S
O875   Zn884   1.951   .     S
O875   C964    1.280   1_455 S
O876   Zn884   1.976   .     S
O877   Zn883   1.976   .     S
O878   Zn883   1.963   .     S
O878   C912    1.302   .     S
O879   Zn884   1.963   .     S
O879   C954    1.296   1_455 S
O880   Zn884   1.931   .     S
O881   Zn883   1.931   .     S
C885   C910    1.402   .     S
C885   O944    1.293   .     A
C886   C888    1.456   .     S
C886   O949    1.300   .     A
C886   O1015   1.296   .     S
C887   C893    1.402   .     A
C887   C912    1.471   .     S
C888   C892    1.423   .     A
C888   C894    1.396   .     A
C889   C898    1.399   .     A
C889   H248    1.081   1_556 S
C890   H929    1.084   .     S
C890   C892    1.396   .     A
C890   C899    1.397   .     A
C891   O940    1.374   .     S
C891   C955    1.419   .     S
C891   C957    1.396   .     S
C892   O1007   1.378   .     S
C893   C895    1.390   .     A
C893   O938    1.386   .     S
C894   O950    1.388   .     S
C894   C897    1.401   .     A
C895   C900    1.408   .     A
C895   C898    1.409   .     A
C896   C911    1.402   .     S
C896   O945    1.293   .     A
C896   O1011   1.280   .     S
C897   C901    1.404   .     A
C897   C899    1.409   .     A
C898   C296    1.391   1_556 S
C900   C907    1.429   .     A
C900   C289    1.406   1_556 S
C901   C906    1.425   .     A
C902   H914    1.113   .     S
C902   O950    1.409   .     S
C902   H934    1.113   .     S
C902   H915    1.109   .     S
C903   H916    1.113   .     S
C903   O938    1.412   .     S
C903   H917    1.114   .     S
C903   H918    1.107   .     S
C904   H922    1.104   .     S
C904   H921    1.117   .     S
C904   H923    1.108   .     S
C904   O941    1.418   .     S
C905   O942    1.411   .     S
C905   H927    1.109   .     S
C905   H925    1.112   .     S
C905   H926    1.112   .     S
C906   O941    1.385   .     S
C906   C908    1.392   .     A
C907   O942    1.383   .     S
C907   C909    1.397   .     A
C908   H913    1.081   .     S
C909   H924    1.084   .     S
C909   C287    1.393   1_556 S
C910   C1047   1.339   .     S
C910   H1134   1.088   .     S
C912   O948    1.304   .     A
H919   O939    0.989   .     S
H920   O940    0.990   .     S
H931   C1115   1.088   .     S
H932   N935    1.027   .     S
H933   N936    1.028   .     S
N935   Zn952   2.029   .     S
N935   N936    1.286   .     D
N936   Zn951   2.029   .     S
O937   Zn951   1.951   .     S
O937   C953    1.280   .     S
O943   Zn952   1.951   .     S
O944   Zn952   1.976   .     S
O945   Zn951   1.976   .     S
O946   Zn951   1.963   .     S
O946   C980    1.302   .     S
O947   Zn952   1.963   .     S
O948   Zn952   1.931   .     S
O949   Zn951   1.931   .     S
C953   C978    1.402   .     S
C953   O1012   1.293   .     A
C954   C956    1.456   .     S
C954   O1017   1.300   .     A
C954   O879    1.296   1_655 S
C955   C961    1.402   .     A
C955   C980    1.471   .     S
C956   C960    1.423   .     A
C956   C962    1.396   .     A
C957   C966    1.399   .     A
C957   H316    1.081   1_556 S
C958   H997    1.084   .     S
C958   C960    1.396   .     A
C958   C967    1.397   .     A
C959   O1008   1.374   .     S
C959   C819    1.419   1_655 S
C959   C821    1.396   1_655 S
C960   O871    1.378   1_655 S
C961   C963    1.390   .     A
C961   O1006   1.386   .     S
C962   O1018   1.388   .     S
C962   C965    1.401   .     A
C963   C968    1.408   .     A
C963   C966    1.409   .     A
C964   C979    1.402   .     S
C964   O1013   1.293   .     A
C964   O875    1.280   1_655 S
C965   C969    1.404   .     A
C965   C967    1.409   .     A
C966   C364    1.391   1_556 S
C968   C975    1.429   .     A
C968   C357    1.406   1_556 S
C969   C974    1.425   .     A
C970   H982    1.113   .     S
C970   O1018   1.409   .     S
C970   H1002   1.113   .     S
C970   H983    1.109   .     S
C971   H984    1.113   .     S
C971   O1006   1.412   .     S
C971   H985    1.114   .     S
C971   H986    1.107   .     S
C972   H990    1.104   .     S
C972   H989    1.117   .     S
C972   H991    1.108   .     S
C972   O1009   1.418   .     S
C973   O1010   1.411   .     S
C973   H995    1.109   .     S
C973   H993    1.112   .     S
C973   H994    1.112   .     S
C974   O1009   1.385   .     S
C974   C976    1.392   .     A
C975   O1010   1.383   .     S
C975   C977    1.397   .     A
C976   H981    1.081   .     S
C977   H992    1.084   .     S
C977   C355    1.393   1_556 S
C978   C1115   1.339   .     S
C978   H1202   1.088   .     S
C979   C638    1.339   1_655 S
C980   O1016   1.304   .     A
H987   O1007   0.989   .     S
H988   O1008   0.990   .     S
H996   C209    1.081   1_655 S
H999   C1183   1.088   .     S
H1000  N1003   1.027   .     S
H1001  N1004   1.028   .     S
N1003  Zn1020  2.029   .     S
N1003  N1004   1.286   .     D
N1004  Zn1019  2.029   .     S
O1005  Zn1019  1.951   .     S
O1005  C817    1.280   1_655 S
O1011  Zn1020  1.951   .     S
O1012  Zn1020  1.976   .     S
O1013  Zn1019  1.976   .     S
O1014  Zn1019  1.963   .     S
O1014  C844    1.302   1_655 S
O1015  Zn1020  1.963   .     S
O1016  Zn1020  1.931   .     S
O1017  Zn1019  1.931   .     S
C1021  C1046   1.402   .     S
C1021  O1080   1.293   .     A
C1021  O1209   1.280   1_455 S
C1022  C1024   1.456   .     S
C1022  O1085   1.300   .     A
C1022  O1151   1.296   .     S
C1023  C1029   1.402   .     A
C1023  C1048   1.471   .     S
C1023  C1163   1.419   1_455 S
C1024  C1028   1.423   .     A
C1024  C1030   1.396   .     A
C1025  C1034   1.399   .     A
C1025  C1163   1.396   1_455 S
C1025  H588    1.081   1_456 S
C1026  H1065   1.084   .     S
C1026  C1028   1.396   .     A
C1026  C1035   1.397   .     A
C1027  O1076   1.374   .     S
C1027  C1091   1.419   .     S
C1027  C1093   1.396   .     S
C1028  O1143   1.378   .     S
C1029  C1031   1.390   .     A
C1029  O1074   1.386   .     S
C1030  O1086   1.388   .     S
C1030  C1033   1.401   .     A
C1031  C1036   1.408   .     A
C1031  C1034   1.409   .     A
C1032  C1047   1.402   .     S
C1032  O1081   1.293   .     A
C1032  O1147   1.280   .     S
C1033  C1037   1.404   .     A
C1033  C1035   1.409   .     A
C1034  C432    1.391   1_556 S
C1036  C1043   1.429   .     A
C1036  C425    1.406   1_556 S
C1037  C1042   1.425   .     A
C1038  H1050   1.113   .     S
C1038  O1086   1.409   .     S
C1038  H1070   1.113   .     S
C1038  H1051   1.109   .     S
C1039  H1052   1.113   .     S
C1039  O1074   1.412   .     S
C1039  H1053   1.114   .     S
C1039  H1054   1.107   .     S
C1040  H1058   1.104   .     S
C1040  H1057   1.117   .     S
C1040  H1059   1.108   .     S
C1040  O1077   1.418   .     S
C1041  O1078   1.411   .     S
C1041  H1063   1.109   .     S
C1041  H1061   1.112   .     S
C1041  H1062   1.112   .     S
C1042  O1077   1.385   .     S
C1042  C1044   1.392   .     A
C1043  O1078   1.383   .     S
C1043  C1045   1.397   .     A
C1044  H1049   1.081   .     S
C1045  H1060   1.084   .     S
C1045  C423    1.393   1_556 S
C1046  C775    1.339   1_465 S
C1046  H658    1.088   1_565 S
C1048  O1084   1.304   .     A
C1048  O1218   1.302   1_455 S
H1055  O1075   0.989   .     S
H1056  O1076   0.990   .     S
H1067  C639    1.088   1_565 S
H1068  N1071   1.027   .     S
H1069  N1072   1.028   .     S
N1071  Zn1088  2.029   .     S
N1071  N1072   1.286   .     D
N1072  Zn1087  2.029   .     S
O1073  Zn1087  1.951   .     S
O1073  C1089   1.280   .     S
O1075  C1164   1.378   1_455 S
O1079  Zn1088  1.951   .     S
O1079  C1168   1.280   1_455 S
O1080  Zn1088  1.976   .     S
O1081  Zn1087  1.976   .     S
O1082  Zn1087  1.963   .     S
O1082  C1116   1.302   .     S
O1083  Zn1088  1.963   .     S
O1083  C1158   1.296   1_455 S
O1084  Zn1088  1.931   .     S
O1085  Zn1087  1.931   .     S
C1089  C1114   1.402   .     S
C1089  O1148   1.293   .     A
C1090  C1092   1.456   .     S
C1090  O1153   1.300   .     A
C1090  O1219   1.296   .     S
C1091  C1097   1.402   .     A
C1091  C1116   1.471   .     S
C1092  C1096   1.423   .     A
C1092  C1098   1.396   .     A
C1093  C1102   1.399   .     A
C1093  H452    1.081   1_556 S
C1094  H1133   1.084   .     S
C1094  C1096   1.396   .     A
C1094  C1103   1.397   .     A
C1095  O1144   1.374   .     S
C1095  C1159   1.419   .     S
C1095  C1161   1.396   .     S
C1096  O1211   1.378   .     S
C1097  C1099   1.390   .     A
C1097  O1142   1.386   .     S
C1098  O1154   1.388   .     S
C1098  C1101   1.401   .     A
C1099  C1104   1.408   .     A
C1099  C1102   1.409   .     A
C1100  C1115   1.402   .     S
C1100  O1149   1.293   .     A
C1100  O1215   1.280   .     S
C1101  C1105   1.404   .     A
C1101  C1103   1.409   .     A
C1102  C500    1.391   1_556 S
C1104  C1111   1.429   .     A
C1104  C493    1.406   1_556 S
C1105  C1110   1.425   .     A
C1106  H1118   1.113   .     S
C1106  O1154   1.409   .     S
C1106  H1138   1.113   .     S
C1106  H1119   1.109   .     S
C1107  H1120   1.113   .     S
C1107  O1142   1.412   .     S
C1107  H1121   1.114   .     S
C1107  H1122   1.107   .     S
C1108  H1126   1.104   .     S
C1108  H1125   1.117   .     S
C1108  H1127   1.108   .     S
C1108  O1145   1.418   .     S
C1109  O1146   1.411   .     S
C1109  H1131   1.109   .     S
C1109  H1129   1.112   .     S
C1109  H1130   1.112   .     S
C1110  O1145   1.385   .     S
C1110  C1112   1.392   .     A
C1111  O1146   1.383   .     S
C1111  C1113   1.397   .     A
C1112  H1117   1.081   .     S
C1113  H1128   1.084   .     S
C1113  C491    1.393   1_556 S
C1114  C639    1.339   1_565 S
C1114  H726    1.088   1_565 S
C1116  O1152   1.304   .     A
H1123  O1143   0.989   .     S
H1124  O1144   0.990   .     S
H1135  C707    1.088   1_565 S
H1136  N1139   1.027   .     S
H1137  N1140   1.028   .     S
N1139  Zn1156  2.029   .     S
N1139  N1140   1.286   .     D
N1140  Zn1155  2.029   .     S
O1141  Zn1155  1.951   .     S
O1141  C1157   1.280   .     S
O1147  Zn1156  1.951   .     S
O1148  Zn1156  1.976   .     S
O1149  Zn1155  1.976   .     S
O1150  Zn1155  1.963   .     S
O1150  C1184   1.302   .     S
O1151  Zn1156  1.963   .     S
O1152  Zn1156  1.931   .     S
O1153  Zn1155  1.931   .     S
C1157  C1182   1.402   .     S
C1157  O1216   1.293   .     A
C1158  C1160   1.456   .     S
C1158  O1221   1.300   .     A
C1158  O1083   1.296   1_655 S
C1159  C1165   1.402   .     A
C1159  C1184   1.471   .     S
C1160  C1164   1.423   .     A
C1160  C1166   1.396   .     A
C1161  C1170   1.399   .     A
C1161  H520    1.081   1_556 S
C1162  H1201   1.084   .     S
C1162  C1164   1.396   .     A
C1162  C1171   1.397   .     A
C1163  O1212   1.374   .     S
C1163  C1023   1.419   1_655 S
C1163  C1025   1.396   1_655 S
C1164  O1075   1.378   1_655 S
C1165  C1167   1.390   .     A
C1165  O1210   1.386   .     S
C1166  O1222   1.388   .     S
C1166  C1169   1.401   .     A
C1167  C1172   1.408   .     A
C1167  C1170   1.409   .     A
C1168  C1183   1.402   .     S
C1168  O1217   1.293   .     A
C1168  O1079   1.280   1_655 S
C1169  C1173   1.404   .     A
C1169  C1171   1.409   .     A
C1170  C568    1.391   1_556 S
C1172  C1179   1.429   .     A
C1172  C561    1.406   1_556 S
C1173  C1178   1.425   .     A
C1174  H1186   1.113   .     S
C1174  O1222   1.409   .     S
C1174  H1206   1.113   .     S
C1174  H1187   1.109   .     S
C1175  H1188   1.113   .     S
C1175  O1210   1.412   .     S
C1175  H1189   1.114   .     S
C1175  H1190   1.107   .     S
C1176  H1194   1.104   .     S
C1176  H1193   1.117   .     S
C1176  H1195   1.108   .     S
C1176  O1213   1.418   .     S
C1177  O1214   1.411   .     S
C1177  H1199   1.109   .     S
C1177  H1197   1.112   .     S
C1177  H1198   1.112   .     S
C1178  O1213   1.385   .     S
C1178  C1180   1.392   .     A
C1179  O1214   1.383   .     S
C1179  C1181   1.397   .     A
C1180  H1185   1.081   .     S
C1181  H1196   1.084   .     S
C1181  C559    1.393   1_556 S
C1182  C707    1.339   1_565 S
C1182  H794    1.088   1_565 S
C1183  C842    1.339   1_655 S
C1184  O1220   1.304   .     A
H1191  O1211   0.989   .     S
H1192  O1212   0.990   .     S
H1200  C413    1.081   1_655 S
H1203  C775    1.088   1_565 S
H1204  N1207   1.027   .     S
H1205  N1208   1.028   .     S
N1207  Zn1224  2.029   .     S
N1207  N1208   1.286   .     D
N1208  Zn1223  2.029   .     S
O1209  Zn1223  1.951   .     S
O1209  C1021   1.280   1_655 S
O1215  Zn1224  1.951   .     S
O1216  Zn1224  1.976   .     S
O1217  Zn1223  1.976   .     S
O1218  Zn1223  1.963   .     S
O1218  C1048   1.302   1_655 S
O1219  Zn1224  1.963   .     S
O1220  Zn1224  1.931   .     S
O1221  Zn1223  1.931   .     S
