data_str_m2_o10_o16_pcu_sym.82
_audit_creation_date              2020-01-03
_audit_creation_method            'Materials Studio'
_symmetry_space_group_name_H-M    'P1'
_symmetry_Int_Tables_number       1
_symmetry_cell_setting            triclinic
loop_
_symmetry_equiv_pos_as_xyz
  x,y,z
_cell_length_a                    22.4091
_cell_length_b                    26.1574
_cell_length_c                    26.9433
_cell_angle_alpha                 94.5134
_cell_angle_beta                  77.7310
_cell_angle_gamma                 103.1536
loop_
_atom_site_label
_atom_site_type_symbol
_atom_site_fract_x
_atom_site_fract_y
_atom_site_fract_z
_atom_site_U_iso_or_equiv
_atom_site_adp_type
_atom_site_occupancy
O1     O     0.12797   0.23807   0.24633   0.00000  Uiso   1.00
O2     O     0.22858   0.24755   0.25586   0.00000  Uiso   1.00
C3     C     0.18115   0.26656   0.25307   0.00000  Uiso   1.00
O4     O     0.09181   0.15960   0.31839   0.00000  Uiso   1.00
O5     O     0.19242   0.16908   0.32793   0.00000  Uiso   1.00
C6     C     0.13288   0.16350   0.34717   0.00000  Uiso   1.00
Cu7    Cu    0.10710   0.16105   0.24435   0.00000  Uiso   1.00
Cu8    Cu    0.22623   0.17228   0.25564   0.00000  Uiso   1.00
O9     O     0.10476   0.08578   0.24413   0.00000  Uiso   1.00
O10    O     0.20536   0.09526   0.25367   0.00000  Uiso   1.00
O11    O     0.14092   0.16425   0.17207   0.00000  Uiso   1.00
O12    O     0.24152   0.17373   0.18160   0.00000  Uiso   1.00
C13    C     0.15170   0.06674   0.24884   0.00000  Uiso   1.00
C14    C     0.20030   0.17098   0.15321   0.00000  Uiso   1.00
C15    C     0.29472   0.21088   0.02366   0.00000  Uiso   1.00
H16    H     0.31842   0.20633   0.09606   0.00000  Uiso   1.00
H17    H     0.30203   0.24736   0.43309   0.00000  Uiso   1.00
H18    H     0.00853   0.23057   0.00667   0.00000  Uiso   1.00
C19    C     0.21948   0.17728   0.09817   0.00000  Uiso   1.00
C20    C     0.05084   0.12681   0.42232   0.00000  Uiso   1.00
C21    C     0.03477   0.11168   0.47291   0.00000  Uiso   1.00
C22    C     0.07976   0.12217   0.00360   0.00000  Uiso   1.00
C23    C     0.13937   0.15641   0.48656   0.00000  Uiso   1.00
C24    C     0.15356   0.17528   0.43637   0.00000  Uiso   1.00
C25    C     0.18588   0.17286   0.01714   0.00000  Uiso   1.00
C26    C     0.24691   0.20034   0.49548   0.00000  Uiso   1.00
C27    C     0.25778   0.22131   0.44789   0.00000  Uiso   1.00
C28    C     0.21033   0.21210   0.42049   0.00000  Uiso   1.00
C29    C     0.17249   0.16721   0.06959   0.00000  Uiso   1.00
C30    C     0.28143   0.19746   0.07454   0.00000  Uiso   1.00
C31    C     0.11140   0.15675   0.40288   0.00000  Uiso   1.00
H32    H     0.12471   0.15900   0.08954   0.00000  Uiso   1.00
H33    H     0.21924   0.23418   0.38648   0.00000  Uiso   1.00
C34    C     0.18660   0.32202   0.26110   0.00000  Uiso   1.00
C35    C     0.14577   0.01102   0.24563   0.00000  Uiso   1.00
H36    H     0.10993   0.32158   0.22642   0.00000  Uiso   1.00
N37    N     0.31574   0.18074   0.26416   0.00000  Uiso   1.00
N38    N     0.01759   0.15259   0.23584   0.00000  Uiso   1.00
H39    H     0.32844   0.12449   0.21316   0.00000  Uiso   1.00
N40    N     0.00998   0.22146   0.29345   0.00000  Uiso   1.00
O41    O     0.01486   0.26924   0.28057   0.00000  Uiso   1.00
O42    O     0.00671   0.21367   0.34103   0.00000  Uiso   1.00
N43    N     0.00717   0.10636   0.38989   0.00000  Uiso   1.00
O44    O     0.01830   0.06918   0.35656   0.00000  Uiso   1.00
O45    O     0.28446   0.11557   0.40131   0.00000  Uiso   1.00
N46    N     0.06591   0.09264   0.04888   0.00000  Uiso   1.00
O47    O     0.10000   0.05980   0.05347   0.00000  Uiso   1.00
O48    O     0.01577   0.09443   0.08319   0.00000  Uiso   1.00
O49    O     0.30659   0.08881   0.49354   0.00000  Uiso   1.00
C50    C     0.29608   0.03365   0.48710   0.00000  Uiso   1.00
H51    H     0.32567   0.01712   0.00713   0.00000  Uiso   1.00
H52    H     0.30540   0.02132   0.44624   0.00000  Uiso   1.00
C53    C     0.22776   0.01097   0.00976   0.00000  Uiso   1.00
H54    H     0.19724   0.02403   0.48805   0.00000  Uiso   1.00
H55    H     0.21820   0.30087   0.00830   0.00000  Uiso   1.00
H56    H     0.21646   0.02454   0.05010   0.00000  Uiso   1.00
N57    N     0.23236   0.01719   0.28905   0.00000  Uiso   1.00
O58    O     0.29166   0.02121   0.27039   0.00000  Uiso   1.00
O59    O     0.21450   0.03694   0.33416   0.00000  Uiso   1.00
O60    O     0.46131   0.23807   0.24633   0.00000  Uiso   1.00
O61    O     0.56191   0.24755   0.25586   0.00000  Uiso   1.00
C62    C     0.51448   0.26656   0.25307   0.00000  Uiso   1.00
O63    O     0.42515   0.15960   0.31839   0.00000  Uiso   1.00
O64    O     0.52575   0.16908   0.32793   0.00000  Uiso   1.00
C65    C     0.46621   0.16350   0.34717   0.00000  Uiso   1.00
Cu66   Cu    0.44043   0.16105   0.24435   0.00000  Uiso   1.00
Cu67   Cu    0.55957   0.17228   0.25564   0.00000  Uiso   1.00
O68    O     0.43809   0.08578   0.24413   0.00000  Uiso   1.00
O69    O     0.53869   0.09526   0.25367   0.00000  Uiso   1.00
O70    O     0.47425   0.16425   0.17207   0.00000  Uiso   1.00
O71    O     0.57485   0.17373   0.18160   0.00000  Uiso   1.00
C72    C     0.48504   0.06674   0.24884   0.00000  Uiso   1.00
C73    C     0.53363   0.17098   0.15321   0.00000  Uiso   1.00
C74    C     0.62805   0.21088   0.02366   0.00000  Uiso   1.00
H75    H     0.65175   0.20633   0.09606   0.00000  Uiso   1.00
H76    H     0.63536   0.24736   0.43309   0.00000  Uiso   1.00
H77    H     0.34186   0.23057   0.00667   0.00000  Uiso   1.00
C78    C     0.55281   0.17728   0.09817   0.00000  Uiso   1.00
C79    C     0.38417   0.12681   0.42232   0.00000  Uiso   1.00
C80    C     0.36810   0.11168   0.47291   0.00000  Uiso   1.00
C81    C     0.41309   0.12217   0.00360   0.00000  Uiso   1.00
C82    C     0.47271   0.15641   0.48656   0.00000  Uiso   1.00
C83    C     0.48690   0.17528   0.43637   0.00000  Uiso   1.00
C84    C     0.51921   0.17286   0.01714   0.00000  Uiso   1.00
C85    C     0.58025   0.20034   0.49548   0.00000  Uiso   1.00
C86    C     0.59111   0.22131   0.44789   0.00000  Uiso   1.00
C87    C     0.54367   0.21210   0.42049   0.00000  Uiso   1.00
C88    C     0.50582   0.16721   0.06959   0.00000  Uiso   1.00
C89    C     0.61476   0.19746   0.07454   0.00000  Uiso   1.00
C90    C     0.44473   0.15675   0.40288   0.00000  Uiso   1.00
H91    H     0.45804   0.15900   0.08954   0.00000  Uiso   1.00
H92    H     0.55257   0.23418   0.38648   0.00000  Uiso   1.00
C93    C     0.51993   0.32202   0.26110   0.00000  Uiso   1.00
C94    C     0.47911   0.01102   0.24563   0.00000  Uiso   1.00
H95    H     0.44327   0.32158   0.22642   0.00000  Uiso   1.00
N96    N     0.64908   0.18074   0.26416   0.00000  Uiso   1.00
N97    N     0.35092   0.15259   0.23584   0.00000  Uiso   1.00
H98    H     0.66178   0.12449   0.21316   0.00000  Uiso   1.00
N99    N     0.34332   0.22146   0.29345   0.00000  Uiso   1.00
O100   O     0.34819   0.26924   0.28057   0.00000  Uiso   1.00
O101   O     0.34004   0.21367   0.34103   0.00000  Uiso   1.00
N102   N     0.34050   0.10636   0.38989   0.00000  Uiso   1.00
O103   O     0.35163   0.06918   0.35656   0.00000  Uiso   1.00
O104   O     0.61779   0.11557   0.40131   0.00000  Uiso   1.00
N105   N     0.39924   0.09264   0.04888   0.00000  Uiso   1.00
O106   O     0.43333   0.05980   0.05347   0.00000  Uiso   1.00
O107   O     0.34910   0.09443   0.08319   0.00000  Uiso   1.00
O108   O     0.63992   0.08881   0.49354   0.00000  Uiso   1.00
C109   C     0.62941   0.03365   0.48710   0.00000  Uiso   1.00
H110   H     0.65901   0.01712   0.00713   0.00000  Uiso   1.00
H111   H     0.63873   0.02132   0.44624   0.00000  Uiso   1.00
C112   C     0.56109   0.01097   0.00976   0.00000  Uiso   1.00
H113   H     0.53057   0.02403   0.48805   0.00000  Uiso   1.00
H114   H     0.55154   0.30087   0.00830   0.00000  Uiso   1.00
H115   H     0.54980   0.02454   0.05010   0.00000  Uiso   1.00
N116   N     0.56569   0.01719   0.28905   0.00000  Uiso   1.00
O117   O     0.62499   0.02121   0.27039   0.00000  Uiso   1.00
O118   O     0.54784   0.03694   0.33416   0.00000  Uiso   1.00
O119   O     0.79464   0.23807   0.24633   0.00000  Uiso   1.00
O120   O     0.89524   0.24755   0.25586   0.00000  Uiso   1.00
C121   C     0.84782   0.26656   0.25307   0.00000  Uiso   1.00
O122   O     0.75848   0.15960   0.31839   0.00000  Uiso   1.00
O123   O     0.85908   0.16908   0.32793   0.00000  Uiso   1.00
C124   C     0.79954   0.16350   0.34717   0.00000  Uiso   1.00
Cu125  Cu    0.77377   0.16105   0.24435   0.00000  Uiso   1.00
Cu126  Cu    0.89290   0.17228   0.25564   0.00000  Uiso   1.00
O127   O     0.77142   0.08578   0.24413   0.00000  Uiso   1.00
O128   O     0.87203   0.09526   0.25367   0.00000  Uiso   1.00
O129   O     0.80758   0.16425   0.17207   0.00000  Uiso   1.00
O130   O     0.90819   0.17373   0.18160   0.00000  Uiso   1.00
C131   C     0.81837   0.06674   0.24884   0.00000  Uiso   1.00
C132   C     0.86697   0.17098   0.15321   0.00000  Uiso   1.00
C133   C     0.96138   0.21088   0.02366   0.00000  Uiso   1.00
H134   H     0.98509   0.20633   0.09606   0.00000  Uiso   1.00
H135   H     0.96870   0.24736   0.43309   0.00000  Uiso   1.00
H136   H     0.67520   0.23057   0.00667   0.00000  Uiso   1.00
C137   C     0.88614   0.17728   0.09817   0.00000  Uiso   1.00
C138   C     0.71750   0.12681   0.42232   0.00000  Uiso   1.00
C139   C     0.70144   0.11168   0.47291   0.00000  Uiso   1.00
C140   C     0.74643   0.12217   0.00360   0.00000  Uiso   1.00
C141   C     0.80604   0.15641   0.48656   0.00000  Uiso   1.00
C142   C     0.82023   0.17528   0.43637   0.00000  Uiso   1.00
C143   C     0.85255   0.17286   0.01714   0.00000  Uiso   1.00
C144   C     0.91358   0.20034   0.49548   0.00000  Uiso   1.00
C145   C     0.92444   0.22131   0.44789   0.00000  Uiso   1.00
C146   C     0.87700   0.21210   0.42049   0.00000  Uiso   1.00
C147   C     0.83916   0.16721   0.06959   0.00000  Uiso   1.00
C148   C     0.94810   0.19746   0.07454   0.00000  Uiso   1.00
C149   C     0.77806   0.15675   0.40288   0.00000  Uiso   1.00
H150   H     0.79138   0.15900   0.08954   0.00000  Uiso   1.00
H151   H     0.88590   0.23418   0.38648   0.00000  Uiso   1.00
C152   C     0.85326   0.32202   0.26110   0.00000  Uiso   1.00
C153   C     0.81244   0.01102   0.24563   0.00000  Uiso   1.00
H154   H     0.77660   0.32158   0.22642   0.00000  Uiso   1.00
N155   N     0.98241   0.18074   0.26416   0.00000  Uiso   1.00
N156   N     0.68426   0.15259   0.23584   0.00000  Uiso   1.00
H157   H     0.99511   0.12449   0.21316   0.00000  Uiso   1.00
N158   N     0.67665   0.22146   0.29345   0.00000  Uiso   1.00
O159   O     0.68152   0.26924   0.28057   0.00000  Uiso   1.00
O160   O     0.67337   0.21367   0.34103   0.00000  Uiso   1.00
N161   N     0.67384   0.10636   0.38989   0.00000  Uiso   1.00
O162   O     0.68497   0.06918   0.35656   0.00000  Uiso   1.00
O163   O     0.95113   0.11557   0.40131   0.00000  Uiso   1.00
N164   N     0.73257   0.09264   0.04888   0.00000  Uiso   1.00
O165   O     0.76666   0.05980   0.05347   0.00000  Uiso   1.00
O166   O     0.68243   0.09443   0.08319   0.00000  Uiso   1.00
O167   O     0.97326   0.08881   0.49354   0.00000  Uiso   1.00
C168   C     0.96274   0.03365   0.48710   0.00000  Uiso   1.00
H169   H     0.99234   0.01712   0.00713   0.00000  Uiso   1.00
H170   H     0.97206   0.02132   0.44624   0.00000  Uiso   1.00
C171   C     0.89442   0.01097   0.00976   0.00000  Uiso   1.00
H172   H     0.86391   0.02403   0.48805   0.00000  Uiso   1.00
H173   H     0.88487   0.30087   0.00830   0.00000  Uiso   1.00
H174   H     0.88313   0.02454   0.05010   0.00000  Uiso   1.00
N175   N     0.89903   0.01719   0.28905   0.00000  Uiso   1.00
O176   O     0.95833   0.02121   0.27039   0.00000  Uiso   1.00
O177   O     0.88117   0.03694   0.33416   0.00000  Uiso   1.00
O178   O     0.12797   0.57141   0.24633   0.00000  Uiso   1.00
O179   O     0.22858   0.58089   0.25586   0.00000  Uiso   1.00
C180   C     0.18115   0.59989   0.25307   0.00000  Uiso   1.00
O181   O     0.09181   0.49293   0.31839   0.00000  Uiso   1.00
O182   O     0.19242   0.50241   0.32793   0.00000  Uiso   1.00
C183   C     0.13288   0.49684   0.34717   0.00000  Uiso   1.00
Cu184  Cu    0.10710   0.49439   0.24435   0.00000  Uiso   1.00
Cu185  Cu    0.22623   0.50561   0.25564   0.00000  Uiso   1.00
O186   O     0.10476   0.41911   0.24413   0.00000  Uiso   1.00
O187   O     0.20536   0.42859   0.25367   0.00000  Uiso   1.00
O188   O     0.14092   0.49759   0.17207   0.00000  Uiso   1.00
O189   O     0.24152   0.50707   0.18160   0.00000  Uiso   1.00
C190   C     0.15170   0.40007   0.24884   0.00000  Uiso   1.00
C191   C     0.20030   0.50431   0.15321   0.00000  Uiso   1.00
C192   C     0.29472   0.54421   0.02366   0.00000  Uiso   1.00
H193   H     0.31842   0.53967   0.09606   0.00000  Uiso   1.00
H194   H     0.30203   0.58070   0.43309   0.00000  Uiso   1.00
H195   H     0.00853   0.56391   0.00667   0.00000  Uiso   1.00
C196   C     0.21948   0.51062   0.09817   0.00000  Uiso   1.00
C197   C     0.05084   0.46015   0.42232   0.00000  Uiso   1.00
C198   C     0.03477   0.44502   0.47291   0.00000  Uiso   1.00
C199   C     0.07976   0.45550   0.00360   0.00000  Uiso   1.00
C200   C     0.13937   0.48975   0.48656   0.00000  Uiso   1.00
C201   C     0.15356   0.50862   0.43637   0.00000  Uiso   1.00
C202   C     0.18588   0.50620   0.01714   0.00000  Uiso   1.00
C203   C     0.24691   0.53367   0.49548   0.00000  Uiso   1.00
C204   C     0.25778   0.55465   0.44789   0.00000  Uiso   1.00
C205   C     0.21033   0.54543   0.42049   0.00000  Uiso   1.00
C206   C     0.17249   0.50054   0.06959   0.00000  Uiso   1.00
C207   C     0.28143   0.53079   0.07454   0.00000  Uiso   1.00
C208   C     0.11140   0.49008   0.40288   0.00000  Uiso   1.00
H209   H     0.12471   0.49234   0.08954   0.00000  Uiso   1.00
H210   H     0.21924   0.56751   0.38648   0.00000  Uiso   1.00
C211   C     0.18660   0.65536   0.26110   0.00000  Uiso   1.00
C212   C     0.14577   0.34435   0.24563   0.00000  Uiso   1.00
H213   H     0.10993   0.65491   0.22642   0.00000  Uiso   1.00
N214   N     0.31574   0.51407   0.26416   0.00000  Uiso   1.00
N215   N     0.01759   0.48593   0.23584   0.00000  Uiso   1.00
H216   H     0.32844   0.45782   0.21316   0.00000  Uiso   1.00
N217   N     0.00998   0.55479   0.29345   0.00000  Uiso   1.00
O218   O     0.01486   0.60258   0.28057   0.00000  Uiso   1.00
O219   O     0.00671   0.54700   0.34103   0.00000  Uiso   1.00
N220   N     0.00717   0.43970   0.38989   0.00000  Uiso   1.00
O221   O     0.01830   0.40251   0.35656   0.00000  Uiso   1.00
O222   O     0.28446   0.44890   0.40131   0.00000  Uiso   1.00
N223   N     0.06591   0.42598   0.04888   0.00000  Uiso   1.00
O224   O     0.10000   0.39313   0.05347   0.00000  Uiso   1.00
O225   O     0.01577   0.42776   0.08319   0.00000  Uiso   1.00
O226   O     0.30659   0.42215   0.49354   0.00000  Uiso   1.00
C227   C     0.29608   0.36699   0.48710   0.00000  Uiso   1.00
H228   H     0.32567   0.35046   0.00713   0.00000  Uiso   1.00
H229   H     0.30540   0.35465   0.44624   0.00000  Uiso   1.00
C230   C     0.22776   0.34430   0.00976   0.00000  Uiso   1.00
H231   H     0.19724   0.35736   0.48805   0.00000  Uiso   1.00
H232   H     0.21820   0.63421   0.00830   0.00000  Uiso   1.00
H233   H     0.21646   0.35788   0.05010   0.00000  Uiso   1.00
N234   N     0.23236   0.35053   0.28905   0.00000  Uiso   1.00
O235   O     0.29166   0.35454   0.27039   0.00000  Uiso   1.00
O236   O     0.21450   0.37028   0.33416   0.00000  Uiso   1.00
O237   O     0.46131   0.57141   0.24633   0.00000  Uiso   1.00
O238   O     0.56191   0.58089   0.25586   0.00000  Uiso   1.00
C239   C     0.51448   0.59989   0.25307   0.00000  Uiso   1.00
O240   O     0.42515   0.49293   0.31839   0.00000  Uiso   1.00
O241   O     0.52575   0.50241   0.32793   0.00000  Uiso   1.00
C242   C     0.46621   0.49684   0.34717   0.00000  Uiso   1.00
Cu243  Cu    0.44043   0.49439   0.24435   0.00000  Uiso   1.00
Cu244  Cu    0.55957   0.50561   0.25564   0.00000  Uiso   1.00
O245   O     0.43809   0.41911   0.24413   0.00000  Uiso   1.00
O246   O     0.53869   0.42859   0.25367   0.00000  Uiso   1.00
O247   O     0.47425   0.49759   0.17207   0.00000  Uiso   1.00
O248   O     0.57485   0.50707   0.18160   0.00000  Uiso   1.00
C249   C     0.48504   0.40007   0.24884   0.00000  Uiso   1.00
C250   C     0.53363   0.50431   0.15321   0.00000  Uiso   1.00
C251   C     0.62805   0.54421   0.02366   0.00000  Uiso   1.00
H252   H     0.65175   0.53967   0.09606   0.00000  Uiso   1.00
H253   H     0.63536   0.58070   0.43309   0.00000  Uiso   1.00
H254   H     0.34186   0.56391   0.00667   0.00000  Uiso   1.00
C255   C     0.55281   0.51062   0.09817   0.00000  Uiso   1.00
C256   C     0.38417   0.46015   0.42232   0.00000  Uiso   1.00
C257   C     0.36810   0.44502   0.47291   0.00000  Uiso   1.00
C258   C     0.41309   0.45550   0.00360   0.00000  Uiso   1.00
C259   C     0.47271   0.48975   0.48656   0.00000  Uiso   1.00
C260   C     0.48690   0.50862   0.43637   0.00000  Uiso   1.00
C261   C     0.51921   0.50620   0.01714   0.00000  Uiso   1.00
C262   C     0.58025   0.53367   0.49548   0.00000  Uiso   1.00
C263   C     0.59111   0.55465   0.44789   0.00000  Uiso   1.00
C264   C     0.54367   0.54543   0.42049   0.00000  Uiso   1.00
C265   C     0.50582   0.50054   0.06959   0.00000  Uiso   1.00
C266   C     0.61476   0.53079   0.07454   0.00000  Uiso   1.00
C267   C     0.44473   0.49008   0.40288   0.00000  Uiso   1.00
H268   H     0.45804   0.49234   0.08954   0.00000  Uiso   1.00
H269   H     0.55257   0.56751   0.38648   0.00000  Uiso   1.00
C270   C     0.51993   0.65536   0.26110   0.00000  Uiso   1.00
C271   C     0.47911   0.34435   0.24563   0.00000  Uiso   1.00
H272   H     0.44327   0.65491   0.22642   0.00000  Uiso   1.00
N273   N     0.64908   0.51407   0.26416   0.00000  Uiso   1.00
N274   N     0.35092   0.48593   0.23584   0.00000  Uiso   1.00
H275   H     0.66178   0.45782   0.21316   0.00000  Uiso   1.00
N276   N     0.34332   0.55479   0.29345   0.00000  Uiso   1.00
O277   O     0.34819   0.60258   0.28057   0.00000  Uiso   1.00
O278   O     0.34004   0.54700   0.34103   0.00000  Uiso   1.00
N279   N     0.34050   0.43970   0.38989   0.00000  Uiso   1.00
O280   O     0.35163   0.40251   0.35656   0.00000  Uiso   1.00
O281   O     0.61779   0.44890   0.40131   0.00000  Uiso   1.00
N282   N     0.39924   0.42598   0.04888   0.00000  Uiso   1.00
O283   O     0.43333   0.39313   0.05347   0.00000  Uiso   1.00
O284   O     0.34910   0.42776   0.08319   0.00000  Uiso   1.00
O285   O     0.63992   0.42215   0.49354   0.00000  Uiso   1.00
C286   C     0.62941   0.36699   0.48710   0.00000  Uiso   1.00
H287   H     0.65901   0.35046   0.00713   0.00000  Uiso   1.00
H288   H     0.63873   0.35465   0.44624   0.00000  Uiso   1.00
C289   C     0.56109   0.34430   0.00976   0.00000  Uiso   1.00
H290   H     0.53057   0.35736   0.48805   0.00000  Uiso   1.00
H291   H     0.55154   0.63421   0.00830   0.00000  Uiso   1.00
H292   H     0.54980   0.35788   0.05010   0.00000  Uiso   1.00
N293   N     0.56569   0.35053   0.28905   0.00000  Uiso   1.00
O294   O     0.62499   0.35454   0.27039   0.00000  Uiso   1.00
O295   O     0.54784   0.37028   0.33416   0.00000  Uiso   1.00
O296   O     0.79464   0.57141   0.24633   0.00000  Uiso   1.00
O297   O     0.89524   0.58089   0.25586   0.00000  Uiso   1.00
C298   C     0.84782   0.59989   0.25307   0.00000  Uiso   1.00
O299   O     0.75848   0.49293   0.31839   0.00000  Uiso   1.00
O300   O     0.85908   0.50241   0.32793   0.00000  Uiso   1.00
C301   C     0.79954   0.49684   0.34717   0.00000  Uiso   1.00
Cu302  Cu    0.77377   0.49439   0.24435   0.00000  Uiso   1.00
Cu303  Cu    0.89290   0.50561   0.25564   0.00000  Uiso   1.00
O304   O     0.77142   0.41911   0.24413   0.00000  Uiso   1.00
O305   O     0.87203   0.42859   0.25367   0.00000  Uiso   1.00
O306   O     0.80758   0.49759   0.17207   0.00000  Uiso   1.00
O307   O     0.90819   0.50707   0.18160   0.00000  Uiso   1.00
C308   C     0.81837   0.40007   0.24884   0.00000  Uiso   1.00
C309   C     0.86697   0.50431   0.15321   0.00000  Uiso   1.00
C310   C     0.96138   0.54421   0.02366   0.00000  Uiso   1.00
H311   H     0.98509   0.53967   0.09606   0.00000  Uiso   1.00
H312   H     0.96870   0.58070   0.43309   0.00000  Uiso   1.00
H313   H     0.67520   0.56391   0.00667   0.00000  Uiso   1.00
C314   C     0.88614   0.51062   0.09817   0.00000  Uiso   1.00
C315   C     0.71750   0.46015   0.42232   0.00000  Uiso   1.00
C316   C     0.70144   0.44502   0.47291   0.00000  Uiso   1.00
C317   C     0.74643   0.45550   0.00360   0.00000  Uiso   1.00
C318   C     0.80604   0.48975   0.48656   0.00000  Uiso   1.00
C319   C     0.82023   0.50862   0.43637   0.00000  Uiso   1.00
C320   C     0.85255   0.50620   0.01714   0.00000  Uiso   1.00
C321   C     0.91358   0.53367   0.49548   0.00000  Uiso   1.00
C322   C     0.92444   0.55465   0.44789   0.00000  Uiso   1.00
C323   C     0.87700   0.54543   0.42049   0.00000  Uiso   1.00
C324   C     0.83916   0.50054   0.06959   0.00000  Uiso   1.00
C325   C     0.94810   0.53079   0.07454   0.00000  Uiso   1.00
C326   C     0.77806   0.49008   0.40288   0.00000  Uiso   1.00
H327   H     0.79138   0.49234   0.08954   0.00000  Uiso   1.00
H328   H     0.88590   0.56751   0.38648   0.00000  Uiso   1.00
C329   C     0.85326   0.65536   0.26110   0.00000  Uiso   1.00
C330   C     0.81244   0.34435   0.24563   0.00000  Uiso   1.00
H331   H     0.77660   0.65491   0.22642   0.00000  Uiso   1.00
N332   N     0.98241   0.51407   0.26416   0.00000  Uiso   1.00
N333   N     0.68426   0.48593   0.23584   0.00000  Uiso   1.00
H334   H     0.99511   0.45782   0.21316   0.00000  Uiso   1.00
N335   N     0.67665   0.55479   0.29345   0.00000  Uiso   1.00
O336   O     0.68152   0.60258   0.28057   0.00000  Uiso   1.00
O337   O     0.67337   0.54700   0.34103   0.00000  Uiso   1.00
N338   N     0.67384   0.43970   0.38989   0.00000  Uiso   1.00
O339   O     0.68497   0.40251   0.35656   0.00000  Uiso   1.00
O340   O     0.95113   0.44890   0.40131   0.00000  Uiso   1.00
N341   N     0.73257   0.42598   0.04888   0.00000  Uiso   1.00
O342   O     0.76666   0.39313   0.05347   0.00000  Uiso   1.00
O343   O     0.68243   0.42776   0.08319   0.00000  Uiso   1.00
O344   O     0.97326   0.42215   0.49354   0.00000  Uiso   1.00
C345   C     0.96274   0.36699   0.48710   0.00000  Uiso   1.00
H346   H     0.99234   0.35046   0.00713   0.00000  Uiso   1.00
H347   H     0.97206   0.35465   0.44624   0.00000  Uiso   1.00
C348   C     0.89442   0.34430   0.00976   0.00000  Uiso   1.00
H349   H     0.86391   0.35736   0.48805   0.00000  Uiso   1.00
H350   H     0.88487   0.63421   0.00830   0.00000  Uiso   1.00
H351   H     0.88313   0.35788   0.05010   0.00000  Uiso   1.00
N352   N     0.89903   0.35053   0.28905   0.00000  Uiso   1.00
O353   O     0.95833   0.35454   0.27039   0.00000  Uiso   1.00
O354   O     0.88117   0.37028   0.33416   0.00000  Uiso   1.00
O355   O     0.12797   0.90474   0.24633   0.00000  Uiso   1.00
O356   O     0.22858   0.91422   0.25586   0.00000  Uiso   1.00
C357   C     0.18115   0.93323   0.25307   0.00000  Uiso   1.00
O358   O     0.09181   0.82627   0.31839   0.00000  Uiso   1.00
O359   O     0.19242   0.83575   0.32793   0.00000  Uiso   1.00
C360   C     0.13288   0.83017   0.34717   0.00000  Uiso   1.00
Cu361  Cu    0.10710   0.82772   0.24435   0.00000  Uiso   1.00
Cu362  Cu    0.22623   0.83895   0.25564   0.00000  Uiso   1.00
O363   O     0.10476   0.75245   0.24413   0.00000  Uiso   1.00
O364   O     0.20536   0.76193   0.25367   0.00000  Uiso   1.00
O365   O     0.14092   0.83092   0.17207   0.00000  Uiso   1.00
O366   O     0.24152   0.84040   0.18160   0.00000  Uiso   1.00
C367   C     0.15170   0.73341   0.24884   0.00000  Uiso   1.00
C368   C     0.20030   0.83764   0.15321   0.00000  Uiso   1.00
C369   C     0.29472   0.87754   0.02366   0.00000  Uiso   1.00
H370   H     0.31842   0.87300   0.09606   0.00000  Uiso   1.00
H371   H     0.30203   0.91403   0.43309   0.00000  Uiso   1.00
H372   H     0.00853   0.89724   0.00667   0.00000  Uiso   1.00
C373   C     0.21948   0.84395   0.09817   0.00000  Uiso   1.00
C374   C     0.05084   0.79348   0.42232   0.00000  Uiso   1.00
C375   C     0.03477   0.77835   0.47291   0.00000  Uiso   1.00
C376   C     0.07976   0.78884   0.00360   0.00000  Uiso   1.00
C377   C     0.13937   0.82308   0.48656   0.00000  Uiso   1.00
C378   C     0.15356   0.84195   0.43637   0.00000  Uiso   1.00
C379   C     0.18588   0.83953   0.01714   0.00000  Uiso   1.00
C380   C     0.24691   0.86701   0.49548   0.00000  Uiso   1.00
C381   C     0.25778   0.88798   0.44789   0.00000  Uiso   1.00
C382   C     0.21033   0.87877   0.42049   0.00000  Uiso   1.00
C383   C     0.17249   0.83388   0.06959   0.00000  Uiso   1.00
C384   C     0.28143   0.86413   0.07454   0.00000  Uiso   1.00
C385   C     0.11140   0.82342   0.40288   0.00000  Uiso   1.00
H386   H     0.12471   0.82567   0.08954   0.00000  Uiso   1.00
H387   H     0.21924   0.90084   0.38648   0.00000  Uiso   1.00
C388   C     0.18660   0.98869   0.26110   0.00000  Uiso   1.00
C389   C     0.14577   0.67769   0.24563   0.00000  Uiso   1.00
H390   H     0.10993   0.98824   0.22642   0.00000  Uiso   1.00
N391   N     0.31574   0.84741   0.26416   0.00000  Uiso   1.00
N392   N     0.01759   0.81926   0.23584   0.00000  Uiso   1.00
H393   H     0.32844   0.79116   0.21316   0.00000  Uiso   1.00
N394   N     0.00998   0.88812   0.29345   0.00000  Uiso   1.00
O395   O     0.01486   0.93591   0.28057   0.00000  Uiso   1.00
O396   O     0.00671   0.88033   0.34103   0.00000  Uiso   1.00
N397   N     0.00717   0.77303   0.38989   0.00000  Uiso   1.00
O398   O     0.01830   0.73584   0.35656   0.00000  Uiso   1.00
O399   O     0.28446   0.78223   0.40131   0.00000  Uiso   1.00
N400   N     0.06591   0.75931   0.04888   0.00000  Uiso   1.00
O401   O     0.10000   0.72646   0.05347   0.00000  Uiso   1.00
O402   O     0.01577   0.76110   0.08319   0.00000  Uiso   1.00
O403   O     0.30659   0.75548   0.49354   0.00000  Uiso   1.00
C404   C     0.29608   0.70032   0.48710   0.00000  Uiso   1.00
H405   H     0.32567   0.68379   0.00713   0.00000  Uiso   1.00
H406   H     0.30540   0.68799   0.44624   0.00000  Uiso   1.00
C407   C     0.22776   0.67764   0.00976   0.00000  Uiso   1.00
H408   H     0.19724   0.69069   0.48805   0.00000  Uiso   1.00
H409   H     0.21820   0.96754   0.00830   0.00000  Uiso   1.00
H410   H     0.21646   0.69121   0.05010   0.00000  Uiso   1.00
N411   N     0.23236   0.68386   0.28905   0.00000  Uiso   1.00
O412   O     0.29166   0.68788   0.27039   0.00000  Uiso   1.00
O413   O     0.21450   0.70361   0.33416   0.00000  Uiso   1.00
O414   O     0.46131   0.90474   0.24633   0.00000  Uiso   1.00
O415   O     0.56191   0.91422   0.25586   0.00000  Uiso   1.00
C416   C     0.51448   0.93323   0.25307   0.00000  Uiso   1.00
O417   O     0.42515   0.82627   0.31839   0.00000  Uiso   1.00
O418   O     0.52575   0.83575   0.32793   0.00000  Uiso   1.00
C419   C     0.46621   0.83017   0.34717   0.00000  Uiso   1.00
Cu420  Cu    0.44043   0.82772   0.24435   0.00000  Uiso   1.00
Cu421  Cu    0.55957   0.83895   0.25564   0.00000  Uiso   1.00
O422   O     0.43809   0.75245   0.24413   0.00000  Uiso   1.00
O423   O     0.53869   0.76193   0.25367   0.00000  Uiso   1.00
O424   O     0.47425   0.83092   0.17207   0.00000  Uiso   1.00
O425   O     0.57485   0.84040   0.18160   0.00000  Uiso   1.00
C426   C     0.48504   0.73341   0.24884   0.00000  Uiso   1.00
C427   C     0.53363   0.83764   0.15321   0.00000  Uiso   1.00
C428   C     0.62805   0.87754   0.02366   0.00000  Uiso   1.00
H429   H     0.65175   0.87300   0.09606   0.00000  Uiso   1.00
H430   H     0.63536   0.91403   0.43309   0.00000  Uiso   1.00
H431   H     0.34186   0.89724   0.00667   0.00000  Uiso   1.00
C432   C     0.55281   0.84395   0.09817   0.00000  Uiso   1.00
C433   C     0.38417   0.79348   0.42232   0.00000  Uiso   1.00
C434   C     0.36810   0.77835   0.47291   0.00000  Uiso   1.00
C435   C     0.41309   0.78884   0.00360   0.00000  Uiso   1.00
C436   C     0.47271   0.82308   0.48656   0.00000  Uiso   1.00
C437   C     0.48690   0.84195   0.43637   0.00000  Uiso   1.00
C438   C     0.51921   0.83953   0.01714   0.00000  Uiso   1.00
C439   C     0.58025   0.86701   0.49548   0.00000  Uiso   1.00
C440   C     0.59111   0.88798   0.44789   0.00000  Uiso   1.00
C441   C     0.54367   0.87877   0.42049   0.00000  Uiso   1.00
C442   C     0.50582   0.83388   0.06959   0.00000  Uiso   1.00
C443   C     0.61476   0.86413   0.07454   0.00000  Uiso   1.00
C444   C     0.44473   0.82342   0.40288   0.00000  Uiso   1.00
H445   H     0.45804   0.82567   0.08954   0.00000  Uiso   1.00
H446   H     0.55257   0.90084   0.38648   0.00000  Uiso   1.00
C447   C     0.51993   0.98869   0.26110   0.00000  Uiso   1.00
C448   C     0.47911   0.67769   0.24563   0.00000  Uiso   1.00
H449   H     0.44327   0.98824   0.22642   0.00000  Uiso   1.00
N450   N     0.64908   0.84741   0.26416   0.00000  Uiso   1.00
N451   N     0.35092   0.81926   0.23584   0.00000  Uiso   1.00
H452   H     0.66178   0.79116   0.21316   0.00000  Uiso   1.00
N453   N     0.34332   0.88812   0.29345   0.00000  Uiso   1.00
O454   O     0.34819   0.93591   0.28057   0.00000  Uiso   1.00
O455   O     0.34004   0.88033   0.34103   0.00000  Uiso   1.00
N456   N     0.34050   0.77303   0.38989   0.00000  Uiso   1.00
O457   O     0.35163   0.73584   0.35656   0.00000  Uiso   1.00
O458   O     0.61779   0.78223   0.40131   0.00000  Uiso   1.00
N459   N     0.39924   0.75931   0.04888   0.00000  Uiso   1.00
O460   O     0.43333   0.72646   0.05347   0.00000  Uiso   1.00
O461   O     0.34910   0.76110   0.08319   0.00000  Uiso   1.00
O462   O     0.63992   0.75548   0.49354   0.00000  Uiso   1.00
C463   C     0.62941   0.70032   0.48710   0.00000  Uiso   1.00
H464   H     0.65901   0.68379   0.00713   0.00000  Uiso   1.00
H465   H     0.63873   0.68799   0.44624   0.00000  Uiso   1.00
C466   C     0.56109   0.67764   0.00976   0.00000  Uiso   1.00
H467   H     0.53057   0.69069   0.48805   0.00000  Uiso   1.00
H468   H     0.55154   0.96754   0.00830   0.00000  Uiso   1.00
H469   H     0.54980   0.69121   0.05010   0.00000  Uiso   1.00
N470   N     0.56569   0.68386   0.28905   0.00000  Uiso   1.00
O471   O     0.62499   0.68788   0.27039   0.00000  Uiso   1.00
O472   O     0.54784   0.70361   0.33416   0.00000  Uiso   1.00
O473   O     0.79464   0.90474   0.24633   0.00000  Uiso   1.00
O474   O     0.89524   0.91422   0.25586   0.00000  Uiso   1.00
C475   C     0.84782   0.93323   0.25307   0.00000  Uiso   1.00
O476   O     0.75848   0.82627   0.31839   0.00000  Uiso   1.00
O477   O     0.85908   0.83575   0.32793   0.00000  Uiso   1.00
C478   C     0.79954   0.83017   0.34717   0.00000  Uiso   1.00
Cu479  Cu    0.77377   0.82772   0.24435   0.00000  Uiso   1.00
Cu480  Cu    0.89290   0.83895   0.25564   0.00000  Uiso   1.00
O481   O     0.77142   0.75245   0.24413   0.00000  Uiso   1.00
O482   O     0.87203   0.76193   0.25367   0.00000  Uiso   1.00
O483   O     0.80758   0.83092   0.17207   0.00000  Uiso   1.00
O484   O     0.90819   0.84040   0.18160   0.00000  Uiso   1.00
C485   C     0.81837   0.73341   0.24884   0.00000  Uiso   1.00
C486   C     0.86697   0.83764   0.15321   0.00000  Uiso   1.00
C487   C     0.96138   0.87754   0.02366   0.00000  Uiso   1.00
H488   H     0.98509   0.87300   0.09606   0.00000  Uiso   1.00
H489   H     0.96870   0.91403   0.43309   0.00000  Uiso   1.00
H490   H     0.67520   0.89724   0.00667   0.00000  Uiso   1.00
C491   C     0.88614   0.84395   0.09817   0.00000  Uiso   1.00
C492   C     0.71750   0.79348   0.42232   0.00000  Uiso   1.00
C493   C     0.70144   0.77835   0.47291   0.00000  Uiso   1.00
C494   C     0.74643   0.78884   0.00360   0.00000  Uiso   1.00
C495   C     0.80604   0.82308   0.48656   0.00000  Uiso   1.00
C496   C     0.82023   0.84195   0.43637   0.00000  Uiso   1.00
C497   C     0.85255   0.83953   0.01714   0.00000  Uiso   1.00
C498   C     0.91358   0.86701   0.49548   0.00000  Uiso   1.00
C499   C     0.92444   0.88798   0.44789   0.00000  Uiso   1.00
C500   C     0.87700   0.87877   0.42049   0.00000  Uiso   1.00
C501   C     0.83916   0.83388   0.06959   0.00000  Uiso   1.00
C502   C     0.94810   0.86413   0.07454   0.00000  Uiso   1.00
C503   C     0.77806   0.82342   0.40288   0.00000  Uiso   1.00
H504   H     0.79138   0.82567   0.08954   0.00000  Uiso   1.00
H505   H     0.88590   0.90084   0.38648   0.00000  Uiso   1.00
C506   C     0.85326   0.98869   0.26110   0.00000  Uiso   1.00
C507   C     0.81244   0.67769   0.24563   0.00000  Uiso   1.00
H508   H     0.77660   0.98824   0.22642   0.00000  Uiso   1.00
N509   N     0.98241   0.84741   0.26416   0.00000  Uiso   1.00
N510   N     0.68426   0.81926   0.23584   0.00000  Uiso   1.00
H511   H     0.99511   0.79116   0.21316   0.00000  Uiso   1.00
N512   N     0.67665   0.88812   0.29345   0.00000  Uiso   1.00
O513   O     0.68152   0.93591   0.28057   0.00000  Uiso   1.00
O514   O     0.67337   0.88033   0.34103   0.00000  Uiso   1.00
N515   N     0.67384   0.77303   0.38989   0.00000  Uiso   1.00
O516   O     0.68497   0.73584   0.35656   0.00000  Uiso   1.00
O517   O     0.95113   0.78223   0.40131   0.00000  Uiso   1.00
N518   N     0.73257   0.75931   0.04888   0.00000  Uiso   1.00
O519   O     0.76666   0.72646   0.05347   0.00000  Uiso   1.00
O520   O     0.68243   0.76110   0.08319   0.00000  Uiso   1.00
O521   O     0.97326   0.75548   0.49354   0.00000  Uiso   1.00
C522   C     0.96274   0.70032   0.48710   0.00000  Uiso   1.00
H523   H     0.99234   0.68379   0.00713   0.00000  Uiso   1.00
H524   H     0.97206   0.68799   0.44624   0.00000  Uiso   1.00
C525   C     0.89442   0.67764   0.00976   0.00000  Uiso   1.00
H526   H     0.86391   0.69069   0.48805   0.00000  Uiso   1.00
H527   H     0.88487   0.96754   0.00830   0.00000  Uiso   1.00
H528   H     0.88313   0.69121   0.05010   0.00000  Uiso   1.00
N529   N     0.89903   0.68386   0.28905   0.00000  Uiso   1.00
O530   O     0.95833   0.68788   0.27039   0.00000  Uiso   1.00
O531   O     0.88117   0.70361   0.33416   0.00000  Uiso   1.00
O532   O     0.12797   0.23807   0.74633   0.00000  Uiso   1.00
O533   O     0.22858   0.24755   0.75586   0.00000  Uiso   1.00
C534   C     0.18115   0.26656   0.75307   0.00000  Uiso   1.00
O535   O     0.09181   0.15960   0.81839   0.00000  Uiso   1.00
O536   O     0.19242   0.16908   0.82793   0.00000  Uiso   1.00
C537   C     0.13288   0.16350   0.84717   0.00000  Uiso   1.00
Cu538  Cu    0.10710   0.16105   0.74435   0.00000  Uiso   1.00
Cu539  Cu    0.22623   0.17228   0.75564   0.00000  Uiso   1.00
O540   O     0.10476   0.08578   0.74413   0.00000  Uiso   1.00
O541   O     0.20536   0.09526   0.75367   0.00000  Uiso   1.00
O542   O     0.14092   0.16425   0.67207   0.00000  Uiso   1.00
O543   O     0.24152   0.17373   0.68160   0.00000  Uiso   1.00
C544   C     0.15170   0.06674   0.74884   0.00000  Uiso   1.00
C545   C     0.20030   0.17098   0.65321   0.00000  Uiso   1.00
C546   C     0.29472   0.21088   0.52366   0.00000  Uiso   1.00
H547   H     0.31842   0.20633   0.59606   0.00000  Uiso   1.00
H548   H     0.30203   0.24736   0.93309   0.00000  Uiso   1.00
H549   H     0.00853   0.23057   0.50667   0.00000  Uiso   1.00
C550   C     0.21948   0.17728   0.59817   0.00000  Uiso   1.00
C551   C     0.05084   0.12681   0.92232   0.00000  Uiso   1.00
C552   C     0.03477   0.11168   0.97291   0.00000  Uiso   1.00
C553   C     0.07976   0.12217   0.50360   0.00000  Uiso   1.00
C554   C     0.13937   0.15641   0.98656   0.00000  Uiso   1.00
C555   C     0.15356   0.17528   0.93637   0.00000  Uiso   1.00
C556   C     0.18588   0.17286   0.51714   0.00000  Uiso   1.00
C557   C     0.24691   0.20034   0.99548   0.00000  Uiso   1.00
C558   C     0.25778   0.22131   0.94789   0.00000  Uiso   1.00
C559   C     0.21033   0.21210   0.92049   0.00000  Uiso   1.00
C560   C     0.17249   0.16721   0.56959   0.00000  Uiso   1.00
C561   C     0.28143   0.19746   0.57454   0.00000  Uiso   1.00
C562   C     0.11140   0.15675   0.90288   0.00000  Uiso   1.00
H563   H     0.12471   0.15900   0.58954   0.00000  Uiso   1.00
H564   H     0.21924   0.23418   0.88648   0.00000  Uiso   1.00
C565   C     0.18660   0.32202   0.76110   0.00000  Uiso   1.00
C566   C     0.14577   0.01102   0.74563   0.00000  Uiso   1.00
H567   H     0.10993   0.32158   0.72642   0.00000  Uiso   1.00
N568   N     0.31574   0.18074   0.76416   0.00000  Uiso   1.00
N569   N     0.01759   0.15259   0.73584   0.00000  Uiso   1.00
H570   H     0.32844   0.12449   0.71316   0.00000  Uiso   1.00
N571   N     0.00998   0.22146   0.79345   0.00000  Uiso   1.00
O572   O     0.01486   0.26924   0.78057   0.00000  Uiso   1.00
O573   O     0.00671   0.21367   0.84103   0.00000  Uiso   1.00
N574   N     0.00717   0.10636   0.88989   0.00000  Uiso   1.00
O575   O     0.01830   0.06918   0.85656   0.00000  Uiso   1.00
O576   O     0.28446   0.11557   0.90131   0.00000  Uiso   1.00
N577   N     0.06591   0.09264   0.54888   0.00000  Uiso   1.00
O578   O     0.10000   0.05980   0.55347   0.00000  Uiso   1.00
O579   O     0.01577   0.09443   0.58319   0.00000  Uiso   1.00
O580   O     0.30659   0.08881   0.99354   0.00000  Uiso   1.00
C581   C     0.29608   0.03365   0.98710   0.00000  Uiso   1.00
H582   H     0.32567   0.01712   0.50713   0.00000  Uiso   1.00
H583   H     0.30540   0.02132   0.94624   0.00000  Uiso   1.00
C584   C     0.22776   0.01097   0.50976   0.00000  Uiso   1.00
H585   H     0.19724   0.02403   0.98805   0.00000  Uiso   1.00
H586   H     0.21820   0.30087   0.50830   0.00000  Uiso   1.00
H587   H     0.21646   0.02454   0.55010   0.00000  Uiso   1.00
N588   N     0.23236   0.01719   0.78905   0.00000  Uiso   1.00
O589   O     0.29166   0.02121   0.77039   0.00000  Uiso   1.00
O590   O     0.21450   0.03694   0.83416   0.00000  Uiso   1.00
O591   O     0.46131   0.23807   0.74633   0.00000  Uiso   1.00
O592   O     0.56191   0.24755   0.75586   0.00000  Uiso   1.00
C593   C     0.51448   0.26656   0.75307   0.00000  Uiso   1.00
O594   O     0.42515   0.15960   0.81839   0.00000  Uiso   1.00
O595   O     0.52575   0.16908   0.82793   0.00000  Uiso   1.00
C596   C     0.46621   0.16350   0.84717   0.00000  Uiso   1.00
Cu597  Cu    0.44043   0.16105   0.74435   0.00000  Uiso   1.00
Cu598  Cu    0.55957   0.17228   0.75564   0.00000  Uiso   1.00
O599   O     0.43809   0.08578   0.74413   0.00000  Uiso   1.00
O600   O     0.53869   0.09526   0.75367   0.00000  Uiso   1.00
O601   O     0.47425   0.16425   0.67207   0.00000  Uiso   1.00
O602   O     0.57485   0.17373   0.68160   0.00000  Uiso   1.00
C603   C     0.48504   0.06674   0.74884   0.00000  Uiso   1.00
C604   C     0.53363   0.17098   0.65321   0.00000  Uiso   1.00
C605   C     0.62805   0.21088   0.52366   0.00000  Uiso   1.00
H606   H     0.65175   0.20633   0.59606   0.00000  Uiso   1.00
H607   H     0.63536   0.24736   0.93309   0.00000  Uiso   1.00
H608   H     0.34186   0.23057   0.50667   0.00000  Uiso   1.00
C609   C     0.55281   0.17728   0.59817   0.00000  Uiso   1.00
C610   C     0.38417   0.12681   0.92232   0.00000  Uiso   1.00
C611   C     0.36810   0.11168   0.97291   0.00000  Uiso   1.00
C612   C     0.41309   0.12217   0.50360   0.00000  Uiso   1.00
C613   C     0.47271   0.15641   0.98656   0.00000  Uiso   1.00
C614   C     0.48690   0.17528   0.93637   0.00000  Uiso   1.00
C615   C     0.51921   0.17286   0.51714   0.00000  Uiso   1.00
C616   C     0.58025   0.20034   0.99548   0.00000  Uiso   1.00
C617   C     0.59111   0.22131   0.94789   0.00000  Uiso   1.00
C618   C     0.54367   0.21210   0.92049   0.00000  Uiso   1.00
C619   C     0.50582   0.16721   0.56959   0.00000  Uiso   1.00
C620   C     0.61476   0.19746   0.57454   0.00000  Uiso   1.00
C621   C     0.44473   0.15675   0.90288   0.00000  Uiso   1.00
H622   H     0.45804   0.15900   0.58954   0.00000  Uiso   1.00
H623   H     0.55257   0.23418   0.88648   0.00000  Uiso   1.00
C624   C     0.51993   0.32202   0.76110   0.00000  Uiso   1.00
C625   C     0.47911   0.01102   0.74563   0.00000  Uiso   1.00
H626   H     0.44327   0.32158   0.72642   0.00000  Uiso   1.00
N627   N     0.64908   0.18074   0.76416   0.00000  Uiso   1.00
N628   N     0.35092   0.15259   0.73584   0.00000  Uiso   1.00
H629   H     0.66178   0.12449   0.71316   0.00000  Uiso   1.00
N630   N     0.34332   0.22146   0.79345   0.00000  Uiso   1.00
O631   O     0.34819   0.26924   0.78057   0.00000  Uiso   1.00
O632   O     0.34004   0.21367   0.84103   0.00000  Uiso   1.00
N633   N     0.34050   0.10636   0.88989   0.00000  Uiso   1.00
O634   O     0.35163   0.06918   0.85656   0.00000  Uiso   1.00
O635   O     0.61779   0.11557   0.90131   0.00000  Uiso   1.00
N636   N     0.39924   0.09264   0.54888   0.00000  Uiso   1.00
O637   O     0.43333   0.05980   0.55347   0.00000  Uiso   1.00
O638   O     0.34910   0.09443   0.58319   0.00000  Uiso   1.00
O639   O     0.63992   0.08881   0.99354   0.00000  Uiso   1.00
C640   C     0.62941   0.03365   0.98710   0.00000  Uiso   1.00
H641   H     0.65901   0.01712   0.50713   0.00000  Uiso   1.00
H642   H     0.63873   0.02132   0.94624   0.00000  Uiso   1.00
C643   C     0.56109   0.01097   0.50976   0.00000  Uiso   1.00
H644   H     0.53057   0.02403   0.98805   0.00000  Uiso   1.00
H645   H     0.55154   0.30087   0.50830   0.00000  Uiso   1.00
H646   H     0.54980   0.02454   0.55010   0.00000  Uiso   1.00
N647   N     0.56569   0.01719   0.78905   0.00000  Uiso   1.00
O648   O     0.62499   0.02121   0.77039   0.00000  Uiso   1.00
O649   O     0.54784   0.03694   0.83416   0.00000  Uiso   1.00
O650   O     0.79464   0.23807   0.74633   0.00000  Uiso   1.00
O651   O     0.89524   0.24755   0.75586   0.00000  Uiso   1.00
C652   C     0.84782   0.26656   0.75307   0.00000  Uiso   1.00
O653   O     0.75848   0.15960   0.81839   0.00000  Uiso   1.00
O654   O     0.85908   0.16908   0.82793   0.00000  Uiso   1.00
C655   C     0.79954   0.16350   0.84717   0.00000  Uiso   1.00
Cu656  Cu    0.77377   0.16105   0.74435   0.00000  Uiso   1.00
Cu657  Cu    0.89290   0.17228   0.75564   0.00000  Uiso   1.00
O658   O     0.77142   0.08578   0.74413   0.00000  Uiso   1.00
O659   O     0.87203   0.09526   0.75367   0.00000  Uiso   1.00
O660   O     0.80758   0.16425   0.67207   0.00000  Uiso   1.00
O661   O     0.90819   0.17373   0.68160   0.00000  Uiso   1.00
C662   C     0.81837   0.06674   0.74884   0.00000  Uiso   1.00
C663   C     0.86697   0.17098   0.65321   0.00000  Uiso   1.00
C664   C     0.96138   0.21088   0.52366   0.00000  Uiso   1.00
H665   H     0.98509   0.20633   0.59606   0.00000  Uiso   1.00
H666   H     0.96870   0.24736   0.93309   0.00000  Uiso   1.00
H667   H     0.67520   0.23057   0.50667   0.00000  Uiso   1.00
C668   C     0.88614   0.17728   0.59817   0.00000  Uiso   1.00
C669   C     0.71750   0.12681   0.92232   0.00000  Uiso   1.00
C670   C     0.70144   0.11168   0.97291   0.00000  Uiso   1.00
C671   C     0.74643   0.12217   0.50360   0.00000  Uiso   1.00
C672   C     0.80604   0.15641   0.98656   0.00000  Uiso   1.00
C673   C     0.82023   0.17528   0.93637   0.00000  Uiso   1.00
C674   C     0.85255   0.17286   0.51714   0.00000  Uiso   1.00
C675   C     0.91358   0.20034   0.99548   0.00000  Uiso   1.00
C676   C     0.92444   0.22131   0.94789   0.00000  Uiso   1.00
C677   C     0.87700   0.21210   0.92049   0.00000  Uiso   1.00
C678   C     0.83916   0.16721   0.56959   0.00000  Uiso   1.00
C679   C     0.94810   0.19746   0.57454   0.00000  Uiso   1.00
C680   C     0.77806   0.15675   0.90288   0.00000  Uiso   1.00
H681   H     0.79138   0.15900   0.58954   0.00000  Uiso   1.00
H682   H     0.88590   0.23418   0.88648   0.00000  Uiso   1.00
C683   C     0.85326   0.32202   0.76110   0.00000  Uiso   1.00
C684   C     0.81244   0.01102   0.74563   0.00000  Uiso   1.00
H685   H     0.77660   0.32158   0.72642   0.00000  Uiso   1.00
N686   N     0.98241   0.18074   0.76416   0.00000  Uiso   1.00
N687   N     0.68426   0.15259   0.73584   0.00000  Uiso   1.00
H688   H     0.99511   0.12449   0.71316   0.00000  Uiso   1.00
N689   N     0.67665   0.22146   0.79345   0.00000  Uiso   1.00
O690   O     0.68152   0.26924   0.78057   0.00000  Uiso   1.00
O691   O     0.67337   0.21367   0.84103   0.00000  Uiso   1.00
N692   N     0.67384   0.10636   0.88989   0.00000  Uiso   1.00
O693   O     0.68497   0.06918   0.85656   0.00000  Uiso   1.00
O694   O     0.95113   0.11557   0.90131   0.00000  Uiso   1.00
N695   N     0.73257   0.09264   0.54888   0.00000  Uiso   1.00
O696   O     0.76666   0.05980   0.55347   0.00000  Uiso   1.00
O697   O     0.68243   0.09443   0.58319   0.00000  Uiso   1.00
O698   O     0.97326   0.08881   0.99354   0.00000  Uiso   1.00
C699   C     0.96274   0.03365   0.98710   0.00000  Uiso   1.00
H700   H     0.99234   0.01712   0.50713   0.00000  Uiso   1.00
H701   H     0.97206   0.02132   0.94624   0.00000  Uiso   1.00
C702   C     0.89442   0.01097   0.50976   0.00000  Uiso   1.00
H703   H     0.86391   0.02403   0.98805   0.00000  Uiso   1.00
H704   H     0.88487   0.30087   0.50830   0.00000  Uiso   1.00
H705   H     0.88313   0.02454   0.55010   0.00000  Uiso   1.00
N706   N     0.89903   0.01719   0.78905   0.00000  Uiso   1.00
O707   O     0.95833   0.02121   0.77039   0.00000  Uiso   1.00
O708   O     0.88117   0.03694   0.83416   0.00000  Uiso   1.00
O709   O     0.12797   0.57141   0.74633   0.00000  Uiso   1.00
O710   O     0.22858   0.58089   0.75586   0.00000  Uiso   1.00
C711   C     0.18115   0.59989   0.75307   0.00000  Uiso   1.00
O712   O     0.09181   0.49293   0.81839   0.00000  Uiso   1.00
O713   O     0.19242   0.50241   0.82793   0.00000  Uiso   1.00
C714   C     0.13288   0.49684   0.84717   0.00000  Uiso   1.00
Cu715  Cu    0.10710   0.49439   0.74435   0.00000  Uiso   1.00
Cu716  Cu    0.22623   0.50561   0.75564   0.00000  Uiso   1.00
O717   O     0.10476   0.41911   0.74413   0.00000  Uiso   1.00
O718   O     0.20536   0.42859   0.75367   0.00000  Uiso   1.00
O719   O     0.14092   0.49759   0.67207   0.00000  Uiso   1.00
O720   O     0.24152   0.50707   0.68160   0.00000  Uiso   1.00
C721   C     0.15170   0.40007   0.74884   0.00000  Uiso   1.00
C722   C     0.20030   0.50431   0.65321   0.00000  Uiso   1.00
C723   C     0.29472   0.54421   0.52366   0.00000  Uiso   1.00
H724   H     0.31842   0.53967   0.59606   0.00000  Uiso   1.00
H725   H     0.30203   0.58070   0.93309   0.00000  Uiso   1.00
H726   H     0.00853   0.56391   0.50667   0.00000  Uiso   1.00
C727   C     0.21948   0.51062   0.59817   0.00000  Uiso   1.00
C728   C     0.05084   0.46015   0.92232   0.00000  Uiso   1.00
C729   C     0.03477   0.44502   0.97291   0.00000  Uiso   1.00
C730   C     0.07976   0.45550   0.50360   0.00000  Uiso   1.00
C731   C     0.13937   0.48975   0.98656   0.00000  Uiso   1.00
C732   C     0.15356   0.50862   0.93637   0.00000  Uiso   1.00
C733   C     0.18588   0.50620   0.51714   0.00000  Uiso   1.00
C734   C     0.24691   0.53367   0.99548   0.00000  Uiso   1.00
C735   C     0.25778   0.55465   0.94789   0.00000  Uiso   1.00
C736   C     0.21033   0.54543   0.92049   0.00000  Uiso   1.00
C737   C     0.17249   0.50054   0.56959   0.00000  Uiso   1.00
C738   C     0.28143   0.53079   0.57454   0.00000  Uiso   1.00
C739   C     0.11140   0.49008   0.90288   0.00000  Uiso   1.00
H740   H     0.12471   0.49234   0.58954   0.00000  Uiso   1.00
H741   H     0.21924   0.56751   0.88648   0.00000  Uiso   1.00
C742   C     0.18660   0.65536   0.76110   0.00000  Uiso   1.00
C743   C     0.14577   0.34435   0.74563   0.00000  Uiso   1.00
H744   H     0.10993   0.65491   0.72642   0.00000  Uiso   1.00
N745   N     0.31574   0.51407   0.76416   0.00000  Uiso   1.00
N746   N     0.01759   0.48593   0.73584   0.00000  Uiso   1.00
H747   H     0.32844   0.45782   0.71316   0.00000  Uiso   1.00
N748   N     0.00998   0.55479   0.79345   0.00000  Uiso   1.00
O749   O     0.01486   0.60258   0.78057   0.00000  Uiso   1.00
O750   O     0.00671   0.54700   0.84103   0.00000  Uiso   1.00
N751   N     0.00717   0.43970   0.88989   0.00000  Uiso   1.00
O752   O     0.01830   0.40251   0.85656   0.00000  Uiso   1.00
O753   O     0.28446   0.44890   0.90131   0.00000  Uiso   1.00
N754   N     0.06591   0.42598   0.54888   0.00000  Uiso   1.00
O755   O     0.10000   0.39313   0.55347   0.00000  Uiso   1.00
O756   O     0.01577   0.42776   0.58319   0.00000  Uiso   1.00
O757   O     0.30659   0.42215   0.99354   0.00000  Uiso   1.00
C758   C     0.29608   0.36699   0.98710   0.00000  Uiso   1.00
H759   H     0.32567   0.35046   0.50713   0.00000  Uiso   1.00
H760   H     0.30540   0.35465   0.94624   0.00000  Uiso   1.00
C761   C     0.22776   0.34430   0.50976   0.00000  Uiso   1.00
H762   H     0.19724   0.35736   0.98805   0.00000  Uiso   1.00
H763   H     0.21820   0.63421   0.50830   0.00000  Uiso   1.00
H764   H     0.21646   0.35788   0.55010   0.00000  Uiso   1.00
N765   N     0.23236   0.35053   0.78905   0.00000  Uiso   1.00
O766   O     0.29166   0.35454   0.77039   0.00000  Uiso   1.00
O767   O     0.21450   0.37028   0.83416   0.00000  Uiso   1.00
O768   O     0.46131   0.57141   0.74633   0.00000  Uiso   1.00
O769   O     0.56191   0.58089   0.75586   0.00000  Uiso   1.00
C770   C     0.51448   0.59989   0.75307   0.00000  Uiso   1.00
O771   O     0.42515   0.49293   0.81839   0.00000  Uiso   1.00
O772   O     0.52575   0.50241   0.82793   0.00000  Uiso   1.00
C773   C     0.46621   0.49684   0.84717   0.00000  Uiso   1.00
Cu774  Cu    0.44043   0.49439   0.74435   0.00000  Uiso   1.00
Cu775  Cu    0.55957   0.50561   0.75564   0.00000  Uiso   1.00
O776   O     0.43809   0.41911   0.74413   0.00000  Uiso   1.00
O777   O     0.53869   0.42859   0.75367   0.00000  Uiso   1.00
O778   O     0.47425   0.49759   0.67207   0.00000  Uiso   1.00
O779   O     0.57485   0.50707   0.68160   0.00000  Uiso   1.00
C780   C     0.48504   0.40007   0.74884   0.00000  Uiso   1.00
C781   C     0.53363   0.50431   0.65321   0.00000  Uiso   1.00
C782   C     0.62805   0.54421   0.52366   0.00000  Uiso   1.00
H783   H     0.65175   0.53967   0.59606   0.00000  Uiso   1.00
H784   H     0.63536   0.58070   0.93309   0.00000  Uiso   1.00
H785   H     0.34186   0.56391   0.50667   0.00000  Uiso   1.00
C786   C     0.55281   0.51062   0.59817   0.00000  Uiso   1.00
C787   C     0.38417   0.46015   0.92232   0.00000  Uiso   1.00
C788   C     0.36810   0.44502   0.97291   0.00000  Uiso   1.00
C789   C     0.41309   0.45550   0.50360   0.00000  Uiso   1.00
C790   C     0.47271   0.48975   0.98656   0.00000  Uiso   1.00
C791   C     0.48690   0.50862   0.93637   0.00000  Uiso   1.00
C792   C     0.51921   0.50620   0.51714   0.00000  Uiso   1.00
C793   C     0.58025   0.53367   0.99548   0.00000  Uiso   1.00
C794   C     0.59111   0.55465   0.94789   0.00000  Uiso   1.00
C795   C     0.54367   0.54543   0.92049   0.00000  Uiso   1.00
C796   C     0.50582   0.50054   0.56959   0.00000  Uiso   1.00
C797   C     0.61476   0.53079   0.57454   0.00000  Uiso   1.00
C798   C     0.44473   0.49008   0.90288   0.00000  Uiso   1.00
H799   H     0.45804   0.49234   0.58954   0.00000  Uiso   1.00
H800   H     0.55257   0.56751   0.88648   0.00000  Uiso   1.00
C801   C     0.51993   0.65536   0.76110   0.00000  Uiso   1.00
C802   C     0.47911   0.34435   0.74563   0.00000  Uiso   1.00
H803   H     0.44327   0.65491   0.72642   0.00000  Uiso   1.00
N804   N     0.64908   0.51407   0.76416   0.00000  Uiso   1.00
N805   N     0.35092   0.48593   0.73584   0.00000  Uiso   1.00
H806   H     0.66178   0.45782   0.71316   0.00000  Uiso   1.00
N807   N     0.34332   0.55479   0.79345   0.00000  Uiso   1.00
O808   O     0.34819   0.60258   0.78057   0.00000  Uiso   1.00
O809   O     0.34004   0.54700   0.84103   0.00000  Uiso   1.00
N810   N     0.34050   0.43970   0.88989   0.00000  Uiso   1.00
O811   O     0.35163   0.40251   0.85656   0.00000  Uiso   1.00
O812   O     0.61779   0.44890   0.90131   0.00000  Uiso   1.00
N813   N     0.39924   0.42598   0.54888   0.00000  Uiso   1.00
O814   O     0.43333   0.39313   0.55347   0.00000  Uiso   1.00
O815   O     0.34910   0.42776   0.58319   0.00000  Uiso   1.00
O816   O     0.63992   0.42215   0.99354   0.00000  Uiso   1.00
C817   C     0.62941   0.36699   0.98710   0.00000  Uiso   1.00
H818   H     0.65901   0.35046   0.50713   0.00000  Uiso   1.00
H819   H     0.63873   0.35465   0.94624   0.00000  Uiso   1.00
C820   C     0.56109   0.34430   0.50976   0.00000  Uiso   1.00
H821   H     0.53057   0.35736   0.98805   0.00000  Uiso   1.00
H822   H     0.55154   0.63421   0.50830   0.00000  Uiso   1.00
H823   H     0.54980   0.35788   0.55010   0.00000  Uiso   1.00
N824   N     0.56569   0.35053   0.78905   0.00000  Uiso   1.00
O825   O     0.62499   0.35454   0.77039   0.00000  Uiso   1.00
O826   O     0.54784   0.37028   0.83416   0.00000  Uiso   1.00
O827   O     0.79464   0.57141   0.74633   0.00000  Uiso   1.00
O828   O     0.89524   0.58089   0.75586   0.00000  Uiso   1.00
C829   C     0.84782   0.59989   0.75307   0.00000  Uiso   1.00
O830   O     0.75848   0.49293   0.81839   0.00000  Uiso   1.00
O831   O     0.85908   0.50241   0.82793   0.00000  Uiso   1.00
C832   C     0.79954   0.49684   0.84717   0.00000  Uiso   1.00
Cu833  Cu    0.77377   0.49439   0.74435   0.00000  Uiso   1.00
Cu834  Cu    0.89290   0.50561   0.75564   0.00000  Uiso   1.00
O835   O     0.77142   0.41911   0.74413   0.00000  Uiso   1.00
O836   O     0.87203   0.42859   0.75367   0.00000  Uiso   1.00
O837   O     0.80758   0.49759   0.67207   0.00000  Uiso   1.00
O838   O     0.90819   0.50707   0.68160   0.00000  Uiso   1.00
C839   C     0.81837   0.40007   0.74884   0.00000  Uiso   1.00
C840   C     0.86697   0.50431   0.65321   0.00000  Uiso   1.00
C841   C     0.96138   0.54421   0.52366   0.00000  Uiso   1.00
H842   H     0.98509   0.53967   0.59606   0.00000  Uiso   1.00
H843   H     0.96870   0.58070   0.93309   0.00000  Uiso   1.00
H844   H     0.67520   0.56391   0.50667   0.00000  Uiso   1.00
C845   C     0.88614   0.51062   0.59817   0.00000  Uiso   1.00
C846   C     0.71750   0.46015   0.92232   0.00000  Uiso   1.00
C847   C     0.70144   0.44502   0.97291   0.00000  Uiso   1.00
C848   C     0.74643   0.45550   0.50360   0.00000  Uiso   1.00
C849   C     0.80604   0.48975   0.98656   0.00000  Uiso   1.00
C850   C     0.82023   0.50862   0.93637   0.00000  Uiso   1.00
C851   C     0.85255   0.50620   0.51714   0.00000  Uiso   1.00
C852   C     0.91358   0.53367   0.99548   0.00000  Uiso   1.00
C853   C     0.92444   0.55465   0.94789   0.00000  Uiso   1.00
C854   C     0.87700   0.54543   0.92049   0.00000  Uiso   1.00
C855   C     0.83916   0.50054   0.56959   0.00000  Uiso   1.00
C856   C     0.94810   0.53079   0.57454   0.00000  Uiso   1.00
C857   C     0.77806   0.49008   0.90288   0.00000  Uiso   1.00
H858   H     0.79138   0.49234   0.58954   0.00000  Uiso   1.00
H859   H     0.88590   0.56751   0.88648   0.00000  Uiso   1.00
C860   C     0.85326   0.65536   0.76110   0.00000  Uiso   1.00
C861   C     0.81244   0.34435   0.74563   0.00000  Uiso   1.00
H862   H     0.77660   0.65491   0.72642   0.00000  Uiso   1.00
N863   N     0.98241   0.51407   0.76416   0.00000  Uiso   1.00
N864   N     0.68426   0.48593   0.73584   0.00000  Uiso   1.00
H865   H     0.99511   0.45782   0.71316   0.00000  Uiso   1.00
N866   N     0.67665   0.55479   0.79345   0.00000  Uiso   1.00
O867   O     0.68152   0.60258   0.78057   0.00000  Uiso   1.00
O868   O     0.67337   0.54700   0.84103   0.00000  Uiso   1.00
N869   N     0.67384   0.43970   0.88989   0.00000  Uiso   1.00
O870   O     0.68497   0.40251   0.85656   0.00000  Uiso   1.00
O871   O     0.95113   0.44890   0.90131   0.00000  Uiso   1.00
N872   N     0.73257   0.42598   0.54888   0.00000  Uiso   1.00
O873   O     0.76666   0.39313   0.55347   0.00000  Uiso   1.00
O874   O     0.68243   0.42776   0.58319   0.00000  Uiso   1.00
O875   O     0.97326   0.42215   0.99354   0.00000  Uiso   1.00
C876   C     0.96274   0.36699   0.98710   0.00000  Uiso   1.00
H877   H     0.99234   0.35046   0.50713   0.00000  Uiso   1.00
H878   H     0.97206   0.35465   0.94624   0.00000  Uiso   1.00
C879   C     0.89442   0.34430   0.50976   0.00000  Uiso   1.00
H880   H     0.86391   0.35736   0.98805   0.00000  Uiso   1.00
H881   H     0.88487   0.63421   0.50830   0.00000  Uiso   1.00
H882   H     0.88313   0.35788   0.55010   0.00000  Uiso   1.00
N883   N     0.89903   0.35053   0.78905   0.00000  Uiso   1.00
O884   O     0.95833   0.35454   0.77039   0.00000  Uiso   1.00
O885   O     0.88117   0.37028   0.83416   0.00000  Uiso   1.00
O886   O     0.12797   0.90474   0.74633   0.00000  Uiso   1.00
O887   O     0.22858   0.91422   0.75586   0.00000  Uiso   1.00
C888   C     0.18115   0.93323   0.75307   0.00000  Uiso   1.00
O889   O     0.09181   0.82627   0.81839   0.00000  Uiso   1.00
O890   O     0.19242   0.83575   0.82793   0.00000  Uiso   1.00
C891   C     0.13288   0.83017   0.84717   0.00000  Uiso   1.00
Cu892  Cu    0.10710   0.82772   0.74435   0.00000  Uiso   1.00
Cu893  Cu    0.22623   0.83895   0.75564   0.00000  Uiso   1.00
O894   O     0.10476   0.75245   0.74413   0.00000  Uiso   1.00
O895   O     0.20536   0.76193   0.75367   0.00000  Uiso   1.00
O896   O     0.14092   0.83092   0.67207   0.00000  Uiso   1.00
O897   O     0.24152   0.84040   0.68160   0.00000  Uiso   1.00
C898   C     0.15170   0.73341   0.74884   0.00000  Uiso   1.00
C899   C     0.20030   0.83764   0.65321   0.00000  Uiso   1.00
C900   C     0.29472   0.87754   0.52366   0.00000  Uiso   1.00
H901   H     0.31842   0.87300   0.59606   0.00000  Uiso   1.00
H902   H     0.30203   0.91403   0.93309   0.00000  Uiso   1.00
H903   H     0.00853   0.89724   0.50667   0.00000  Uiso   1.00
C904   C     0.21948   0.84395   0.59817   0.00000  Uiso   1.00
C905   C     0.05084   0.79348   0.92232   0.00000  Uiso   1.00
C906   C     0.03477   0.77835   0.97291   0.00000  Uiso   1.00
C907   C     0.07976   0.78884   0.50360   0.00000  Uiso   1.00
C908   C     0.13937   0.82308   0.98656   0.00000  Uiso   1.00
C909   C     0.15356   0.84195   0.93637   0.00000  Uiso   1.00
C910   C     0.18588   0.83953   0.51714   0.00000  Uiso   1.00
C911   C     0.24691   0.86701   0.99548   0.00000  Uiso   1.00
C912   C     0.25778   0.88798   0.94789   0.00000  Uiso   1.00
C913   C     0.21033   0.87877   0.92049   0.00000  Uiso   1.00
C914   C     0.17249   0.83388   0.56959   0.00000  Uiso   1.00
C915   C     0.28143   0.86413   0.57454   0.00000  Uiso   1.00
C916   C     0.11140   0.82342   0.90288   0.00000  Uiso   1.00
H917   H     0.12471   0.82567   0.58954   0.00000  Uiso   1.00
H918   H     0.21924   0.90084   0.88648   0.00000  Uiso   1.00
C919   C     0.18660   0.98869   0.76110   0.00000  Uiso   1.00
C920   C     0.14577   0.67769   0.74563   0.00000  Uiso   1.00
H921   H     0.10993   0.98824   0.72642   0.00000  Uiso   1.00
N922   N     0.31574   0.84741   0.76416   0.00000  Uiso   1.00
N923   N     0.01759   0.81926   0.73584   0.00000  Uiso   1.00
H924   H     0.32844   0.79116   0.71316   0.00000  Uiso   1.00
N925   N     0.00998   0.88812   0.79345   0.00000  Uiso   1.00
O926   O     0.01486   0.93591   0.78057   0.00000  Uiso   1.00
O927   O     0.00671   0.88033   0.84103   0.00000  Uiso   1.00
N928   N     0.00717   0.77303   0.88989   0.00000  Uiso   1.00
O929   O     0.01830   0.73584   0.85656   0.00000  Uiso   1.00
O930   O     0.28446   0.78223   0.90131   0.00000  Uiso   1.00
N931   N     0.06591   0.75931   0.54888   0.00000  Uiso   1.00
O932   O     0.10000   0.72646   0.55347   0.00000  Uiso   1.00
O933   O     0.01577   0.76110   0.58319   0.00000  Uiso   1.00
O934   O     0.30659   0.75548   0.99354   0.00000  Uiso   1.00
C935   C     0.29608   0.70032   0.98710   0.00000  Uiso   1.00
H936   H     0.32567   0.68379   0.50713   0.00000  Uiso   1.00
H937   H     0.30540   0.68799   0.94624   0.00000  Uiso   1.00
C938   C     0.22776   0.67764   0.50976   0.00000  Uiso   1.00
H939   H     0.19724   0.69069   0.98805   0.00000  Uiso   1.00
H940   H     0.21820   0.96754   0.50830   0.00000  Uiso   1.00
H941   H     0.21646   0.69121   0.55010   0.00000  Uiso   1.00
N942   N     0.23236   0.68386   0.78905   0.00000  Uiso   1.00
O943   O     0.29166   0.68788   0.77039   0.00000  Uiso   1.00
O944   O     0.21450   0.70361   0.83416   0.00000  Uiso   1.00
O945   O     0.46131   0.90474   0.74633   0.00000  Uiso   1.00
O946   O     0.56191   0.91422   0.75586   0.00000  Uiso   1.00
C947   C     0.51448   0.93323   0.75307   0.00000  Uiso   1.00
O948   O     0.42515   0.82627   0.81839   0.00000  Uiso   1.00
O949   O     0.52575   0.83575   0.82793   0.00000  Uiso   1.00
C950   C     0.46621   0.83017   0.84717   0.00000  Uiso   1.00
Cu951  Cu    0.44043   0.82772   0.74435   0.00000  Uiso   1.00
Cu952  Cu    0.55957   0.83895   0.75564   0.00000  Uiso   1.00
O953   O     0.43809   0.75245   0.74413   0.00000  Uiso   1.00
O954   O     0.53869   0.76193   0.75367   0.00000  Uiso   1.00
O955   O     0.47425   0.83092   0.67207   0.00000  Uiso   1.00
O956   O     0.57485   0.84040   0.68160   0.00000  Uiso   1.00
C957   C     0.48504   0.73341   0.74884   0.00000  Uiso   1.00
C958   C     0.53363   0.83764   0.65321   0.00000  Uiso   1.00
C959   C     0.62805   0.87754   0.52366   0.00000  Uiso   1.00
H960   H     0.65175   0.87300   0.59606   0.00000  Uiso   1.00
H961   H     0.63536   0.91403   0.93309   0.00000  Uiso   1.00
H962   H     0.34186   0.89724   0.50667   0.00000  Uiso   1.00
C963   C     0.55281   0.84395   0.59817   0.00000  Uiso   1.00
C964   C     0.38417   0.79348   0.92232   0.00000  Uiso   1.00
C965   C     0.36810   0.77835   0.97291   0.00000  Uiso   1.00
C966   C     0.41309   0.78884   0.50360   0.00000  Uiso   1.00
C967   C     0.47271   0.82308   0.98656   0.00000  Uiso   1.00
C968   C     0.48690   0.84195   0.93637   0.00000  Uiso   1.00
C969   C     0.51921   0.83953   0.51714   0.00000  Uiso   1.00
C970   C     0.58025   0.86701   0.99548   0.00000  Uiso   1.00
C971   C     0.59111   0.88798   0.94789   0.00000  Uiso   1.00
C972   C     0.54367   0.87877   0.92049   0.00000  Uiso   1.00
C973   C     0.50582   0.83388   0.56959   0.00000  Uiso   1.00
C974   C     0.61476   0.86413   0.57454   0.00000  Uiso   1.00
C975   C     0.44473   0.82342   0.90288   0.00000  Uiso   1.00
H976   H     0.45804   0.82567   0.58954   0.00000  Uiso   1.00
H977   H     0.55257   0.90084   0.88648   0.00000  Uiso   1.00
C978   C     0.51993   0.98869   0.76110   0.00000  Uiso   1.00
C979   C     0.47911   0.67769   0.74563   0.00000  Uiso   1.00
H980   H     0.44327   0.98824   0.72642   0.00000  Uiso   1.00
N981   N     0.64908   0.84741   0.76416   0.00000  Uiso   1.00
N982   N     0.35092   0.81926   0.73584   0.00000  Uiso   1.00
H983   H     0.66178   0.79116   0.71316   0.00000  Uiso   1.00
N984   N     0.34332   0.88812   0.79345   0.00000  Uiso   1.00
O985   O     0.34819   0.93591   0.78057   0.00000  Uiso   1.00
O986   O     0.34004   0.88033   0.84103   0.00000  Uiso   1.00
N987   N     0.34050   0.77303   0.88989   0.00000  Uiso   1.00
O988   O     0.35163   0.73584   0.85656   0.00000  Uiso   1.00
O989   O     0.61779   0.78223   0.90131   0.00000  Uiso   1.00
N990   N     0.39924   0.75931   0.54888   0.00000  Uiso   1.00
O991   O     0.43333   0.72646   0.55347   0.00000  Uiso   1.00
O992   O     0.34910   0.76110   0.58319   0.00000  Uiso   1.00
O993   O     0.63992   0.75548   0.99354   0.00000  Uiso   1.00
C994   C     0.62941   0.70032   0.98710   0.00000  Uiso   1.00
H995   H     0.65901   0.68379   0.50713   0.00000  Uiso   1.00
H996   H     0.63873   0.68799   0.94624   0.00000  Uiso   1.00
C997   C     0.56109   0.67764   0.50976   0.00000  Uiso   1.00
H998   H     0.53057   0.69069   0.98805   0.00000  Uiso   1.00
H999   H     0.55154   0.96754   0.50830   0.00000  Uiso   1.00
H1000  H     0.54980   0.69121   0.55010   0.00000  Uiso   1.00
N1001  N     0.56569   0.68386   0.78905   0.00000  Uiso   1.00
O1002  O     0.62499   0.68788   0.77039   0.00000  Uiso   1.00
O1003  O     0.54784   0.70361   0.83416   0.00000  Uiso   1.00
O1004  O     0.79464   0.90474   0.74633   0.00000  Uiso   1.00
O1005  O     0.89524   0.91422   0.75586   0.00000  Uiso   1.00
C1006  C     0.84782   0.93323   0.75307   0.00000  Uiso   1.00
O1007  O     0.75848   0.82627   0.81839   0.00000  Uiso   1.00
O1008  O     0.85908   0.83575   0.82793   0.00000  Uiso   1.00
C1009  C     0.79954   0.83017   0.84717   0.00000  Uiso   1.00
Cu1010 Cu    0.77377   0.82772   0.74435   0.00000  Uiso   1.00
Cu1011 Cu    0.89290   0.83895   0.75564   0.00000  Uiso   1.00
O1012  O     0.77142   0.75245   0.74413   0.00000  Uiso   1.00
O1013  O     0.87203   0.76193   0.75367   0.00000  Uiso   1.00
O1014  O     0.80758   0.83092   0.67207   0.00000  Uiso   1.00
O1015  O     0.90819   0.84040   0.68160   0.00000  Uiso   1.00
C1016  C     0.81837   0.73341   0.74884   0.00000  Uiso   1.00
C1017  C     0.86697   0.83764   0.65321   0.00000  Uiso   1.00
C1018  C     0.96138   0.87754   0.52366   0.00000  Uiso   1.00
H1019  H     0.98509   0.87300   0.59606   0.00000  Uiso   1.00
H1020  H     0.96870   0.91403   0.93309   0.00000  Uiso   1.00
H1021  H     0.67520   0.89724   0.50667   0.00000  Uiso   1.00
C1022  C     0.88614   0.84395   0.59817   0.00000  Uiso   1.00
C1023  C     0.71750   0.79348   0.92232   0.00000  Uiso   1.00
C1024  C     0.70144   0.77835   0.97291   0.00000  Uiso   1.00
C1025  C     0.74643   0.78884   0.50360   0.00000  Uiso   1.00
C1026  C     0.80604   0.82308   0.98656   0.00000  Uiso   1.00
C1027  C     0.82023   0.84195   0.93637   0.00000  Uiso   1.00
C1028  C     0.85255   0.83953   0.51714   0.00000  Uiso   1.00
C1029  C     0.91358   0.86701   0.99548   0.00000  Uiso   1.00
C1030  C     0.92444   0.88798   0.94789   0.00000  Uiso   1.00
C1031  C     0.87700   0.87877   0.92049   0.00000  Uiso   1.00
C1032  C     0.83916   0.83388   0.56959   0.00000  Uiso   1.00
C1033  C     0.94810   0.86413   0.57454   0.00000  Uiso   1.00
C1034  C     0.77806   0.82342   0.90288   0.00000  Uiso   1.00
H1035  H     0.79138   0.82567   0.58954   0.00000  Uiso   1.00
H1036  H     0.88590   0.90084   0.88648   0.00000  Uiso   1.00
C1037  C     0.85326   0.98869   0.76110   0.00000  Uiso   1.00
C1038  C     0.81244   0.67769   0.74563   0.00000  Uiso   1.00
H1039  H     0.77660   0.98824   0.72642   0.00000  Uiso   1.00
N1040  N     0.98241   0.84741   0.76416   0.00000  Uiso   1.00
N1041  N     0.68426   0.81926   0.73584   0.00000  Uiso   1.00
H1042  H     0.99511   0.79116   0.71316   0.00000  Uiso   1.00
N1043  N     0.67665   0.88812   0.79345   0.00000  Uiso   1.00
O1044  O     0.68152   0.93591   0.78057   0.00000  Uiso   1.00
O1045  O     0.67337   0.88033   0.84103   0.00000  Uiso   1.00
N1046  N     0.67384   0.77303   0.88989   0.00000  Uiso   1.00
O1047  O     0.68497   0.73584   0.85656   0.00000  Uiso   1.00
O1048  O     0.95113   0.78223   0.90131   0.00000  Uiso   1.00
N1049  N     0.73257   0.75931   0.54888   0.00000  Uiso   1.00
O1050  O     0.76666   0.72646   0.55347   0.00000  Uiso   1.00
O1051  O     0.68243   0.76110   0.58319   0.00000  Uiso   1.00
O1052  O     0.97326   0.75548   0.99354   0.00000  Uiso   1.00
C1053  C     0.96274   0.70032   0.98710   0.00000  Uiso   1.00
H1054  H     0.99234   0.68379   0.50713   0.00000  Uiso   1.00
H1055  H     0.97206   0.68799   0.94624   0.00000  Uiso   1.00
C1056  C     0.89442   0.67764   0.50976   0.00000  Uiso   1.00
H1057  H     0.86391   0.69069   0.98805   0.00000  Uiso   1.00
H1058  H     0.88487   0.96754   0.50830   0.00000  Uiso   1.00
H1059  H     0.88313   0.69121   0.55010   0.00000  Uiso   1.00
N1060  N     0.89903   0.68386   0.78905   0.00000  Uiso   1.00
O1061  O     0.95833   0.68788   0.77039   0.00000  Uiso   1.00
O1062  O     0.88117   0.70361   0.83416   0.00000  Uiso   1.00
loop_
_geom_bond_atom_site_label_1
_geom_bond_atom_site_label_2
_geom_bond_distance
_geom_bond_site_symmetry_2
_ccdc_geom_bond_type
O1     Cu7     1.961   .     S
O1     C3      1.294   .     A
O2     C3      1.290   .     A
O2     Cu8     1.957   .     S
C3     C34     1.431   .     S
O4     Cu7     1.953   .     S
O4     C6      1.306   .     A
O5     C6      1.304   .     A
O5     Cu8     1.935   .     S
C6     C31     1.487   .     S
Cu7    Cu8     2.698   .     S
Cu7    O11     1.935   .     S
Cu7    N38     2.027   .     S
Cu7    O9      1.957   .     S
Cu8    O12     1.953   .     S
Cu8    O10     1.961   .     S
Cu8    N37     2.027   .     S
O9     C13     1.295   .     A
O10    C13     1.289   .     A
O11    C14     1.296   .     A
O12    C14     1.306   .     A
C13    C35     1.430   .     S
C14    C19     1.465   .     S
C15    C30     1.395   .     A
C15    H77     1.084   .     S
C15    C557    1.407   1_554 S
H16    C30     1.083   .     S
H17    C27     1.083   .     S
H18    C133    1.084   1_455 S
C19    C30     1.398   .     A
C19    C29     1.399   .     A
C20    N43     1.435   .     S
C20    C21     1.398   .     A
C20    C31     1.417   .     A
C21    C553    1.403   .     S
C21    O167    1.385   1_455 S
C22    N46     1.435   .     S
C22    C552    1.403   1_554 S
C22    C554    1.434   1_554 S
C23    C24     1.423   .     A
C23    C553    1.434   .     S
C23    C556    1.434   .     S
C24    C31     1.424   .     A
C24    C28     1.416   .     A
C25    C29     1.393   .     A
C25    C554    1.434   1_554 S
C25    C557    1.417   1_554 S
C26    C27     1.386   .     A
C26    C556    1.417   .     S
C26    C546    1.407   .     S
C27    C28     1.386   .     A
C28    H33     1.080   .     S
C29    H32     1.073   .     S
C34    C212    1.340   .     S
C34    N234    1.437   .     S
C35    C388    1.340   1_545 S
C35    H390    1.086   1_545 S
H36    C212    1.086   .     S
N37    N97     1.291   .     S
N37    N99     1.384   .     S
N38    N155    1.291   1_455 S
N38    H157    1.029   1_455 S
H39    N97     1.029   .     S
N40    O41     1.298   .     A
N40    O42     1.298   .     A
N40    N155    1.384   1_455 S
N43    O44     1.301   .     A
N43    O163    1.301   1_455 S
O45    N102    1.301   .     S
N46    O48     1.302   .     A
N46    O47     1.301   .     A
O49    C50     1.411   .     S
O49    C80     1.385   .     S
C50    H52     1.112   .     S
C50    H582    1.112   .     S
C50    C584    1.522   .     S
H51    C581    1.112   1_554 S
C53    H56     1.111   .     S
C53    C581    1.522   1_554 S
C53    H585    1.111   1_554 S
C53    H409    1.106   1_545 S
H54    C584    1.111   .     S
H55    C230    1.106   .     S
N57    O58     1.300   .     A
N57    O59     1.301   .     A
N57    C388    1.437   1_545 S
O60    Cu66    1.961   .     S
O60    C62     1.294   .     A
O61    C62     1.290   .     A
O61    Cu67    1.957   .     S
C62    C93     1.431   .     S
O63    Cu66    1.953   .     S
O63    C65     1.306   .     A
O64    C65     1.304   .     A
O64    Cu67    1.935   .     S
C65    C90     1.487   .     S
Cu66   Cu67    2.698   .     S
Cu66   O70     1.935   .     S
Cu66   N97     2.027   .     S
Cu66   O68     1.957   .     S
Cu67   O71     1.953   .     S
Cu67   O69     1.961   .     S
Cu67   N96     2.027   .     S
O68    C72     1.295   .     A
O69    C72     1.289   .     A
O70    C73     1.296   .     A
O71    C73     1.306   .     A
C72    C94     1.430   .     S
C73    C78     1.465   .     S
C74    C89     1.395   .     A
C74    H136    1.084   .     S
C74    C616    1.407   1_554 S
H75    C89     1.083   .     S
H76    C86     1.083   .     S
C78    C89     1.398   .     A
C78    C88     1.399   .     A
C79    N102    1.435   .     S
C79    C80     1.398   .     A
C79    C90     1.417   .     A
C80    C612    1.403   .     S
C81    N105    1.435   .     S
C81    C611    1.403   1_554 S
C81    C613    1.434   1_554 S
C82    C83     1.423   .     A
C82    C612    1.434   .     S
C82    C615    1.434   .     S
C83    C90     1.424   .     A
C83    C87     1.416   .     A
C84    C88     1.393   .     A
C84    C613    1.434   1_554 S
C84    C616    1.417   1_554 S
C85    C86     1.386   .     A
C85    C615    1.417   .     S
C85    C605    1.407   .     S
C86    C87     1.386   .     A
C87    H92     1.080   .     S
C88    H91     1.073   .     S
C93    C271    1.340   .     S
C93    N293    1.437   .     S
C94    C447    1.340   1_545 S
C94    H449    1.086   1_545 S
H95    C271    1.086   .     S
N96    N156    1.291   .     S
N96    N158    1.384   .     S
H98    N156    1.029   .     S
N99    O100    1.298   .     A
N99    O101    1.298   .     A
N102   O103    1.301   .     A
O104   N161    1.301   .     S
N105   O107    1.302   .     A
N105   O106    1.301   .     A
O108   C109    1.411   .     S
O108   C139    1.385   .     S
C109   H111    1.112   .     S
C109   H641    1.112   .     S
C109   C643    1.522   .     S
H110   C640    1.112   1_554 S
C112   H115    1.111   .     S
C112   C640    1.522   1_554 S
C112   H644    1.111   1_554 S
C112   H468    1.106   1_545 S
H113   C643    1.111   .     S
H114   C289    1.106   .     S
N116   O117    1.300   .     A
N116   O118    1.301   .     A
N116   C447    1.437   1_545 S
O119   Cu125   1.961   .     S
O119   C121    1.294   .     A
O120   C121    1.290   .     A
O120   Cu126   1.957   .     S
C121   C152    1.431   .     S
O122   Cu125   1.953   .     S
O122   C124    1.306   .     A
O123   C124    1.304   .     A
O123   Cu126   1.935   .     S
C124   C149    1.487   .     S
Cu125  Cu126   2.698   .     S
Cu125  O129    1.935   .     S
Cu125  N156    2.027   .     S
Cu125  O127    1.957   .     S
Cu126  O130    1.953   .     S
Cu126  O128    1.961   .     S
Cu126  N155    2.027   .     S
O127   C131    1.295   .     A
O128   C131    1.289   .     A
O129   C132    1.296   .     A
O130   C132    1.306   .     A
C131   C153    1.430   .     S
C132   C137    1.465   .     S
C133   C148    1.395   .     A
C133   H18     1.084   1_655 S
C133   C675    1.407   1_554 S
H134   C148    1.083   .     S
H135   C145    1.083   .     S
C137   C148    1.398   .     A
C137   C147    1.399   .     A
C138   N161    1.435   .     S
C138   C139    1.398   .     A
C138   C149    1.417   .     A
C139   C671    1.403   .     S
C140   N164    1.435   .     S
C140   C670    1.403   1_554 S
C140   C672    1.434   1_554 S
C141   C142    1.423   .     A
C141   C671    1.434   .     S
C141   C674    1.434   .     S
C142   C149    1.424   .     A
C142   C146    1.416   .     A
C143   C147    1.393   .     A
C143   C672    1.434   1_554 S
C143   C675    1.417   1_554 S
C144   C145    1.386   .     A
C144   C674    1.417   .     S
C144   C664    1.407   .     S
C145   C146    1.386   .     A
C146   H151    1.080   .     S
C147   H150    1.073   .     S
C152   C330    1.340   .     S
C152   N352    1.437   .     S
C153   C506    1.340   1_545 S
C153   H508    1.086   1_545 S
H154   C330    1.086   .     S
N155   N38     1.291   1_655 S
N155   N40     1.384   1_655 S
H157   N38     1.029   1_655 S
N158   O159    1.298   .     A
N158   O160    1.298   .     A
N161   O162    1.301   .     A
O163   N43     1.301   1_655 S
N164   O166    1.302   .     A
N164   O165    1.301   .     A
O167   C168    1.411   .     S
O167   C21     1.385   1_655 S
C168   H170    1.112   .     S
C168   H700    1.112   .     S
C168   C702    1.522   .     S
H169   C699    1.112   1_554 S
C171   H174    1.111   .     S
C171   C699    1.522   1_554 S
C171   H703    1.111   1_554 S
C171   H527    1.106   1_545 S
H172   C702    1.111   .     S
H173   C348    1.106   .     S
N175   O176    1.300   .     A
N175   O177    1.301   .     A
N175   C506    1.437   1_545 S
O178   Cu184   1.961   .     S
O178   C180    1.294   .     A
O179   C180    1.290   .     A
O179   Cu185   1.957   .     S
C180   C211    1.431   .     S
O181   Cu184   1.953   .     S
O181   C183    1.306   .     A
O182   C183    1.304   .     A
O182   Cu185   1.935   .     S
C183   C208    1.487   .     S
Cu184  Cu185   2.698   .     S
Cu184  O188    1.935   .     S
Cu184  N215    2.027   .     S
Cu184  O186    1.957   .     S
Cu185  O189    1.953   .     S
Cu185  O187    1.961   .     S
Cu185  N214    2.027   .     S
O186   C190    1.295   .     A
O187   C190    1.289   .     A
O188   C191    1.296   .     A
O189   C191    1.306   .     A
C190   C212    1.430   .     S
C191   C196    1.465   .     S
C192   C207    1.395   .     A
C192   H254    1.084   .     S
C192   C734    1.407   1_554 S
H193   C207    1.083   .     S
H194   C204    1.083   .     S
H195   C310    1.084   1_455 S
C196   C207    1.398   .     A
C196   C206    1.399   .     A
C197   N220    1.435   .     S
C197   C198    1.398   .     A
C197   C208    1.417   .     A
C198   C730    1.403   .     S
C198   O344    1.385   1_455 S
C199   N223    1.435   .     S
C199   C729    1.403   1_554 S
C199   C731    1.434   1_554 S
C200   C201    1.423   .     A
C200   C730    1.434   .     S
C200   C733    1.434   .     S
C201   C208    1.424   .     A
C201   C205    1.416   .     A
C202   C206    1.393   .     A
C202   C731    1.434   1_554 S
C202   C734    1.417   1_554 S
C203   C204    1.386   .     A
C203   C733    1.417   .     S
C203   C723    1.407   .     S
C204   C205    1.386   .     A
C205   H210    1.080   .     S
C206   H209    1.073   .     S
C211   C389    1.340   .     S
C211   N411    1.437   .     S
H213   C389    1.086   .     S
N214   N274    1.291   .     S
N214   N276    1.384   .     S
N215   N332    1.291   1_455 S
N215   H334    1.029   1_455 S
H216   N274    1.029   .     S
N217   O218    1.298   .     A
N217   O219    1.298   .     A
N217   N332    1.384   1_455 S
N220   O221    1.301   .     A
N220   O340    1.301   1_455 S
O222   N279    1.301   .     S
N223   O225    1.302   .     A
N223   O224    1.301   .     A
O226   C227    1.411   .     S
O226   C257    1.385   .     S
C227   H229    1.112   .     S
C227   H759    1.112   .     S
C227   C761    1.522   .     S
H228   C758    1.112   1_554 S
C230   H233    1.111   .     S
C230   C758    1.522   1_554 S
C230   H762    1.111   1_554 S
H231   C761    1.111   .     S
H232   C407    1.106   .     S
N234   O235    1.300   .     A
N234   O236    1.301   .     A
O237   Cu243   1.961   .     S
O237   C239    1.294   .     A
O238   C239    1.290   .     A
O238   Cu244   1.957   .     S
C239   C270    1.431   .     S
O240   Cu243   1.953   .     S
O240   C242    1.306   .     A
O241   C242    1.304   .     A
O241   Cu244   1.935   .     S
C242   C267    1.487   .     S
Cu243  Cu244   2.698   .     S
Cu243  O247    1.935   .     S
Cu243  N274    2.027   .     S
Cu243  O245    1.957   .     S
Cu244  O248    1.953   .     S
Cu244  O246    1.961   .     S
Cu244  N273    2.027   .     S
O245   C249    1.295   .     A
O246   C249    1.289   .     A
O247   C250    1.296   .     A
O248   C250    1.306   .     A
C249   C271    1.430   .     S
C250   C255    1.465   .     S
C251   C266    1.395   .     A
C251   H313    1.084   .     S
C251   C793    1.407   1_554 S
H252   C266    1.083   .     S
H253   C263    1.083   .     S
C255   C266    1.398   .     A
C255   C265    1.399   .     A
C256   N279    1.435   .     S
C256   C257    1.398   .     A
C256   C267    1.417   .     A
C257   C789    1.403   .     S
C258   N282    1.435   .     S
C258   C788    1.403   1_554 S
C258   C790    1.434   1_554 S
C259   C260    1.423   .     A
C259   C789    1.434   .     S
C259   C792    1.434   .     S
C260   C267    1.424   .     A
C260   C264    1.416   .     A
C261   C265    1.393   .     A
C261   C790    1.434   1_554 S
C261   C793    1.417   1_554 S
C262   C263    1.386   .     A
C262   C792    1.417   .     S
C262   C782    1.407   .     S
C263   C264    1.386   .     A
C264   H269    1.080   .     S
C265   H268    1.073   .     S
C270   C448    1.340   .     S
C270   N470    1.437   .     S
H272   C448    1.086   .     S
N273   N333    1.291   .     S
N273   N335    1.384   .     S
H275   N333    1.029   .     S
N276   O277    1.298   .     A
N276   O278    1.298   .     A
N279   O280    1.301   .     A
O281   N338    1.301   .     S
N282   O284    1.302   .     A
N282   O283    1.301   .     A
O285   C286    1.411   .     S
O285   C316    1.385   .     S
C286   H288    1.112   .     S
C286   H818    1.112   .     S
C286   C820    1.522   .     S
H287   C817    1.112   1_554 S
C289   H292    1.111   .     S
C289   C817    1.522   1_554 S
C289   H821    1.111   1_554 S
H290   C820    1.111   .     S
H291   C466    1.106   .     S
N293   O294    1.300   .     A
N293   O295    1.301   .     A
O296   Cu302   1.961   .     S
O296   C298    1.294   .     A
O297   C298    1.290   .     A
O297   Cu303   1.957   .     S
C298   C329    1.431   .     S
O299   Cu302   1.953   .     S
O299   C301    1.306   .     A
O300   C301    1.304   .     A
O300   Cu303   1.935   .     S
C301   C326    1.487   .     S
Cu302  Cu303   2.698   .     S
Cu302  O306    1.935   .     S
Cu302  N333    2.027   .     S
Cu302  O304    1.957   .     S
Cu303  O307    1.953   .     S
Cu303  O305    1.961   .     S
Cu303  N332    2.027   .     S
O304   C308    1.295   .     A
O305   C308    1.289   .     A
O306   C309    1.296   .     A
O307   C309    1.306   .     A
C308   C330    1.430   .     S
C309   C314    1.465   .     S
C310   C325    1.395   .     A
C310   H195    1.084   1_655 S
C310   C852    1.407   1_554 S
H311   C325    1.083   .     S
H312   C322    1.083   .     S
C314   C325    1.398   .     A
C314   C324    1.399   .     A
C315   N338    1.435   .     S
C315   C316    1.398   .     A
C315   C326    1.417   .     A
C316   C848    1.403   .     S
C317   N341    1.435   .     S
C317   C847    1.403   1_554 S
C317   C849    1.434   1_554 S
C318   C319    1.423   .     A
C318   C848    1.434   .     S
C318   C851    1.434   .     S
C319   C326    1.424   .     A
C319   C323    1.416   .     A
C320   C324    1.393   .     A
C320   C849    1.434   1_554 S
C320   C852    1.417   1_554 S
C321   C322    1.386   .     A
C321   C851    1.417   .     S
C321   C841    1.407   .     S
C322   C323    1.386   .     A
C323   H328    1.080   .     S
C324   H327    1.073   .     S
C329   C507    1.340   .     S
C329   N529    1.437   .     S
H331   C507    1.086   .     S
N332   N215    1.291   1_655 S
N332   N217    1.384   1_655 S
H334   N215    1.029   1_655 S
N335   O336    1.298   .     A
N335   O337    1.298   .     A
N338   O339    1.301   .     A
O340   N220    1.301   1_655 S
N341   O343    1.302   .     A
N341   O342    1.301   .     A
O344   C345    1.411   .     S
O344   C198    1.385   1_655 S
C345   H347    1.112   .     S
C345   H877    1.112   .     S
C345   C879    1.522   .     S
H346   C876    1.112   1_554 S
C348   H351    1.111   .     S
C348   C876    1.522   1_554 S
C348   H880    1.111   1_554 S
H349   C879    1.111   .     S
H350   C525    1.106   .     S
N352   O353    1.300   .     A
N352   O354    1.301   .     A
O355   Cu361   1.961   .     S
O355   C357    1.294   .     A
O356   C357    1.290   .     A
O356   Cu362   1.957   .     S
C357   C388    1.431   .     S
O358   Cu361   1.953   .     S
O358   C360    1.306   .     A
O359   C360    1.304   .     A
O359   Cu362   1.935   .     S
C360   C385    1.487   .     S
Cu361  Cu362   2.698   .     S
Cu361  O365    1.935   .     S
Cu361  N392    2.027   .     S
Cu361  O363    1.957   .     S
Cu362  O366    1.953   .     S
Cu362  O364    1.961   .     S
Cu362  N391    2.027   .     S
O363   C367    1.295   .     A
O364   C367    1.289   .     A
O365   C368    1.296   .     A
O366   C368    1.306   .     A
C367   C389    1.430   .     S
C368   C373    1.465   .     S
C369   C384    1.395   .     A
C369   H431    1.084   .     S
C369   C911    1.407   1_554 S
H370   C384    1.083   .     S
H371   C381    1.083   .     S
H372   C487    1.084   1_455 S
C373   C384    1.398   .     A
C373   C383    1.399   .     A
C374   N397    1.435   .     S
C374   C375    1.398   .     A
C374   C385    1.417   .     A
C375   C907    1.403   .     S
C375   O521    1.385   1_455 S
C376   N400    1.435   .     S
C376   C906    1.403   1_554 S
C376   C908    1.434   1_554 S
C377   C378    1.423   .     A
C377   C907    1.434   .     S
C377   C910    1.434   .     S
C378   C385    1.424   .     A
C378   C382    1.416   .     A
C379   C383    1.393   .     A
C379   C908    1.434   1_554 S
C379   C911    1.417   1_554 S
C380   C381    1.386   .     A
C380   C910    1.417   .     S
C380   C900    1.407   .     S
C381   C382    1.386   .     A
C382   H387    1.080   .     S
C383   H386    1.073   .     S
C388   C35     1.340   1_565 S
C388   N57     1.437   1_565 S
H390   C35     1.086   1_565 S
N391   N451    1.291   .     S
N391   N453    1.384   .     S
N392   N509    1.291   1_455 S
N392   H511    1.029   1_455 S
H393   N451    1.029   .     S
N394   O395    1.298   .     A
N394   O396    1.298   .     A
N394   N509    1.384   1_455 S
N397   O398    1.301   .     A
N397   O517    1.301   1_455 S
O399   N456    1.301   .     S
N400   O402    1.302   .     A
N400   O401    1.301   .     A
O403   C404    1.411   .     S
O403   C434    1.385   .     S
C404   H406    1.112   .     S
C404   H936    1.112   .     S
C404   C938    1.522   .     S
H405   C935    1.112   1_554 S
C407   H410    1.111   .     S
C407   C935    1.522   1_554 S
C407   H939    1.111   1_554 S
H408   C938    1.111   .     S
H409   C53     1.106   1_565 S
N411   O412    1.300   .     A
N411   O413    1.301   .     A
O414   Cu420   1.961   .     S
O414   C416    1.294   .     A
O415   C416    1.290   .     A
O415   Cu421   1.957   .     S
C416   C447    1.431   .     S
O417   Cu420   1.953   .     S
O417   C419    1.306   .     A
O418   C419    1.304   .     A
O418   Cu421   1.935   .     S
C419   C444    1.487   .     S
Cu420  Cu421   2.698   .     S
Cu420  O424    1.935   .     S
Cu420  N451    2.027   .     S
Cu420  O422    1.957   .     S
Cu421  O425    1.953   .     S
Cu421  O423    1.961   .     S
Cu421  N450    2.027   .     S
O422   C426    1.295   .     A
O423   C426    1.289   .     A
O424   C427    1.296   .     A
O425   C427    1.306   .     A
C426   C448    1.430   .     S
C427   C432    1.465   .     S
C428   C443    1.395   .     A
C428   H490    1.084   .     S
C428   C970    1.407   1_554 S
H429   C443    1.083   .     S
H430   C440    1.083   .     S
C432   C443    1.398   .     A
C432   C442    1.399   .     A
C433   N456    1.435   .     S
C433   C434    1.398   .     A
C433   C444    1.417   .     A
C434   C966    1.403   .     S
C435   N459    1.435   .     S
C435   C965    1.403   1_554 S
C435   C967    1.434   1_554 S
C436   C437    1.423   .     A
C436   C966    1.434   .     S
C436   C969    1.434   .     S
C437   C444    1.424   .     A
C437   C441    1.416   .     A
C438   C442    1.393   .     A
C438   C967    1.434   1_554 S
C438   C970    1.417   1_554 S
C439   C440    1.386   .     A
C439   C969    1.417   .     S
C439   C959    1.407   .     S
C440   C441    1.386   .     A
C441   H446    1.080   .     S
C442   H445    1.073   .     S
C447   C94     1.340   1_565 S
C447   N116    1.437   1_565 S
H449   C94     1.086   1_565 S
N450   N510    1.291   .     S
N450   N512    1.384   .     S
H452   N510    1.029   .     S
N453   O454    1.298   .     A
N453   O455    1.298   .     A
N456   O457    1.301   .     A
O458   N515    1.301   .     S
N459   O461    1.302   .     A
N459   O460    1.301   .     A
O462   C463    1.411   .     S
O462   C493    1.385   .     S
C463   H465    1.112   .     S
C463   H995    1.112   .     S
C463   C997    1.522   .     S
H464   C994    1.112   1_554 S
C466   H469    1.111   .     S
C466   C994    1.522   1_554 S
C466   H998    1.111   1_554 S
H467   C997    1.111   .     S
H468   C112    1.106   1_565 S
N470   O471    1.300   .     A
N470   O472    1.301   .     A
O473   Cu479   1.961   .     S
O473   C475    1.294   .     A
O474   C475    1.290   .     A
O474   Cu480   1.957   .     S
C475   C506    1.431   .     S
O476   Cu479   1.953   .     S
O476   C478    1.306   .     A
O477   C478    1.304   .     A
O477   Cu480   1.935   .     S
C478   C503    1.487   .     S
Cu479  Cu480   2.698   .     S
Cu479  O483    1.935   .     S
Cu479  N510    2.027   .     S
Cu479  O481    1.957   .     S
Cu480  O484    1.953   .     S
Cu480  O482    1.961   .     S
Cu480  N509    2.027   .     S
O481   C485    1.295   .     A
O482   C485    1.289   .     A
O483   C486    1.296   .     A
O484   C486    1.306   .     A
C485   C507    1.430   .     S
C486   C491    1.465   .     S
C487   C502    1.395   .     A
C487   H372    1.084   1_655 S
C487   C1029   1.407   1_554 S
H488   C502    1.083   .     S
H489   C499    1.083   .     S
C491   C502    1.398   .     A
C491   C501    1.399   .     A
C492   N515    1.435   .     S
C492   C493    1.398   .     A
C492   C503    1.417   .     A
C493   C1025   1.403   .     S
C494   N518    1.435   .     S
C494   C1024   1.403   1_554 S
C494   C1026   1.434   1_554 S
C495   C496    1.423   .     A
C495   C1025   1.434   .     S
C495   C1028   1.434   .     S
C496   C503    1.424   .     A
C496   C500    1.416   .     A
C497   C501    1.393   .     A
C497   C1026   1.434   1_554 S
C497   C1029   1.417   1_554 S
C498   C499    1.386   .     A
C498   C1028   1.417   .     S
C498   C1018   1.407   .     S
C499   C500    1.386   .     A
C500   H505    1.080   .     S
C501   H504    1.073   .     S
C506   C153    1.340   1_565 S
C506   N175    1.437   1_565 S
H508   C153    1.086   1_565 S
N509   N392    1.291   1_655 S
N509   N394    1.384   1_655 S
H511   N392    1.029   1_655 S
N512   O513    1.298   .     A
N512   O514    1.298   .     A
N515   O516    1.301   .     A
O517   N397    1.301   1_655 S
N518   O520    1.302   .     A
N518   O519    1.301   .     A
O521   C522    1.411   .     S
O521   C375    1.385   1_655 S
C522   H524    1.112   .     S
C522   H1054   1.112   .     S
C522   C1056   1.522   .     S
H523   C1053   1.112   1_554 S
C525   H528    1.111   .     S
C525   C1053   1.522   1_554 S
C525   H1057   1.111   1_554 S
H526   C1056   1.111   .     S
H527   C171    1.106   1_565 S
N529   O530    1.300   .     A
N529   O531    1.301   .     A
O532   Cu538   1.961   .     S
O532   C534    1.294   .     A
O533   C534    1.290   .     A
O533   Cu539   1.957   .     S
C534   C565    1.431   .     S
O535   Cu538   1.953   .     S
O535   C537    1.306   .     A
O536   C537    1.304   .     A
O536   Cu539   1.935   .     S
C537   C562    1.487   .     S
Cu538  Cu539   2.698   .     S
Cu538  O542    1.935   .     S
Cu538  N569    2.027   .     S
Cu538  O540    1.957   .     S
Cu539  O543    1.953   .     S
Cu539  O541    1.961   .     S
Cu539  N568    2.027   .     S
O540   C544    1.295   .     A
O541   C544    1.289   .     A
O542   C545    1.296   .     A
O543   C545    1.306   .     A
C544   C566    1.430   .     S
C545   C550    1.465   .     S
C546   C561    1.395   .     A
C546   H608    1.084   .     S
H547   C561    1.083   .     S
H548   C558    1.083   .     S
H549   C664    1.084   1_455 S
C550   C561    1.398   .     A
C550   C560    1.399   .     A
C551   N574    1.435   .     S
C551   C552    1.398   .     A
C551   C562    1.417   .     A
C552   C22     1.403   1_556 S
C552   O698    1.385   1_455 S
C553   N577    1.435   .     S
C554   C555    1.423   .     A
C554   C22     1.434   1_556 S
C554   C25     1.434   1_556 S
C555   C562    1.424   .     A
C555   C559    1.416   .     A
C556   C560    1.393   .     A
C557   C558    1.386   .     A
C557   C25     1.417   1_556 S
C557   C15     1.407   1_556 S
C558   C559    1.386   .     A
C559   H564    1.080   .     S
C560   H563    1.073   .     S
C565   C743    1.340   .     S
C565   N765    1.437   .     S
C566   C919    1.340   1_545 S
C566   H921    1.086   1_545 S
H567   C743    1.086   .     S
N568   N628    1.291   .     S
N568   N630    1.384   .     S
N569   N686    1.291   1_455 S
N569   H688    1.029   1_455 S
H570   N628    1.029   .     S
N571   O572    1.298   .     A
N571   O573    1.298   .     A
N571   N686    1.384   1_455 S
N574   O575    1.301   .     A
N574   O694    1.301   1_455 S
O576   N633    1.301   .     S
N577   O579    1.302   .     A
N577   O578    1.301   .     A
O580   C581    1.411   .     S
O580   C611    1.385   .     S
C581   H583    1.112   .     S
C581   H51     1.112   1_556 S
C581   C53     1.522   1_556 S
C584   H587    1.111   .     S
C584   H940    1.106   1_545 S
H585   C53     1.111   1_556 S
H586   C761    1.106   .     S
N588   O589    1.300   .     A
N588   O590    1.301   .     A
N588   C919    1.437   1_545 S
O591   Cu597   1.961   .     S
O591   C593    1.294   .     A
O592   C593    1.290   .     A
O592   Cu598   1.957   .     S
C593   C624    1.431   .     S
O594   Cu597   1.953   .     S
O594   C596    1.306   .     A
O595   C596    1.304   .     A
O595   Cu598   1.935   .     S
C596   C621    1.487   .     S
Cu597  Cu598   2.698   .     S
Cu597  O601    1.935   .     S
Cu597  N628    2.027   .     S
Cu597  O599    1.957   .     S
Cu598  O602    1.953   .     S
Cu598  O600    1.961   .     S
Cu598  N627    2.027   .     S
O599   C603    1.295   .     A
O600   C603    1.289   .     A
O601   C604    1.296   .     A
O602   C604    1.306   .     A
C603   C625    1.430   .     S
C604   C609    1.465   .     S
C605   C620    1.395   .     A
C605   H667    1.084   .     S
H606   C620    1.083   .     S
H607   C617    1.083   .     S
C609   C620    1.398   .     A
C609   C619    1.399   .     A
C610   N633    1.435   .     S
C610   C611    1.398   .     A
C610   C621    1.417   .     A
C611   C81     1.403   1_556 S
C612   N636    1.435   .     S
C613   C614    1.423   .     A
C613   C81     1.434   1_556 S
C613   C84     1.434   1_556 S
C614   C621    1.424   .     A
C614   C618    1.416   .     A
C615   C619    1.393   .     A
C616   C617    1.386   .     A
C616   C84     1.417   1_556 S
C616   C74     1.407   1_556 S
C617   C618    1.386   .     A
C618   H623    1.080   .     S
C619   H622    1.073   .     S
C624   C802    1.340   .     S
C624   N824    1.437   .     S
C625   C978    1.340   1_545 S
C625   H980    1.086   1_545 S
H626   C802    1.086   .     S
N627   N687    1.291   .     S
N627   N689    1.384   .     S
H629   N687    1.029   .     S
N630   O631    1.298   .     A
N630   O632    1.298   .     A
N633   O634    1.301   .     A
O635   N692    1.301   .     S
N636   O638    1.302   .     A
N636   O637    1.301   .     A
O639   C640    1.411   .     S
O639   C670    1.385   .     S
C640   H642    1.112   .     S
C640   H110    1.112   1_556 S
C640   C112    1.522   1_556 S
C643   H646    1.111   .     S
C643   H999    1.106   1_545 S
H644   C112    1.111   1_556 S
H645   C820    1.106   .     S
N647   O648    1.300   .     A
N647   O649    1.301   .     A
N647   C978    1.437   1_545 S
O650   Cu656   1.961   .     S
O650   C652    1.294   .     A
O651   C652    1.290   .     A
O651   Cu657   1.957   .     S
C652   C683    1.431   .     S
O653   Cu656   1.953   .     S
O653   C655    1.306   .     A
O654   C655    1.304   .     A
O654   Cu657   1.935   .     S
C655   C680    1.487   .     S
Cu656  Cu657   2.698   .     S
Cu656  O660    1.935   .     S
Cu656  N687    2.027   .     S
Cu656  O658    1.957   .     S
Cu657  O661    1.953   .     S
Cu657  O659    1.961   .     S
Cu657  N686    2.027   .     S
O658   C662    1.295   .     A
O659   C662    1.289   .     A
O660   C663    1.296   .     A
O661   C663    1.306   .     A
C662   C684    1.430   .     S
C663   C668    1.465   .     S
C664   C679    1.395   .     A
C664   H549    1.084   1_655 S
H665   C679    1.083   .     S
H666   C676    1.083   .     S
C668   C679    1.398   .     A
C668   C678    1.399   .     A
C669   N692    1.435   .     S
C669   C670    1.398   .     A
C669   C680    1.417   .     A
C670   C140    1.403   1_556 S
C671   N695    1.435   .     S
C672   C673    1.423   .     A
C672   C140    1.434   1_556 S
C672   C143    1.434   1_556 S
C673   C680    1.424   .     A
C673   C677    1.416   .     A
C674   C678    1.393   .     A
C675   C676    1.386   .     A
C675   C143    1.417   1_556 S
C675   C133    1.407   1_556 S
C676   C677    1.386   .     A
C677   H682    1.080   .     S
C678   H681    1.073   .     S
C683   C861    1.340   .     S
C683   N883    1.437   .     S
C684   C1037   1.340   1_545 S
C684   H1039   1.086   1_545 S
H685   C861    1.086   .     S
N686   N569    1.291   1_655 S
N686   N571    1.384   1_655 S
H688   N569    1.029   1_655 S
N689   O690    1.298   .     A
N689   O691    1.298   .     A
N692   O693    1.301   .     A
O694   N574    1.301   1_655 S
N695   O697    1.302   .     A
N695   O696    1.301   .     A
O698   C699    1.411   .     S
O698   C552    1.385   1_655 S
C699   H701    1.112   .     S
C699   H169    1.112   1_556 S
C699   C171    1.522   1_556 S
C702   H705    1.111   .     S
C702   H1058   1.106   1_545 S
H703   C171    1.111   1_556 S
H704   C879    1.106   .     S
N706   O707    1.300   .     A
N706   O708    1.301   .     A
N706   C1037   1.437   1_545 S
O709   Cu715   1.961   .     S
O709   C711    1.294   .     A
O710   C711    1.290   .     A
O710   Cu716   1.957   .     S
C711   C742    1.431   .     S
O712   Cu715   1.953   .     S
O712   C714    1.306   .     A
O713   C714    1.304   .     A
O713   Cu716   1.935   .     S
C714   C739    1.487   .     S
Cu715  Cu716   2.698   .     S
Cu715  O719    1.935   .     S
Cu715  N746    2.027   .     S
Cu715  O717    1.957   .     S
Cu716  O720    1.953   .     S
Cu716  O718    1.961   .     S
Cu716  N745    2.027   .     S
O717   C721    1.295   .     A
O718   C721    1.289   .     A
O719   C722    1.296   .     A
O720   C722    1.306   .     A
C721   C743    1.430   .     S
C722   C727    1.465   .     S
C723   C738    1.395   .     A
C723   H785    1.084   .     S
H724   C738    1.083   .     S
H725   C735    1.083   .     S
H726   C841    1.084   1_455 S
C727   C738    1.398   .     A
C727   C737    1.399   .     A
C728   N751    1.435   .     S
C728   C729    1.398   .     A
C728   C739    1.417   .     A
C729   C199    1.403   1_556 S
C729   O875    1.385   1_455 S
C730   N754    1.435   .     S
C731   C732    1.423   .     A
C731   C199    1.434   1_556 S
C731   C202    1.434   1_556 S
C732   C739    1.424   .     A
C732   C736    1.416   .     A
C733   C737    1.393   .     A
C734   C735    1.386   .     A
C734   C202    1.417   1_556 S
C734   C192    1.407   1_556 S
C735   C736    1.386   .     A
C736   H741    1.080   .     S
C737   H740    1.073   .     S
C742   C920    1.340   .     S
C742   N942    1.437   .     S
H744   C920    1.086   .     S
N745   N805    1.291   .     S
N745   N807    1.384   .     S
N746   N863    1.291   1_455 S
N746   H865    1.029   1_455 S
H747   N805    1.029   .     S
N748   O749    1.298   .     A
N748   O750    1.298   .     A
N748   N863    1.384   1_455 S
N751   O752    1.301   .     A
N751   O871    1.301   1_455 S
O753   N810    1.301   .     S
N754   O756    1.302   .     A
N754   O755    1.301   .     A
O757   C758    1.411   .     S
O757   C788    1.385   .     S
C758   H760    1.112   .     S
C758   H228    1.112   1_556 S
C758   C230    1.522   1_556 S
C761   H764    1.111   .     S
H762   C230    1.111   1_556 S
H763   C938    1.106   .     S
N765   O766    1.300   .     A
N765   O767    1.301   .     A
O768   Cu774   1.961   .     S
O768   C770    1.294   .     A
O769   C770    1.290   .     A
O769   Cu775   1.957   .     S
C770   C801    1.431   .     S
O771   Cu774   1.953   .     S
O771   C773    1.306   .     A
O772   C773    1.304   .     A
O772   Cu775   1.935   .     S
C773   C798    1.487   .     S
Cu774  Cu775   2.698   .     S
Cu774  O778    1.935   .     S
Cu774  N805    2.027   .     S
Cu774  O776    1.957   .     S
Cu775  O779    1.953   .     S
Cu775  O777    1.961   .     S
Cu775  N804    2.027   .     S
O776   C780    1.295   .     A
O777   C780    1.289   .     A
O778   C781    1.296   .     A
O779   C781    1.306   .     A
C780   C802    1.430   .     S
C781   C786    1.465   .     S
C782   C797    1.395   .     A
C782   H844    1.084   .     S
H783   C797    1.083   .     S
H784   C794    1.083   .     S
C786   C797    1.398   .     A
C786   C796    1.399   .     A
C787   N810    1.435   .     S
C787   C788    1.398   .     A
C787   C798    1.417   .     A
C788   C258    1.403   1_556 S
C789   N813    1.435   .     S
C790   C791    1.423   .     A
C790   C258    1.434   1_556 S
C790   C261    1.434   1_556 S
C791   C798    1.424   .     A
C791   C795    1.416   .     A
C792   C796    1.393   .     A
C793   C794    1.386   .     A
C793   C261    1.417   1_556 S
C793   C251    1.407   1_556 S
C794   C795    1.386   .     A
C795   H800    1.080   .     S
C796   H799    1.073   .     S
C801   C979    1.340   .     S
C801   N1001   1.437   .     S
H803   C979    1.086   .     S
N804   N864    1.291   .     S
N804   N866    1.384   .     S
H806   N864    1.029   .     S
N807   O808    1.298   .     A
N807   O809    1.298   .     A
N810   O811    1.301   .     A
O812   N869    1.301   .     S
N813   O815    1.302   .     A
N813   O814    1.301   .     A
O816   C817    1.411   .     S
O816   C847    1.385   .     S
C817   H819    1.112   .     S
C817   H287    1.112   1_556 S
C817   C289    1.522   1_556 S
C820   H823    1.111   .     S
H821   C289    1.111   1_556 S
H822   C997    1.106   .     S
N824   O825    1.300   .     A
N824   O826    1.301   .     A
O827   Cu833   1.961   .     S
O827   C829    1.294   .     A
O828   C829    1.290   .     A
O828   Cu834   1.957   .     S
C829   C860    1.431   .     S
O830   Cu833   1.953   .     S
O830   C832    1.306   .     A
O831   C832    1.304   .     A
O831   Cu834   1.935   .     S
C832   C857    1.487   .     S
Cu833  Cu834   2.698   .     S
Cu833  O837    1.935   .     S
Cu833  N864    2.027   .     S
Cu833  O835    1.957   .     S
Cu834  O838    1.953   .     S
Cu834  O836    1.961   .     S
Cu834  N863    2.027   .     S
O835   C839    1.295   .     A
O836   C839    1.289   .     A
O837   C840    1.296   .     A
O838   C840    1.306   .     A
C839   C861    1.430   .     S
C840   C845    1.465   .     S
C841   C856    1.395   .     A
C841   H726    1.084   1_655 S
H842   C856    1.083   .     S
H843   C853    1.083   .     S
C845   C856    1.398   .     A
C845   C855    1.399   .     A
C846   N869    1.435   .     S
C846   C847    1.398   .     A
C846   C857    1.417   .     A
C847   C317    1.403   1_556 S
C848   N872    1.435   .     S
C849   C850    1.423   .     A
C849   C317    1.434   1_556 S
C849   C320    1.434   1_556 S
C850   C857    1.424   .     A
C850   C854    1.416   .     A
C851   C855    1.393   .     A
C852   C853    1.386   .     A
C852   C320    1.417   1_556 S
C852   C310    1.407   1_556 S
C853   C854    1.386   .     A
C854   H859    1.080   .     S
C855   H858    1.073   .     S
C860   C1038   1.340   .     S
C860   N1060   1.437   .     S
H862   C1038   1.086   .     S
N863   N746    1.291   1_655 S
N863   N748    1.384   1_655 S
H865   N746    1.029   1_655 S
N866   O867    1.298   .     A
N866   O868    1.298   .     A
N869   O870    1.301   .     A
O871   N751    1.301   1_655 S
N872   O874    1.302   .     A
N872   O873    1.301   .     A
O875   C876    1.411   .     S
O875   C729    1.385   1_655 S
C876   H878    1.112   .     S
C876   H346    1.112   1_556 S
C876   C348    1.522   1_556 S
C879   H882    1.111   .     S
H880   C348    1.111   1_556 S
H881   C1056   1.106   .     S
N883   O884    1.300   .     A
N883   O885    1.301   .     A
O886   Cu892   1.961   .     S
O886   C888    1.294   .     A
O887   C888    1.290   .     A
O887   Cu893   1.957   .     S
C888   C919    1.431   .     S
O889   Cu892   1.953   .     S
O889   C891    1.306   .     A
O890   C891    1.304   .     A
O890   Cu893   1.935   .     S
C891   C916    1.487   .     S
Cu892  Cu893   2.698   .     S
Cu892  O896    1.935   .     S
Cu892  N923    2.027   .     S
Cu892  O894    1.957   .     S
Cu893  O897    1.953   .     S
Cu893  O895    1.961   .     S
Cu893  N922    2.027   .     S
O894   C898    1.295   .     A
O895   C898    1.289   .     A
O896   C899    1.296   .     A
O897   C899    1.306   .     A
C898   C920    1.430   .     S
C899   C904    1.465   .     S
C900   C915    1.395   .     A
C900   H962    1.084   .     S
H901   C915    1.083   .     S
H902   C912    1.083   .     S
H903   C1018   1.084   1_455 S
C904   C915    1.398   .     A
C904   C914    1.399   .     A
C905   N928    1.435   .     S
C905   C906    1.398   .     A
C905   C916    1.417   .     A
C906   C376    1.403   1_556 S
C906   O1052   1.385   1_455 S
C907   N931    1.435   .     S
C908   C909    1.423   .     A
C908   C376    1.434   1_556 S
C908   C379    1.434   1_556 S
C909   C916    1.424   .     A
C909   C913    1.416   .     A
C910   C914    1.393   .     A
C911   C912    1.386   .     A
C911   C379    1.417   1_556 S
C911   C369    1.407   1_556 S
C912   C913    1.386   .     A
C913   H918    1.080   .     S
C914   H917    1.073   .     S
C919   C566    1.340   1_565 S
C919   N588    1.437   1_565 S
H921   C566    1.086   1_565 S
N922   N982    1.291   .     S
N922   N984    1.384   .     S
N923   N1040   1.291   1_455 S
N923   H1042   1.029   1_455 S
H924   N982    1.029   .     S
N925   O926    1.298   .     A
N925   O927    1.298   .     A
N925   N1040   1.384   1_455 S
N928   O929    1.301   .     A
N928   O1048   1.301   1_455 S
O930   N987    1.301   .     S
N931   O933    1.302   .     A
N931   O932    1.301   .     A
O934   C935    1.411   .     S
O934   C965    1.385   .     S
C935   H937    1.112   .     S
C935   H405    1.112   1_556 S
C935   C407    1.522   1_556 S
C938   H941    1.111   .     S
H939   C407    1.111   1_556 S
H940   C584    1.106   1_565 S
N942   O943    1.300   .     A
N942   O944    1.301   .     A
O945   Cu951   1.961   .     S
O945   C947    1.294   .     A
O946   C947    1.290   .     A
O946   Cu952   1.957   .     S
C947   C978    1.431   .     S
O948   Cu951   1.953   .     S
O948   C950    1.306   .     A
O949   C950    1.304   .     A
O949   Cu952   1.935   .     S
C950   C975    1.487   .     S
Cu951  Cu952   2.698   .     S
Cu951  O955    1.935   .     S
Cu951  N982    2.027   .     S
Cu951  O953    1.957   .     S
Cu952  O956    1.953   .     S
Cu952  O954    1.961   .     S
Cu952  N981    2.027   .     S
O953   C957    1.295   .     A
O954   C957    1.289   .     A
O955   C958    1.296   .     A
O956   C958    1.306   .     A
C957   C979    1.430   .     S
C958   C963    1.465   .     S
C959   C974    1.395   .     A
C959   H1021   1.084   .     S
H960   C974    1.083   .     S
H961   C971    1.083   .     S
C963   C974    1.398   .     A
C963   C973    1.399   .     A
C964   N987    1.435   .     S
C964   C965    1.398   .     A
C964   C975    1.417   .     A
C965   C435    1.403   1_556 S
C966   N990    1.435   .     S
C967   C968    1.423   .     A
C967   C435    1.434   1_556 S
C967   C438    1.434   1_556 S
C968   C975    1.424   .     A
C968   C972    1.416   .     A
C969   C973    1.393   .     A
C970   C971    1.386   .     A
C970   C438    1.417   1_556 S
C970   C428    1.407   1_556 S
C971   C972    1.386   .     A
C972   H977    1.080   .     S
C973   H976    1.073   .     S
C978   C625    1.340   1_565 S
C978   N647    1.437   1_565 S
H980   C625    1.086   1_565 S
N981   N1041   1.291   .     S
N981   N1043   1.384   .     S
H983   N1041   1.029   .     S
N984   O985    1.298   .     A
N984   O986    1.298   .     A
N987   O988    1.301   .     A
O989   N1046   1.301   .     S
N990   O992    1.302   .     A
N990   O991    1.301   .     A
O993   C994    1.411   .     S
O993   C1024   1.385   .     S
C994   H996    1.112   .     S
C994   H464    1.112   1_556 S
C994   C466    1.522   1_556 S
C997   H1000   1.111   .     S
H998   C466    1.111   1_556 S
H999   C643    1.106   1_565 S
N1001  O1002   1.300   .     A
N1001  O1003   1.301   .     A
O1004  Cu1010  1.961   .     S
O1004  C1006   1.294   .     A
O1005  C1006   1.290   .     A
O1005  Cu1011  1.957   .     S
C1006  C1037   1.431   .     S
O1007  Cu1010  1.953   .     S
O1007  C1009   1.306   .     A
O1008  C1009   1.304   .     A
O1008  Cu1011  1.935   .     S
C1009  C1034   1.487   .     S
Cu1010 Cu1011  2.698   .     S
Cu1010 O1014   1.935   .     S
Cu1010 N1041   2.027   .     S
Cu1010 O1012   1.957   .     S
Cu1011 O1015   1.953   .     S
Cu1011 O1013   1.961   .     S
Cu1011 N1040   2.027   .     S
O1012  C1016   1.295   .     A
O1013  C1016   1.289   .     A
O1014  C1017   1.296   .     A
O1015  C1017   1.306   .     A
C1016  C1038   1.430   .     S
C1017  C1022   1.465   .     S
C1018  C1033   1.395   .     A
C1018  H903    1.084   1_655 S
H1019  C1033   1.083   .     S
H1020  C1030   1.083   .     S
C1022  C1033   1.398   .     A
C1022  C1032   1.399   .     A
C1023  N1046   1.435   .     S
C1023  C1024   1.398   .     A
C1023  C1034   1.417   .     A
C1024  C494    1.403   1_556 S
C1025  N1049   1.435   .     S
C1026  C1027   1.423   .     A
C1026  C494    1.434   1_556 S
C1026  C497    1.434   1_556 S
C1027  C1034   1.424   .     A
C1027  C1031   1.416   .     A
C1028  C1032   1.393   .     A
C1029  C1030   1.386   .     A
C1029  C497    1.417   1_556 S
C1029  C487    1.407   1_556 S
C1030  C1031   1.386   .     A
C1031  H1036   1.080   .     S
C1032  H1035   1.073   .     S
C1037  C684    1.340   1_565 S
C1037  N706    1.437   1_565 S
H1039  C684    1.086   1_565 S
N1040  N923    1.291   1_655 S
N1040  N925    1.384   1_655 S
H1042  N923    1.029   1_655 S
N1043  O1044   1.298   .     A
N1043  O1045   1.298   .     A
N1046  O1047   1.301   .     A
O1048  N928    1.301   1_655 S
N1049  O1051   1.302   .     A
N1049  O1050   1.301   .     A
O1052  C1053   1.411   .     S
O1052  C906    1.385   1_655 S
C1053  H1055   1.112   .     S
C1053  H523    1.112   1_556 S
C1053  C525    1.522   1_556 S
C1056  H1059   1.111   .     S
H1057  C525    1.111   1_556 S
H1058  C702    1.106   1_565 S
N1060  O1061   1.300   .     A
N1060  O1062   1.301   .     A
