data_str_m2_o10_o17_pcu_sym.78
_audit_creation_date              2020-01-03
_audit_creation_method            'Materials Studio'
_symmetry_space_group_name_H-M    'P1'
_symmetry_Int_Tables_number       1
_symmetry_cell_setting            triclinic
loop_
_symmetry_equiv_pos_as_xyz
  x,y,z
_cell_length_a                    30.0909
_cell_length_b                    26.6351
_cell_length_c                    22.6100
_cell_angle_alpha                 103.0805
_cell_angle_beta                  94.5335
_cell_angle_gamma                 95.8526
loop_
_atom_site_label
_atom_site_type_symbol
_atom_site_fract_x
_atom_site_fract_y
_atom_site_fract_z
_atom_site_U_iso_or_equiv
_atom_site_adp_type
_atom_site_occupancy
C1     C     0.24953   0.06680   0.15090   0.00000  Uiso   1.00
C2     C     0.08662   0.11546   0.15769   0.00000  Uiso   1.00
C3     C     0.38389   0.17006   0.16580   0.00000  Uiso   1.00
C4     C     0.11581   0.16271   0.16921   0.00000  Uiso   1.00
C5     C     0.40070   0.12400   0.14277   0.00000  Uiso   1.00
C6     C     0.09907   0.20976   0.18891   0.00000  Uiso   1.00
C7     C     0.44673   0.12271   0.14321   0.00000  Uiso   1.00
C8     C     0.05318   0.21149   0.19128   0.00000  Uiso   1.00
C9     C     0.47667   0.16829   0.16786   0.00000  Uiso   1.00
C10    C     0.02320   0.16582   0.16868   0.00000  Uiso   1.00
C11    C     0.46001   0.21610   0.19136   0.00000  Uiso   1.00
C12    C     0.25204   0.26655   0.18203   0.00000  Uiso   1.00
C13    C     0.03982   0.11735   0.14929   0.00000  Uiso   1.00
C14    C     0.46290   0.07593   0.11999   0.00000  Uiso   1.00
C15    C     0.03716   0.25816   0.21674   0.00000  Uiso   1.00
C16    C     0.39542   0.27642   0.13464   0.00000  Uiso   1.00
C17    C     0.36670   0.31953   0.13358   0.00000  Uiso   1.00
C18    C     0.13105   0.04849   0.14520   0.00000  Uiso   1.00
C19    C     0.13199   0.32883   0.15941   0.00000  Uiso   1.00
C20    C     0.02287   0.01950   0.09814   0.00000  Uiso   1.00
C21    C     0.47705   0.31094   0.25478   0.00000  Uiso   1.00
C22    C     0.20941   0.32040   0.04241   0.00000  Uiso   1.00
C23    C     0.00882   0.07206   0.12394   0.00000  Uiso   1.00
C24    C     0.18163   0.26876   0.01263   0.00000  Uiso   1.00
C25    C     0.31118   0.02724   0.26529   0.00000  Uiso   1.00
C26    C     0.32135   0.05198   0.33301   0.00000  Uiso   1.00
C27    C     0.19444   0.12639   0.31576   0.00000  Uiso   1.00
C28    C     0.30561   0.20630   0.01729   0.00000  Uiso   1.00
C29    C     0.49107   0.26095   0.21890   0.00000  Uiso   1.00
C30    C     0.24826   0.01051   0.14130   0.00000  Uiso   1.00
C31    C     0.25525   0.32257   0.19013   0.00000  Uiso   1.00
C32    C     0.16435   0.16467   0.16714   0.00000  Uiso   1.00
C33    C     0.33554   0.16897   0.16653   0.00000  Uiso   1.00
C34    C     0.41280   0.21682   0.18613   0.00000  Uiso   1.00
Cu35   Cu    0.25501   0.17246   0.22813   0.00000  Uiso   1.00
Cu36   Cu    0.24500   0.16087   0.10521   0.00000  Uiso   1.00
H37    H     0.37747   0.08923   0.12426   0.00000  Uiso   1.00
H38    H     0.16483   0.06966   0.15989   0.00000  Uiso   1.00
H39    H     0.12275   0.04390   0.09528   0.00000  Uiso   1.00
H40    H     0.10093   0.30288   0.13853   0.00000  Uiso   1.00
H41    H     0.16065   0.30993   0.14130   0.00000  Uiso   1.00
H42    H     0.13546   0.00008   0.20970   0.00000  Uiso   1.00
H43    H     0.49428   0.32471   0.07229   0.00000  Uiso   1.00
H44    H     0.04816   0.02254   0.06569   0.00000  Uiso   1.00
H45    H     0.03568   0.00321   0.13606   0.00000  Uiso   1.00
H46    H     0.00612   0.00328   0.28313   0.00000  Uiso   1.00
H47    H     0.46247   0.33321   0.22384   0.00000  Uiso   1.00
H48    H     0.12242   0.24474   0.20495   0.00000  Uiso   1.00
H49    H     0.45254   0.30247   0.28652   0.00000  Uiso   1.00
H50    H     0.22283   0.00415   0.00613   0.00000  Uiso   1.00
H51    H     0.18639   0.01319   0.06480   0.00000  Uiso   1.00
H52    H     0.17001   0.24891   0.04782   0.00000  Uiso   1.00
H53    H     0.15192   0.27512   0.31744   0.00000  Uiso   1.00
H54    H     0.20223   0.24394   0.31647   0.00000  Uiso   1.00
H55    H     0.32730   0.05404   0.23976   0.00000  Uiso   1.00
H56    H     0.32639   0.32348   0.25600   0.00000  Uiso   1.00
H57    H     0.30855   0.02460   0.02651   0.00000  Uiso   1.00
H58    H     0.35820   0.06187   0.01148   0.00000  Uiso   1.00
H59    H     0.43942   0.04185   0.09915   0.00000  Uiso   1.00
H60    H     0.30500   0.08780   0.01141   0.00000  Uiso   1.00
H61    H     0.18091   0.09917   0.00904   0.00000  Uiso   1.00
H62    H     0.17012   0.15485   0.31497   0.00000  Uiso   1.00
H63    H     0.19699   0.10204   0.27027   0.00000  Uiso   1.00
H64    H     0.31918   0.23391   0.32451   0.00000  Uiso   1.00
H65    H     0.30295   0.23003   0.06295   0.00000  Uiso   1.00
H66    H     0.32963   0.17738   0.01733   0.00000  Uiso   1.00
H67    H     0.06090   0.29247   0.23641   0.00000  Uiso   1.00
H68    H     0.38213   0.24325   0.09562   0.00000  Uiso   1.00
H69    H     0.43025   0.29006   0.12730   0.00000  Uiso   1.00
H70    H     0.38020   0.02050   0.17076   0.00000  Uiso   1.00
H71    H     0.36641   0.32965   0.08864   0.00000  Uiso   1.00
H72    H     0.33199   0.30624   0.14033   0.00000  Uiso   1.00
N73    N     0.23745   0.15214   0.01284   0.00000  Uiso   1.00
N74    N     0.26256   0.18119   0.32049   0.00000  Uiso   1.00
O75    O     0.25326   0.09538   0.20659   0.00000  Uiso   1.00
O76    O     0.09975   0.07412   0.17963   0.00000  Uiso   1.00
O77    O     0.24588   0.31283   0.08186   0.00000  Uiso   1.00
O78    O     0.26416   0.01924   0.24943   0.00000  Uiso   1.00
O79    O     0.24675   0.23796   0.12674   0.00000  Uiso   1.00
O80    O     0.24480   0.08559   0.10279   0.00000  Uiso   1.00
O81    O     0.25520   0.24774   0.23055   0.00000  Uiso   1.00
O82    O     0.18936   0.17155   0.21857   0.00000  Uiso   1.00
O83    O     0.31065   0.16179   0.11476   0.00000  Uiso   1.00
O84    O     0.18090   0.16176   0.11477   0.00000  Uiso   1.00
O85    O     0.31910   0.17157   0.21857   0.00000  Uiso   1.00
O86    O     0.39452   0.26284   0.19158   0.00000  Uiso   1.00
C87    C     0.74953   0.06680   0.15090   0.00000  Uiso   1.00
C88    C     0.58662   0.11546   0.15769   0.00000  Uiso   1.00
C89    C     0.88389   0.17006   0.16580   0.00000  Uiso   1.00
C90    C     0.61581   0.16271   0.16921   0.00000  Uiso   1.00
C91    C     0.90070   0.12400   0.14277   0.00000  Uiso   1.00
C92    C     0.59907   0.20976   0.18891   0.00000  Uiso   1.00
C93    C     0.94673   0.12271   0.14321   0.00000  Uiso   1.00
C94    C     0.55318   0.21149   0.19128   0.00000  Uiso   1.00
C95    C     0.97667   0.16829   0.16786   0.00000  Uiso   1.00
C96    C     0.52320   0.16582   0.16868   0.00000  Uiso   1.00
C97    C     0.96001   0.21610   0.19136   0.00000  Uiso   1.00
C98    C     0.75204   0.26655   0.18203   0.00000  Uiso   1.00
C99    C     0.53982   0.11735   0.14929   0.00000  Uiso   1.00
C100   C     0.96290   0.07593   0.11999   0.00000  Uiso   1.00
C101   C     0.53716   0.25816   0.21674   0.00000  Uiso   1.00
C102   C     0.89542   0.27642   0.13464   0.00000  Uiso   1.00
C103   C     0.86670   0.31953   0.13358   0.00000  Uiso   1.00
C104   C     0.63105   0.04849   0.14520   0.00000  Uiso   1.00
C105   C     0.63199   0.32883   0.15941   0.00000  Uiso   1.00
C106   C     0.52287   0.01950   0.09814   0.00000  Uiso   1.00
C107   C     0.97705   0.31094   0.25478   0.00000  Uiso   1.00
C108   C     0.70941   0.32040   0.04241   0.00000  Uiso   1.00
C109   C     0.50882   0.07206   0.12394   0.00000  Uiso   1.00
C110   C     0.68163   0.26876   0.01263   0.00000  Uiso   1.00
C111   C     0.81118   0.02724   0.26529   0.00000  Uiso   1.00
C112   C     0.82135   0.05198   0.33301   0.00000  Uiso   1.00
C113   C     0.69444   0.12639   0.31576   0.00000  Uiso   1.00
C114   C     0.80561   0.20630   0.01729   0.00000  Uiso   1.00
C115   C     0.99107   0.26095   0.21890   0.00000  Uiso   1.00
C116   C     0.74826   0.01051   0.14130   0.00000  Uiso   1.00
C117   C     0.75525   0.32257   0.19013   0.00000  Uiso   1.00
C118   C     0.66435   0.16467   0.16714   0.00000  Uiso   1.00
C119   C     0.83554   0.16897   0.16653   0.00000  Uiso   1.00
C120   C     0.91280   0.21682   0.18613   0.00000  Uiso   1.00
Cu121  Cu    0.75501   0.17246   0.22813   0.00000  Uiso   1.00
Cu122  Cu    0.74500   0.16087   0.10521   0.00000  Uiso   1.00
H123   H     0.87747   0.08923   0.12426   0.00000  Uiso   1.00
H124   H     0.66483   0.06966   0.15989   0.00000  Uiso   1.00
H125   H     0.62275   0.04390   0.09528   0.00000  Uiso   1.00
H126   H     0.60093   0.30288   0.13853   0.00000  Uiso   1.00
H127   H     0.66065   0.30993   0.14130   0.00000  Uiso   1.00
H128   H     0.63546   0.00008   0.20970   0.00000  Uiso   1.00
H129   H     0.99428   0.32471   0.07229   0.00000  Uiso   1.00
H130   H     0.54816   0.02254   0.06569   0.00000  Uiso   1.00
H131   H     0.53568   0.00321   0.13606   0.00000  Uiso   1.00
H132   H     0.50612   0.00328   0.28313   0.00000  Uiso   1.00
H133   H     0.96247   0.33321   0.22384   0.00000  Uiso   1.00
H134   H     0.62242   0.24474   0.20495   0.00000  Uiso   1.00
H135   H     0.95254   0.30247   0.28652   0.00000  Uiso   1.00
H136   H     0.72283   0.00415   0.00613   0.00000  Uiso   1.00
H137   H     0.68639   0.01319   0.06480   0.00000  Uiso   1.00
H138   H     0.67001   0.24891   0.04782   0.00000  Uiso   1.00
H139   H     0.65192   0.27512   0.31744   0.00000  Uiso   1.00
H140   H     0.70223   0.24394   0.31647   0.00000  Uiso   1.00
H141   H     0.82730   0.05404   0.23976   0.00000  Uiso   1.00
H142   H     0.82639   0.32348   0.25600   0.00000  Uiso   1.00
H143   H     0.80855   0.02460   0.02651   0.00000  Uiso   1.00
H144   H     0.85820   0.06187   0.01148   0.00000  Uiso   1.00
H145   H     0.93942   0.04185   0.09915   0.00000  Uiso   1.00
H146   H     0.80500   0.08780   0.01141   0.00000  Uiso   1.00
H147   H     0.68091   0.09917   0.00904   0.00000  Uiso   1.00
H148   H     0.67012   0.15485   0.31497   0.00000  Uiso   1.00
H149   H     0.69699   0.10204   0.27027   0.00000  Uiso   1.00
H150   H     0.81918   0.23391   0.32451   0.00000  Uiso   1.00
H151   H     0.80295   0.23003   0.06295   0.00000  Uiso   1.00
H152   H     0.82963   0.17738   0.01733   0.00000  Uiso   1.00
H153   H     0.56090   0.29247   0.23641   0.00000  Uiso   1.00
H154   H     0.88213   0.24325   0.09562   0.00000  Uiso   1.00
H155   H     0.93025   0.29006   0.12730   0.00000  Uiso   1.00
H156   H     0.88020   0.02050   0.17076   0.00000  Uiso   1.00
H157   H     0.86641   0.32965   0.08864   0.00000  Uiso   1.00
H158   H     0.83199   0.30624   0.14033   0.00000  Uiso   1.00
N159   N     0.73745   0.15214   0.01284   0.00000  Uiso   1.00
N160   N     0.76256   0.18119   0.32049   0.00000  Uiso   1.00
O161   O     0.75326   0.09538   0.20659   0.00000  Uiso   1.00
O162   O     0.59975   0.07412   0.17963   0.00000  Uiso   1.00
O163   O     0.74588   0.31283   0.08186   0.00000  Uiso   1.00
O164   O     0.76416   0.01924   0.24943   0.00000  Uiso   1.00
O165   O     0.74675   0.23796   0.12674   0.00000  Uiso   1.00
O166   O     0.74480   0.08559   0.10279   0.00000  Uiso   1.00
O167   O     0.75520   0.24774   0.23055   0.00000  Uiso   1.00
O168   O     0.68936   0.17155   0.21857   0.00000  Uiso   1.00
O169   O     0.81065   0.16179   0.11476   0.00000  Uiso   1.00
O170   O     0.68090   0.16176   0.11477   0.00000  Uiso   1.00
O171   O     0.81910   0.17157   0.21857   0.00000  Uiso   1.00
O172   O     0.89452   0.26284   0.19158   0.00000  Uiso   1.00
C173   C     0.24953   0.40013   0.15090   0.00000  Uiso   1.00
C174   C     0.08662   0.44880   0.15769   0.00000  Uiso   1.00
C175   C     0.38389   0.50340   0.16580   0.00000  Uiso   1.00
C176   C     0.11581   0.49605   0.16921   0.00000  Uiso   1.00
C177   C     0.40070   0.45733   0.14277   0.00000  Uiso   1.00
C178   C     0.09907   0.54309   0.18891   0.00000  Uiso   1.00
C179   C     0.44673   0.45605   0.14321   0.00000  Uiso   1.00
C180   C     0.05318   0.54482   0.19128   0.00000  Uiso   1.00
C181   C     0.47667   0.50162   0.16786   0.00000  Uiso   1.00
C182   C     0.02320   0.49915   0.16868   0.00000  Uiso   1.00
C183   C     0.46001   0.54943   0.19136   0.00000  Uiso   1.00
C184   C     0.25204   0.59989   0.18203   0.00000  Uiso   1.00
C185   C     0.03982   0.45069   0.14929   0.00000  Uiso   1.00
C186   C     0.46290   0.40926   0.11999   0.00000  Uiso   1.00
C187   C     0.03716   0.59150   0.21674   0.00000  Uiso   1.00
C188   C     0.39542   0.60976   0.13464   0.00000  Uiso   1.00
C189   C     0.36670   0.65286   0.13358   0.00000  Uiso   1.00
C190   C     0.13105   0.38182   0.14520   0.00000  Uiso   1.00
C191   C     0.13199   0.66217   0.15941   0.00000  Uiso   1.00
C192   C     0.02287   0.35284   0.09814   0.00000  Uiso   1.00
C193   C     0.47705   0.64427   0.25478   0.00000  Uiso   1.00
C194   C     0.20941   0.65374   0.04241   0.00000  Uiso   1.00
C195   C     0.00882   0.40539   0.12394   0.00000  Uiso   1.00
C196   C     0.18163   0.60210   0.01263   0.00000  Uiso   1.00
C197   C     0.31118   0.36057   0.26529   0.00000  Uiso   1.00
C198   C     0.32135   0.38531   0.33301   0.00000  Uiso   1.00
C199   C     0.19444   0.45972   0.31576   0.00000  Uiso   1.00
C200   C     0.30561   0.53963   0.01729   0.00000  Uiso   1.00
C201   C     0.49107   0.59429   0.21890   0.00000  Uiso   1.00
C202   C     0.24826   0.34384   0.14130   0.00000  Uiso   1.00
C203   C     0.25525   0.65590   0.19013   0.00000  Uiso   1.00
C204   C     0.16435   0.49800   0.16714   0.00000  Uiso   1.00
C205   C     0.33554   0.50230   0.16653   0.00000  Uiso   1.00
C206   C     0.41280   0.55015   0.18613   0.00000  Uiso   1.00
Cu207  Cu    0.25501   0.50579   0.22813   0.00000  Uiso   1.00
Cu208  Cu    0.24500   0.49421   0.10521   0.00000  Uiso   1.00
H209   H     0.37747   0.42256   0.12426   0.00000  Uiso   1.00
H210   H     0.16483   0.40299   0.15989   0.00000  Uiso   1.00
H211   H     0.12275   0.37723   0.09528   0.00000  Uiso   1.00
H212   H     0.10093   0.63621   0.13853   0.00000  Uiso   1.00
H213   H     0.16065   0.64327   0.14130   0.00000  Uiso   1.00
H214   H     0.13546   0.33341   0.20970   0.00000  Uiso   1.00
H215   H     0.49428   0.65804   0.07229   0.00000  Uiso   1.00
H216   H     0.04816   0.35587   0.06569   0.00000  Uiso   1.00
H217   H     0.03568   0.33655   0.13606   0.00000  Uiso   1.00
H218   H     0.00612   0.33661   0.28313   0.00000  Uiso   1.00
H219   H     0.46247   0.66654   0.22384   0.00000  Uiso   1.00
H220   H     0.12242   0.57807   0.20495   0.00000  Uiso   1.00
H221   H     0.45254   0.63580   0.28652   0.00000  Uiso   1.00
H222   H     0.22283   0.33748   0.00613   0.00000  Uiso   1.00
H223   H     0.18639   0.34652   0.06480   0.00000  Uiso   1.00
H224   H     0.17001   0.58224   0.04782   0.00000  Uiso   1.00
H225   H     0.15192   0.60846   0.31744   0.00000  Uiso   1.00
H226   H     0.20223   0.57727   0.31647   0.00000  Uiso   1.00
H227   H     0.32730   0.38737   0.23976   0.00000  Uiso   1.00
H228   H     0.32639   0.65681   0.25600   0.00000  Uiso   1.00
H229   H     0.30855   0.35793   0.02651   0.00000  Uiso   1.00
H230   H     0.35820   0.39520   0.01148   0.00000  Uiso   1.00
H231   H     0.43942   0.37519   0.09915   0.00000  Uiso   1.00
H232   H     0.30500   0.42114   0.01141   0.00000  Uiso   1.00
H233   H     0.18091   0.43251   0.00904   0.00000  Uiso   1.00
H234   H     0.17012   0.48818   0.31497   0.00000  Uiso   1.00
H235   H     0.19699   0.43537   0.27027   0.00000  Uiso   1.00
H236   H     0.31918   0.56725   0.32451   0.00000  Uiso   1.00
H237   H     0.30295   0.56337   0.06295   0.00000  Uiso   1.00
H238   H     0.32963   0.51072   0.01733   0.00000  Uiso   1.00
H239   H     0.06090   0.62581   0.23641   0.00000  Uiso   1.00
H240   H     0.38213   0.57658   0.09562   0.00000  Uiso   1.00
H241   H     0.43025   0.62340   0.12730   0.00000  Uiso   1.00
H242   H     0.38020   0.35383   0.17076   0.00000  Uiso   1.00
H243   H     0.36641   0.66299   0.08864   0.00000  Uiso   1.00
H244   H     0.33199   0.63957   0.14033   0.00000  Uiso   1.00
N245   N     0.23745   0.48547   0.01284   0.00000  Uiso   1.00
N246   N     0.26256   0.51453   0.32049   0.00000  Uiso   1.00
O247   O     0.25326   0.42871   0.20659   0.00000  Uiso   1.00
O248   O     0.09975   0.40745   0.17963   0.00000  Uiso   1.00
O249   O     0.24588   0.64616   0.08186   0.00000  Uiso   1.00
O250   O     0.26416   0.35257   0.24943   0.00000  Uiso   1.00
O251   O     0.24675   0.57129   0.12674   0.00000  Uiso   1.00
O252   O     0.24480   0.41892   0.10279   0.00000  Uiso   1.00
O253   O     0.25520   0.58108   0.23055   0.00000  Uiso   1.00
O254   O     0.18936   0.50488   0.21857   0.00000  Uiso   1.00
O255   O     0.31065   0.49512   0.11476   0.00000  Uiso   1.00
O256   O     0.18090   0.49510   0.11477   0.00000  Uiso   1.00
O257   O     0.31910   0.50490   0.21857   0.00000  Uiso   1.00
O258   O     0.39452   0.59617   0.19158   0.00000  Uiso   1.00
C259   C     0.74953   0.40013   0.15090   0.00000  Uiso   1.00
C260   C     0.58662   0.44880   0.15769   0.00000  Uiso   1.00
C261   C     0.88389   0.50340   0.16580   0.00000  Uiso   1.00
C262   C     0.61581   0.49605   0.16921   0.00000  Uiso   1.00
C263   C     0.90070   0.45733   0.14277   0.00000  Uiso   1.00
C264   C     0.59907   0.54309   0.18891   0.00000  Uiso   1.00
C265   C     0.94673   0.45605   0.14321   0.00000  Uiso   1.00
C266   C     0.55318   0.54482   0.19128   0.00000  Uiso   1.00
C267   C     0.97667   0.50162   0.16786   0.00000  Uiso   1.00
C268   C     0.52320   0.49915   0.16868   0.00000  Uiso   1.00
C269   C     0.96001   0.54943   0.19136   0.00000  Uiso   1.00
C270   C     0.75204   0.59989   0.18203   0.00000  Uiso   1.00
C271   C     0.53982   0.45069   0.14929   0.00000  Uiso   1.00
C272   C     0.96290   0.40926   0.11999   0.00000  Uiso   1.00
C273   C     0.53716   0.59150   0.21674   0.00000  Uiso   1.00
C274   C     0.89542   0.60976   0.13464   0.00000  Uiso   1.00
C275   C     0.86670   0.65286   0.13358   0.00000  Uiso   1.00
C276   C     0.63105   0.38182   0.14520   0.00000  Uiso   1.00
C277   C     0.63199   0.66217   0.15941   0.00000  Uiso   1.00
C278   C     0.52287   0.35284   0.09814   0.00000  Uiso   1.00
C279   C     0.97705   0.64427   0.25478   0.00000  Uiso   1.00
C280   C     0.70941   0.65374   0.04241   0.00000  Uiso   1.00
C281   C     0.50882   0.40539   0.12394   0.00000  Uiso   1.00
C282   C     0.68163   0.60210   0.01263   0.00000  Uiso   1.00
C283   C     0.81118   0.36057   0.26529   0.00000  Uiso   1.00
C284   C     0.82135   0.38531   0.33301   0.00000  Uiso   1.00
C285   C     0.69444   0.45972   0.31576   0.00000  Uiso   1.00
C286   C     0.80561   0.53963   0.01729   0.00000  Uiso   1.00
C287   C     0.99107   0.59429   0.21890   0.00000  Uiso   1.00
C288   C     0.74826   0.34384   0.14130   0.00000  Uiso   1.00
C289   C     0.75525   0.65590   0.19013   0.00000  Uiso   1.00
C290   C     0.66435   0.49800   0.16714   0.00000  Uiso   1.00
C291   C     0.83554   0.50230   0.16653   0.00000  Uiso   1.00
C292   C     0.91280   0.55015   0.18613   0.00000  Uiso   1.00
Cu293  Cu    0.75501   0.50579   0.22813   0.00000  Uiso   1.00
Cu294  Cu    0.74500   0.49421   0.10521   0.00000  Uiso   1.00
H295   H     0.87747   0.42256   0.12426   0.00000  Uiso   1.00
H296   H     0.66483   0.40299   0.15989   0.00000  Uiso   1.00
H297   H     0.62275   0.37723   0.09528   0.00000  Uiso   1.00
H298   H     0.60093   0.63621   0.13853   0.00000  Uiso   1.00
H299   H     0.66065   0.64327   0.14130   0.00000  Uiso   1.00
H300   H     0.63546   0.33341   0.20970   0.00000  Uiso   1.00
H301   H     0.99428   0.65804   0.07229   0.00000  Uiso   1.00
H302   H     0.54816   0.35587   0.06569   0.00000  Uiso   1.00
H303   H     0.53568   0.33655   0.13606   0.00000  Uiso   1.00
H304   H     0.50612   0.33661   0.28313   0.00000  Uiso   1.00
H305   H     0.96247   0.66654   0.22384   0.00000  Uiso   1.00
H306   H     0.62242   0.57807   0.20495   0.00000  Uiso   1.00
H307   H     0.95254   0.63580   0.28652   0.00000  Uiso   1.00
H308   H     0.72283   0.33748   0.00613   0.00000  Uiso   1.00
H309   H     0.68639   0.34652   0.06480   0.00000  Uiso   1.00
H310   H     0.67001   0.58224   0.04782   0.00000  Uiso   1.00
H311   H     0.65192   0.60846   0.31744   0.00000  Uiso   1.00
H312   H     0.70223   0.57727   0.31647   0.00000  Uiso   1.00
H313   H     0.82730   0.38737   0.23976   0.00000  Uiso   1.00
H314   H     0.82639   0.65681   0.25600   0.00000  Uiso   1.00
H315   H     0.80855   0.35793   0.02651   0.00000  Uiso   1.00
H316   H     0.85820   0.39520   0.01148   0.00000  Uiso   1.00
H317   H     0.93942   0.37519   0.09915   0.00000  Uiso   1.00
H318   H     0.80500   0.42114   0.01141   0.00000  Uiso   1.00
H319   H     0.68091   0.43251   0.00904   0.00000  Uiso   1.00
H320   H     0.67012   0.48818   0.31497   0.00000  Uiso   1.00
H321   H     0.69699   0.43537   0.27027   0.00000  Uiso   1.00
H322   H     0.81918   0.56725   0.32451   0.00000  Uiso   1.00
H323   H     0.80295   0.56337   0.06295   0.00000  Uiso   1.00
H324   H     0.82963   0.51072   0.01733   0.00000  Uiso   1.00
H325   H     0.56090   0.62581   0.23641   0.00000  Uiso   1.00
H326   H     0.88213   0.57658   0.09562   0.00000  Uiso   1.00
H327   H     0.93025   0.62340   0.12730   0.00000  Uiso   1.00
H328   H     0.88020   0.35383   0.17076   0.00000  Uiso   1.00
H329   H     0.86641   0.66299   0.08864   0.00000  Uiso   1.00
H330   H     0.83199   0.63957   0.14033   0.00000  Uiso   1.00
N331   N     0.73745   0.48547   0.01284   0.00000  Uiso   1.00
N332   N     0.76256   0.51453   0.32049   0.00000  Uiso   1.00
O333   O     0.75326   0.42871   0.20659   0.00000  Uiso   1.00
O334   O     0.59975   0.40745   0.17963   0.00000  Uiso   1.00
O335   O     0.74588   0.64616   0.08186   0.00000  Uiso   1.00
O336   O     0.76416   0.35257   0.24943   0.00000  Uiso   1.00
O337   O     0.74675   0.57129   0.12674   0.00000  Uiso   1.00
O338   O     0.74480   0.41892   0.10279   0.00000  Uiso   1.00
O339   O     0.75520   0.58108   0.23055   0.00000  Uiso   1.00
O340   O     0.68936   0.50488   0.21857   0.00000  Uiso   1.00
O341   O     0.81065   0.49512   0.11476   0.00000  Uiso   1.00
O342   O     0.68090   0.49510   0.11477   0.00000  Uiso   1.00
O343   O     0.81910   0.50490   0.21857   0.00000  Uiso   1.00
O344   O     0.89452   0.59617   0.19158   0.00000  Uiso   1.00
C345   C     0.24953   0.73347   0.15090   0.00000  Uiso   1.00
C346   C     0.08662   0.78213   0.15769   0.00000  Uiso   1.00
C347   C     0.38389   0.83673   0.16580   0.00000  Uiso   1.00
C348   C     0.11581   0.82938   0.16921   0.00000  Uiso   1.00
C349   C     0.40070   0.79066   0.14277   0.00000  Uiso   1.00
C350   C     0.09907   0.87643   0.18891   0.00000  Uiso   1.00
C351   C     0.44673   0.78938   0.14321   0.00000  Uiso   1.00
C352   C     0.05318   0.87816   0.19128   0.00000  Uiso   1.00
C353   C     0.47667   0.83496   0.16786   0.00000  Uiso   1.00
C354   C     0.02320   0.83248   0.16868   0.00000  Uiso   1.00
C355   C     0.46001   0.88276   0.19136   0.00000  Uiso   1.00
C356   C     0.25204   0.93322   0.18203   0.00000  Uiso   1.00
C357   C     0.03982   0.78402   0.14929   0.00000  Uiso   1.00
C358   C     0.46290   0.74260   0.11999   0.00000  Uiso   1.00
C359   C     0.03716   0.92483   0.21674   0.00000  Uiso   1.00
C360   C     0.39542   0.94309   0.13464   0.00000  Uiso   1.00
C361   C     0.36670   0.98619   0.13358   0.00000  Uiso   1.00
C362   C     0.13105   0.71516   0.14520   0.00000  Uiso   1.00
C363   C     0.13199   0.99550   0.15941   0.00000  Uiso   1.00
C364   C     0.02287   0.68617   0.09814   0.00000  Uiso   1.00
C365   C     0.47705   0.97761   0.25478   0.00000  Uiso   1.00
C366   C     0.20941   0.98707   0.04241   0.00000  Uiso   1.00
C367   C     0.00882   0.73872   0.12394   0.00000  Uiso   1.00
C368   C     0.18163   0.93543   0.01263   0.00000  Uiso   1.00
C369   C     0.31118   0.69391   0.26529   0.00000  Uiso   1.00
C370   C     0.32135   0.71865   0.33301   0.00000  Uiso   1.00
C371   C     0.19444   0.79306   0.31576   0.00000  Uiso   1.00
C372   C     0.30561   0.87297   0.01729   0.00000  Uiso   1.00
C373   C     0.49107   0.92762   0.21890   0.00000  Uiso   1.00
C374   C     0.24826   0.67718   0.14130   0.00000  Uiso   1.00
C375   C     0.25525   0.98923   0.19013   0.00000  Uiso   1.00
C376   C     0.16435   0.83134   0.16714   0.00000  Uiso   1.00
C377   C     0.33554   0.83563   0.16653   0.00000  Uiso   1.00
C378   C     0.41280   0.88348   0.18613   0.00000  Uiso   1.00
Cu379  Cu    0.25501   0.83913   0.22813   0.00000  Uiso   1.00
Cu380  Cu    0.24500   0.82754   0.10521   0.00000  Uiso   1.00
H381   H     0.37747   0.75589   0.12426   0.00000  Uiso   1.00
H382   H     0.16483   0.73633   0.15989   0.00000  Uiso   1.00
H383   H     0.12275   0.71057   0.09528   0.00000  Uiso   1.00
H384   H     0.10093   0.96954   0.13853   0.00000  Uiso   1.00
H385   H     0.16065   0.97660   0.14130   0.00000  Uiso   1.00
H386   H     0.13546   0.66675   0.20970   0.00000  Uiso   1.00
H387   H     0.49428   0.99137   0.07229   0.00000  Uiso   1.00
H388   H     0.04816   0.68921   0.06569   0.00000  Uiso   1.00
H389   H     0.03568   0.66988   0.13606   0.00000  Uiso   1.00
H390   H     0.00612   0.66994   0.28313   0.00000  Uiso   1.00
H391   H     0.46247   0.99988   0.22384   0.00000  Uiso   1.00
H392   H     0.12242   0.91140   0.20495   0.00000  Uiso   1.00
H393   H     0.45254   0.96914   0.28652   0.00000  Uiso   1.00
H394   H     0.22283   0.67082   0.00613   0.00000  Uiso   1.00
H395   H     0.18639   0.67986   0.06480   0.00000  Uiso   1.00
H396   H     0.17001   0.91557   0.04782   0.00000  Uiso   1.00
H397   H     0.15192   0.94179   0.31744   0.00000  Uiso   1.00
H398   H     0.20223   0.91060   0.31647   0.00000  Uiso   1.00
H399   H     0.32730   0.72071   0.23976   0.00000  Uiso   1.00
H400   H     0.32639   0.99014   0.25600   0.00000  Uiso   1.00
H401   H     0.30855   0.69126   0.02651   0.00000  Uiso   1.00
H402   H     0.35820   0.72854   0.01148   0.00000  Uiso   1.00
H403   H     0.43942   0.70852   0.09915   0.00000  Uiso   1.00
H404   H     0.30500   0.75447   0.01141   0.00000  Uiso   1.00
H405   H     0.18091   0.76584   0.00904   0.00000  Uiso   1.00
H406   H     0.17012   0.82151   0.31497   0.00000  Uiso   1.00
H407   H     0.19699   0.76870   0.27027   0.00000  Uiso   1.00
H408   H     0.31918   0.90058   0.32451   0.00000  Uiso   1.00
H409   H     0.30295   0.89670   0.06295   0.00000  Uiso   1.00
H410   H     0.32963   0.84405   0.01733   0.00000  Uiso   1.00
H411   H     0.06090   0.95914   0.23641   0.00000  Uiso   1.00
H412   H     0.38213   0.90991   0.09562   0.00000  Uiso   1.00
H413   H     0.43025   0.95673   0.12730   0.00000  Uiso   1.00
H414   H     0.38020   0.68717   0.17076   0.00000  Uiso   1.00
H415   H     0.36641   0.99632   0.08864   0.00000  Uiso   1.00
H416   H     0.33199   0.97291   0.14033   0.00000  Uiso   1.00
N417   N     0.23745   0.81881   0.01284   0.00000  Uiso   1.00
N418   N     0.26256   0.84786   0.32049   0.00000  Uiso   1.00
O419   O     0.25326   0.76204   0.20659   0.00000  Uiso   1.00
O420   O     0.09975   0.74079   0.17963   0.00000  Uiso   1.00
O421   O     0.24588   0.97950   0.08186   0.00000  Uiso   1.00
O422   O     0.26416   0.68591   0.24943   0.00000  Uiso   1.00
O423   O     0.24675   0.90462   0.12674   0.00000  Uiso   1.00
O424   O     0.24480   0.75226   0.10279   0.00000  Uiso   1.00
O425   O     0.25520   0.91441   0.23055   0.00000  Uiso   1.00
O426   O     0.18936   0.83821   0.21857   0.00000  Uiso   1.00
O427   O     0.31065   0.82845   0.11476   0.00000  Uiso   1.00
O428   O     0.18090   0.82843   0.11477   0.00000  Uiso   1.00
O429   O     0.31910   0.83824   0.21857   0.00000  Uiso   1.00
O430   O     0.39452   0.92950   0.19158   0.00000  Uiso   1.00
C431   C     0.74953   0.73347   0.15090   0.00000  Uiso   1.00
C432   C     0.58662   0.78213   0.15769   0.00000  Uiso   1.00
C433   C     0.88389   0.83673   0.16580   0.00000  Uiso   1.00
C434   C     0.61581   0.82938   0.16921   0.00000  Uiso   1.00
C435   C     0.90070   0.79066   0.14277   0.00000  Uiso   1.00
C436   C     0.59907   0.87643   0.18891   0.00000  Uiso   1.00
C437   C     0.94673   0.78938   0.14321   0.00000  Uiso   1.00
C438   C     0.55318   0.87816   0.19128   0.00000  Uiso   1.00
C439   C     0.97667   0.83496   0.16786   0.00000  Uiso   1.00
C440   C     0.52320   0.83248   0.16868   0.00000  Uiso   1.00
C441   C     0.96001   0.88276   0.19136   0.00000  Uiso   1.00
C442   C     0.75204   0.93322   0.18203   0.00000  Uiso   1.00
C443   C     0.53982   0.78402   0.14929   0.00000  Uiso   1.00
C444   C     0.96290   0.74260   0.11999   0.00000  Uiso   1.00
C445   C     0.53716   0.92483   0.21674   0.00000  Uiso   1.00
C446   C     0.89542   0.94309   0.13464   0.00000  Uiso   1.00
C447   C     0.86670   0.98619   0.13358   0.00000  Uiso   1.00
C448   C     0.63105   0.71516   0.14520   0.00000  Uiso   1.00
C449   C     0.63199   0.99550   0.15941   0.00000  Uiso   1.00
C450   C     0.52287   0.68617   0.09814   0.00000  Uiso   1.00
C451   C     0.97705   0.97761   0.25478   0.00000  Uiso   1.00
C452   C     0.70941   0.98707   0.04241   0.00000  Uiso   1.00
C453   C     0.50882   0.73872   0.12394   0.00000  Uiso   1.00
C454   C     0.68163   0.93543   0.01263   0.00000  Uiso   1.00
C455   C     0.81118   0.69391   0.26529   0.00000  Uiso   1.00
C456   C     0.82135   0.71865   0.33301   0.00000  Uiso   1.00
C457   C     0.69444   0.79306   0.31576   0.00000  Uiso   1.00
C458   C     0.80561   0.87297   0.01729   0.00000  Uiso   1.00
C459   C     0.99107   0.92762   0.21890   0.00000  Uiso   1.00
C460   C     0.74826   0.67718   0.14130   0.00000  Uiso   1.00
C461   C     0.75525   0.98923   0.19013   0.00000  Uiso   1.00
C462   C     0.66435   0.83134   0.16714   0.00000  Uiso   1.00
C463   C     0.83554   0.83563   0.16653   0.00000  Uiso   1.00
C464   C     0.91280   0.88348   0.18613   0.00000  Uiso   1.00
Cu465  Cu    0.75501   0.83913   0.22813   0.00000  Uiso   1.00
Cu466  Cu    0.74500   0.82754   0.10521   0.00000  Uiso   1.00
H467   H     0.87747   0.75589   0.12426   0.00000  Uiso   1.00
H468   H     0.66483   0.73633   0.15989   0.00000  Uiso   1.00
H469   H     0.62275   0.71057   0.09528   0.00000  Uiso   1.00
H470   H     0.60093   0.96954   0.13853   0.00000  Uiso   1.00
H471   H     0.66065   0.97660   0.14130   0.00000  Uiso   1.00
H472   H     0.63546   0.66675   0.20970   0.00000  Uiso   1.00
H473   H     0.99428   0.99137   0.07229   0.00000  Uiso   1.00
H474   H     0.54816   0.68921   0.06569   0.00000  Uiso   1.00
H475   H     0.53568   0.66988   0.13606   0.00000  Uiso   1.00
H476   H     0.50612   0.66994   0.28313   0.00000  Uiso   1.00
H477   H     0.96247   0.99988   0.22384   0.00000  Uiso   1.00
H478   H     0.62242   0.91140   0.20495   0.00000  Uiso   1.00
H479   H     0.95254   0.96914   0.28652   0.00000  Uiso   1.00
H480   H     0.72283   0.67082   0.00613   0.00000  Uiso   1.00
H481   H     0.68639   0.67986   0.06480   0.00000  Uiso   1.00
H482   H     0.67001   0.91557   0.04782   0.00000  Uiso   1.00
H483   H     0.65192   0.94179   0.31744   0.00000  Uiso   1.00
H484   H     0.70223   0.91060   0.31647   0.00000  Uiso   1.00
H485   H     0.82730   0.72071   0.23976   0.00000  Uiso   1.00
H486   H     0.82639   0.99014   0.25600   0.00000  Uiso   1.00
H487   H     0.80855   0.69126   0.02651   0.00000  Uiso   1.00
H488   H     0.85820   0.72854   0.01148   0.00000  Uiso   1.00
H489   H     0.93942   0.70852   0.09915   0.00000  Uiso   1.00
H490   H     0.80500   0.75447   0.01141   0.00000  Uiso   1.00
H491   H     0.68091   0.76584   0.00904   0.00000  Uiso   1.00
H492   H     0.67012   0.82151   0.31497   0.00000  Uiso   1.00
H493   H     0.69699   0.76870   0.27027   0.00000  Uiso   1.00
H494   H     0.81918   0.90058   0.32451   0.00000  Uiso   1.00
H495   H     0.80295   0.89670   0.06295   0.00000  Uiso   1.00
H496   H     0.82963   0.84405   0.01733   0.00000  Uiso   1.00
H497   H     0.56090   0.95914   0.23641   0.00000  Uiso   1.00
H498   H     0.88213   0.90991   0.09562   0.00000  Uiso   1.00
H499   H     0.93025   0.95673   0.12730   0.00000  Uiso   1.00
H500   H     0.88020   0.68717   0.17076   0.00000  Uiso   1.00
H501   H     0.86641   0.99632   0.08864   0.00000  Uiso   1.00
H502   H     0.83199   0.97291   0.14033   0.00000  Uiso   1.00
N503   N     0.73745   0.81881   0.01284   0.00000  Uiso   1.00
N504   N     0.76256   0.84786   0.32049   0.00000  Uiso   1.00
O505   O     0.75326   0.76204   0.20659   0.00000  Uiso   1.00
O506   O     0.59975   0.74079   0.17963   0.00000  Uiso   1.00
O507   O     0.74588   0.97950   0.08186   0.00000  Uiso   1.00
O508   O     0.76416   0.68591   0.24943   0.00000  Uiso   1.00
O509   O     0.74675   0.90462   0.12674   0.00000  Uiso   1.00
O510   O     0.74480   0.75226   0.10279   0.00000  Uiso   1.00
O511   O     0.75520   0.91441   0.23055   0.00000  Uiso   1.00
O512   O     0.68936   0.83821   0.21857   0.00000  Uiso   1.00
O513   O     0.81065   0.82845   0.11476   0.00000  Uiso   1.00
O514   O     0.68090   0.82843   0.11477   0.00000  Uiso   1.00
O515   O     0.81910   0.83824   0.21857   0.00000  Uiso   1.00
O516   O     0.89452   0.92950   0.19158   0.00000  Uiso   1.00
C517   C     0.24953   0.06680   0.48424   0.00000  Uiso   1.00
C518   C     0.08662   0.11546   0.49102   0.00000  Uiso   1.00
C519   C     0.38389   0.17006   0.49913   0.00000  Uiso   1.00
C520   C     0.11581   0.16271   0.50254   0.00000  Uiso   1.00
C521   C     0.40070   0.12400   0.47610   0.00000  Uiso   1.00
C522   C     0.09907   0.20976   0.52224   0.00000  Uiso   1.00
C523   C     0.44673   0.12271   0.47654   0.00000  Uiso   1.00
C524   C     0.05318   0.21149   0.52462   0.00000  Uiso   1.00
C525   C     0.47667   0.16829   0.50119   0.00000  Uiso   1.00
C526   C     0.02320   0.16582   0.50202   0.00000  Uiso   1.00
C527   C     0.46001   0.21610   0.52469   0.00000  Uiso   1.00
C528   C     0.25204   0.26655   0.51536   0.00000  Uiso   1.00
C529   C     0.03982   0.11735   0.48262   0.00000  Uiso   1.00
C530   C     0.46290   0.07593   0.45332   0.00000  Uiso   1.00
C531   C     0.03716   0.25816   0.55007   0.00000  Uiso   1.00
C532   C     0.39542   0.27642   0.46797   0.00000  Uiso   1.00
C533   C     0.36670   0.31953   0.46691   0.00000  Uiso   1.00
C534   C     0.13105   0.04849   0.47853   0.00000  Uiso   1.00
C535   C     0.13199   0.32883   0.49274   0.00000  Uiso   1.00
C536   C     0.02287   0.01950   0.43147   0.00000  Uiso   1.00
C537   C     0.47705   0.31094   0.58811   0.00000  Uiso   1.00
C538   C     0.20941   0.32040   0.37574   0.00000  Uiso   1.00
C539   C     0.00882   0.07206   0.45727   0.00000  Uiso   1.00
C540   C     0.18163   0.26876   0.34596   0.00000  Uiso   1.00
C541   C     0.31118   0.02724   0.59862   0.00000  Uiso   1.00
C542   C     0.32135   0.05198   0.66635   0.00000  Uiso   1.00
C543   C     0.19444   0.12639   0.64909   0.00000  Uiso   1.00
C544   C     0.30561   0.20630   0.35062   0.00000  Uiso   1.00
C545   C     0.49107   0.26095   0.55223   0.00000  Uiso   1.00
C546   C     0.24826   0.01051   0.47463   0.00000  Uiso   1.00
C547   C     0.25525   0.32257   0.52346   0.00000  Uiso   1.00
C548   C     0.16435   0.16467   0.50047   0.00000  Uiso   1.00
C549   C     0.33554   0.16897   0.49987   0.00000  Uiso   1.00
C550   C     0.41280   0.21682   0.51946   0.00000  Uiso   1.00
Cu551  Cu    0.25501   0.17246   0.56146   0.00000  Uiso   1.00
Cu552  Cu    0.24500   0.16087   0.43854   0.00000  Uiso   1.00
H553   H     0.37747   0.08923   0.45760   0.00000  Uiso   1.00
H554   H     0.16483   0.06966   0.49322   0.00000  Uiso   1.00
H555   H     0.12275   0.04390   0.42862   0.00000  Uiso   1.00
H556   H     0.10093   0.30288   0.47186   0.00000  Uiso   1.00
H557   H     0.16065   0.30993   0.47463   0.00000  Uiso   1.00
H558   H     0.13546   0.00008   0.54303   0.00000  Uiso   1.00
H559   H     0.49428   0.32471   0.40562   0.00000  Uiso   1.00
H560   H     0.04816   0.02254   0.39902   0.00000  Uiso   1.00
H561   H     0.03568   0.00321   0.46939   0.00000  Uiso   1.00
H562   H     0.00612   0.00328   0.61647   0.00000  Uiso   1.00
H563   H     0.46247   0.33321   0.55717   0.00000  Uiso   1.00
H564   H     0.12242   0.24474   0.53829   0.00000  Uiso   1.00
H565   H     0.45254   0.30247   0.61985   0.00000  Uiso   1.00
H566   H     0.22283   0.00415   0.33946   0.00000  Uiso   1.00
H567   H     0.18639   0.01319   0.39813   0.00000  Uiso   1.00
H568   H     0.17001   0.24891   0.38115   0.00000  Uiso   1.00
H569   H     0.15192   0.27512   0.65078   0.00000  Uiso   1.00
H570   H     0.20223   0.24394   0.64980   0.00000  Uiso   1.00
H571   H     0.32730   0.05404   0.57309   0.00000  Uiso   1.00
H572   H     0.32639   0.32348   0.58933   0.00000  Uiso   1.00
H573   H     0.30855   0.02460   0.35984   0.00000  Uiso   1.00
H574   H     0.35820   0.06187   0.34481   0.00000  Uiso   1.00
H575   H     0.43942   0.04185   0.43248   0.00000  Uiso   1.00
H576   H     0.30500   0.08780   0.34475   0.00000  Uiso   1.00
H577   H     0.18091   0.09917   0.34237   0.00000  Uiso   1.00
H578   H     0.17012   0.15485   0.64830   0.00000  Uiso   1.00
H579   H     0.19699   0.10204   0.60360   0.00000  Uiso   1.00
H580   H     0.31918   0.23391   0.65785   0.00000  Uiso   1.00
H581   H     0.30295   0.23003   0.39628   0.00000  Uiso   1.00
H582   H     0.32963   0.17738   0.35066   0.00000  Uiso   1.00
H583   H     0.06090   0.29247   0.56974   0.00000  Uiso   1.00
H584   H     0.38213   0.24325   0.42896   0.00000  Uiso   1.00
H585   H     0.43025   0.29006   0.46063   0.00000  Uiso   1.00
H586   H     0.38020   0.02050   0.50409   0.00000  Uiso   1.00
H587   H     0.36641   0.32965   0.42197   0.00000  Uiso   1.00
H588   H     0.33199   0.30624   0.47366   0.00000  Uiso   1.00
N589   N     0.23745   0.15214   0.34617   0.00000  Uiso   1.00
N590   N     0.26256   0.18119   0.65383   0.00000  Uiso   1.00
O591   O     0.25326   0.09538   0.53992   0.00000  Uiso   1.00
O592   O     0.09975   0.07412   0.51297   0.00000  Uiso   1.00
O593   O     0.24588   0.31283   0.41520   0.00000  Uiso   1.00
O594   O     0.26416   0.01924   0.58277   0.00000  Uiso   1.00
O595   O     0.24675   0.23796   0.46008   0.00000  Uiso   1.00
O596   O     0.24480   0.08559   0.43612   0.00000  Uiso   1.00
O597   O     0.25520   0.24774   0.56388   0.00000  Uiso   1.00
O598   O     0.18936   0.17155   0.55191   0.00000  Uiso   1.00
O599   O     0.31065   0.16179   0.44809   0.00000  Uiso   1.00
O600   O     0.18090   0.16176   0.44810   0.00000  Uiso   1.00
O601   O     0.31910   0.17157   0.55190   0.00000  Uiso   1.00
O602   O     0.39452   0.26284   0.52492   0.00000  Uiso   1.00
C603   C     0.74953   0.06680   0.48424   0.00000  Uiso   1.00
C604   C     0.58662   0.11546   0.49102   0.00000  Uiso   1.00
C605   C     0.88389   0.17006   0.49913   0.00000  Uiso   1.00
C606   C     0.61581   0.16271   0.50254   0.00000  Uiso   1.00
C607   C     0.90070   0.12400   0.47610   0.00000  Uiso   1.00
C608   C     0.59907   0.20976   0.52224   0.00000  Uiso   1.00
C609   C     0.94673   0.12271   0.47654   0.00000  Uiso   1.00
C610   C     0.55318   0.21149   0.52462   0.00000  Uiso   1.00
C611   C     0.97667   0.16829   0.50119   0.00000  Uiso   1.00
C612   C     0.52320   0.16582   0.50202   0.00000  Uiso   1.00
C613   C     0.96001   0.21610   0.52469   0.00000  Uiso   1.00
C614   C     0.75204   0.26655   0.51536   0.00000  Uiso   1.00
C615   C     0.53982   0.11735   0.48262   0.00000  Uiso   1.00
C616   C     0.96290   0.07593   0.45332   0.00000  Uiso   1.00
C617   C     0.53716   0.25816   0.55007   0.00000  Uiso   1.00
C618   C     0.89542   0.27642   0.46797   0.00000  Uiso   1.00
C619   C     0.86670   0.31953   0.46691   0.00000  Uiso   1.00
C620   C     0.63105   0.04849   0.47853   0.00000  Uiso   1.00
C621   C     0.63199   0.32883   0.49274   0.00000  Uiso   1.00
C622   C     0.52287   0.01950   0.43147   0.00000  Uiso   1.00
C623   C     0.97705   0.31094   0.58811   0.00000  Uiso   1.00
C624   C     0.70941   0.32040   0.37574   0.00000  Uiso   1.00
C625   C     0.50882   0.07206   0.45727   0.00000  Uiso   1.00
C626   C     0.68163   0.26876   0.34596   0.00000  Uiso   1.00
C627   C     0.81118   0.02724   0.59862   0.00000  Uiso   1.00
C628   C     0.82135   0.05198   0.66635   0.00000  Uiso   1.00
C629   C     0.69444   0.12639   0.64909   0.00000  Uiso   1.00
C630   C     0.80561   0.20630   0.35062   0.00000  Uiso   1.00
C631   C     0.99107   0.26095   0.55223   0.00000  Uiso   1.00
C632   C     0.74826   0.01051   0.47463   0.00000  Uiso   1.00
C633   C     0.75525   0.32257   0.52346   0.00000  Uiso   1.00
C634   C     0.66435   0.16467   0.50047   0.00000  Uiso   1.00
C635   C     0.83554   0.16897   0.49987   0.00000  Uiso   1.00
C636   C     0.91280   0.21682   0.51946   0.00000  Uiso   1.00
Cu637  Cu    0.75501   0.17246   0.56146   0.00000  Uiso   1.00
Cu638  Cu    0.74500   0.16087   0.43854   0.00000  Uiso   1.00
H639   H     0.87747   0.08923   0.45760   0.00000  Uiso   1.00
H640   H     0.66483   0.06966   0.49322   0.00000  Uiso   1.00
H641   H     0.62275   0.04390   0.42862   0.00000  Uiso   1.00
H642   H     0.60093   0.30288   0.47186   0.00000  Uiso   1.00
H643   H     0.66065   0.30993   0.47463   0.00000  Uiso   1.00
H644   H     0.63546   0.00008   0.54303   0.00000  Uiso   1.00
H645   H     0.99428   0.32471   0.40562   0.00000  Uiso   1.00
H646   H     0.54816   0.02254   0.39902   0.00000  Uiso   1.00
H647   H     0.53568   0.00321   0.46939   0.00000  Uiso   1.00
H648   H     0.50612   0.00328   0.61647   0.00000  Uiso   1.00
H649   H     0.96247   0.33321   0.55717   0.00000  Uiso   1.00
H650   H     0.62242   0.24474   0.53829   0.00000  Uiso   1.00
H651   H     0.95254   0.30247   0.61985   0.00000  Uiso   1.00
H652   H     0.72283   0.00415   0.33946   0.00000  Uiso   1.00
H653   H     0.68639   0.01319   0.39813   0.00000  Uiso   1.00
H654   H     0.67001   0.24891   0.38115   0.00000  Uiso   1.00
H655   H     0.65192   0.27512   0.65078   0.00000  Uiso   1.00
H656   H     0.70223   0.24394   0.64980   0.00000  Uiso   1.00
H657   H     0.82730   0.05404   0.57309   0.00000  Uiso   1.00
H658   H     0.82639   0.32348   0.58933   0.00000  Uiso   1.00
H659   H     0.80855   0.02460   0.35984   0.00000  Uiso   1.00
H660   H     0.85820   0.06187   0.34481   0.00000  Uiso   1.00
H661   H     0.93942   0.04185   0.43248   0.00000  Uiso   1.00
H662   H     0.80500   0.08780   0.34475   0.00000  Uiso   1.00
H663   H     0.68091   0.09917   0.34237   0.00000  Uiso   1.00
H664   H     0.67012   0.15485   0.64830   0.00000  Uiso   1.00
H665   H     0.69699   0.10204   0.60360   0.00000  Uiso   1.00
H666   H     0.81918   0.23391   0.65785   0.00000  Uiso   1.00
H667   H     0.80295   0.23003   0.39628   0.00000  Uiso   1.00
H668   H     0.82963   0.17738   0.35066   0.00000  Uiso   1.00
H669   H     0.56090   0.29247   0.56974   0.00000  Uiso   1.00
H670   H     0.88213   0.24325   0.42896   0.00000  Uiso   1.00
H671   H     0.93025   0.29006   0.46063   0.00000  Uiso   1.00
H672   H     0.88020   0.02050   0.50409   0.00000  Uiso   1.00
H673   H     0.86641   0.32965   0.42197   0.00000  Uiso   1.00
H674   H     0.83199   0.30624   0.47366   0.00000  Uiso   1.00
N675   N     0.73745   0.15214   0.34617   0.00000  Uiso   1.00
N676   N     0.76256   0.18119   0.65383   0.00000  Uiso   1.00
O677   O     0.75326   0.09538   0.53992   0.00000  Uiso   1.00
O678   O     0.59975   0.07412   0.51297   0.00000  Uiso   1.00
O679   O     0.74588   0.31283   0.41520   0.00000  Uiso   1.00
O680   O     0.76416   0.01924   0.58277   0.00000  Uiso   1.00
O681   O     0.74675   0.23796   0.46008   0.00000  Uiso   1.00
O682   O     0.74480   0.08559   0.43612   0.00000  Uiso   1.00
O683   O     0.75520   0.24774   0.56388   0.00000  Uiso   1.00
O684   O     0.68936   0.17155   0.55191   0.00000  Uiso   1.00
O685   O     0.81065   0.16179   0.44809   0.00000  Uiso   1.00
O686   O     0.68090   0.16176   0.44810   0.00000  Uiso   1.00
O687   O     0.81910   0.17157   0.55190   0.00000  Uiso   1.00
O688   O     0.89452   0.26284   0.52492   0.00000  Uiso   1.00
C689   C     0.24953   0.40013   0.48424   0.00000  Uiso   1.00
C690   C     0.08662   0.44880   0.49102   0.00000  Uiso   1.00
C691   C     0.38389   0.50340   0.49913   0.00000  Uiso   1.00
C692   C     0.11581   0.49605   0.50254   0.00000  Uiso   1.00
C693   C     0.40070   0.45733   0.47610   0.00000  Uiso   1.00
C694   C     0.09907   0.54309   0.52224   0.00000  Uiso   1.00
C695   C     0.44673   0.45605   0.47654   0.00000  Uiso   1.00
C696   C     0.05318   0.54482   0.52462   0.00000  Uiso   1.00
C697   C     0.47667   0.50162   0.50119   0.00000  Uiso   1.00
C698   C     0.02320   0.49915   0.50202   0.00000  Uiso   1.00
C699   C     0.46001   0.54943   0.52469   0.00000  Uiso   1.00
C700   C     0.25204   0.59989   0.51536   0.00000  Uiso   1.00
C701   C     0.03982   0.45069   0.48262   0.00000  Uiso   1.00
C702   C     0.46290   0.40926   0.45332   0.00000  Uiso   1.00
C703   C     0.03716   0.59150   0.55007   0.00000  Uiso   1.00
C704   C     0.39542   0.60976   0.46797   0.00000  Uiso   1.00
C705   C     0.36670   0.65286   0.46691   0.00000  Uiso   1.00
C706   C     0.13105   0.38182   0.47853   0.00000  Uiso   1.00
C707   C     0.13199   0.66217   0.49274   0.00000  Uiso   1.00
C708   C     0.02287   0.35284   0.43147   0.00000  Uiso   1.00
C709   C     0.47705   0.64427   0.58811   0.00000  Uiso   1.00
C710   C     0.20941   0.65374   0.37574   0.00000  Uiso   1.00
C711   C     0.00882   0.40539   0.45727   0.00000  Uiso   1.00
C712   C     0.18163   0.60210   0.34596   0.00000  Uiso   1.00
C713   C     0.31118   0.36057   0.59862   0.00000  Uiso   1.00
C714   C     0.32135   0.38531   0.66635   0.00000  Uiso   1.00
C715   C     0.19444   0.45972   0.64909   0.00000  Uiso   1.00
C716   C     0.30561   0.53963   0.35062   0.00000  Uiso   1.00
C717   C     0.49107   0.59429   0.55223   0.00000  Uiso   1.00
C718   C     0.24826   0.34384   0.47463   0.00000  Uiso   1.00
C719   C     0.25525   0.65590   0.52346   0.00000  Uiso   1.00
C720   C     0.16435   0.49800   0.50047   0.00000  Uiso   1.00
C721   C     0.33554   0.50230   0.49987   0.00000  Uiso   1.00
C722   C     0.41280   0.55015   0.51946   0.00000  Uiso   1.00
Cu723  Cu    0.25501   0.50579   0.56146   0.00000  Uiso   1.00
Cu724  Cu    0.24500   0.49421   0.43854   0.00000  Uiso   1.00
H725   H     0.37747   0.42256   0.45760   0.00000  Uiso   1.00
H726   H     0.16483   0.40299   0.49322   0.00000  Uiso   1.00
H727   H     0.12275   0.37723   0.42862   0.00000  Uiso   1.00
H728   H     0.10093   0.63621   0.47186   0.00000  Uiso   1.00
H729   H     0.16065   0.64327   0.47463   0.00000  Uiso   1.00
H730   H     0.13546   0.33341   0.54303   0.00000  Uiso   1.00
H731   H     0.49428   0.65804   0.40562   0.00000  Uiso   1.00
H732   H     0.04816   0.35587   0.39902   0.00000  Uiso   1.00
H733   H     0.03568   0.33655   0.46939   0.00000  Uiso   1.00
H734   H     0.00612   0.33661   0.61647   0.00000  Uiso   1.00
H735   H     0.46247   0.66654   0.55717   0.00000  Uiso   1.00
H736   H     0.12242   0.57807   0.53829   0.00000  Uiso   1.00
H737   H     0.45254   0.63580   0.61985   0.00000  Uiso   1.00
H738   H     0.22283   0.33748   0.33946   0.00000  Uiso   1.00
H739   H     0.18639   0.34652   0.39813   0.00000  Uiso   1.00
H740   H     0.17001   0.58224   0.38115   0.00000  Uiso   1.00
H741   H     0.15192   0.60846   0.65078   0.00000  Uiso   1.00
H742   H     0.20223   0.57727   0.64980   0.00000  Uiso   1.00
H743   H     0.32730   0.38737   0.57309   0.00000  Uiso   1.00
H744   H     0.32639   0.65681   0.58933   0.00000  Uiso   1.00
H745   H     0.30855   0.35793   0.35984   0.00000  Uiso   1.00
H746   H     0.35820   0.39520   0.34481   0.00000  Uiso   1.00
H747   H     0.43942   0.37519   0.43248   0.00000  Uiso   1.00
H748   H     0.30500   0.42114   0.34475   0.00000  Uiso   1.00
H749   H     0.18091   0.43251   0.34237   0.00000  Uiso   1.00
H750   H     0.17012   0.48818   0.64830   0.00000  Uiso   1.00
H751   H     0.19699   0.43537   0.60360   0.00000  Uiso   1.00
H752   H     0.31918   0.56725   0.65785   0.00000  Uiso   1.00
H753   H     0.30295   0.56337   0.39628   0.00000  Uiso   1.00
H754   H     0.32963   0.51072   0.35066   0.00000  Uiso   1.00
H755   H     0.06090   0.62581   0.56974   0.00000  Uiso   1.00
H756   H     0.38213   0.57658   0.42896   0.00000  Uiso   1.00
H757   H     0.43025   0.62340   0.46063   0.00000  Uiso   1.00
H758   H     0.38020   0.35383   0.50409   0.00000  Uiso   1.00
H759   H     0.36641   0.66299   0.42197   0.00000  Uiso   1.00
H760   H     0.33199   0.63957   0.47366   0.00000  Uiso   1.00
N761   N     0.23745   0.48547   0.34617   0.00000  Uiso   1.00
N762   N     0.26256   0.51453   0.65383   0.00000  Uiso   1.00
O763   O     0.25326   0.42871   0.53992   0.00000  Uiso   1.00
O764   O     0.09975   0.40745   0.51297   0.00000  Uiso   1.00
O765   O     0.24588   0.64616   0.41520   0.00000  Uiso   1.00
O766   O     0.26416   0.35257   0.58277   0.00000  Uiso   1.00
O767   O     0.24675   0.57129   0.46008   0.00000  Uiso   1.00
O768   O     0.24480   0.41892   0.43612   0.00000  Uiso   1.00
O769   O     0.25520   0.58108   0.56388   0.00000  Uiso   1.00
O770   O     0.18936   0.50488   0.55191   0.00000  Uiso   1.00
O771   O     0.31065   0.49512   0.44809   0.00000  Uiso   1.00
O772   O     0.18090   0.49510   0.44810   0.00000  Uiso   1.00
O773   O     0.31910   0.50490   0.55190   0.00000  Uiso   1.00
O774   O     0.39452   0.59617   0.52492   0.00000  Uiso   1.00
C775   C     0.74953   0.40013   0.48424   0.00000  Uiso   1.00
C776   C     0.58662   0.44880   0.49102   0.00000  Uiso   1.00
C777   C     0.88389   0.50340   0.49913   0.00000  Uiso   1.00
C778   C     0.61581   0.49605   0.50254   0.00000  Uiso   1.00
C779   C     0.90070   0.45733   0.47610   0.00000  Uiso   1.00
C780   C     0.59907   0.54309   0.52224   0.00000  Uiso   1.00
C781   C     0.94673   0.45605   0.47654   0.00000  Uiso   1.00
C782   C     0.55318   0.54482   0.52462   0.00000  Uiso   1.00
C783   C     0.97667   0.50162   0.50119   0.00000  Uiso   1.00
C784   C     0.52320   0.49915   0.50202   0.00000  Uiso   1.00
C785   C     0.96001   0.54943   0.52469   0.00000  Uiso   1.00
C786   C     0.75204   0.59989   0.51536   0.00000  Uiso   1.00
C787   C     0.53982   0.45069   0.48262   0.00000  Uiso   1.00
C788   C     0.96290   0.40926   0.45332   0.00000  Uiso   1.00
C789   C     0.53716   0.59150   0.55007   0.00000  Uiso   1.00
C790   C     0.89542   0.60976   0.46797   0.00000  Uiso   1.00
C791   C     0.86670   0.65286   0.46691   0.00000  Uiso   1.00
C792   C     0.63105   0.38182   0.47853   0.00000  Uiso   1.00
C793   C     0.63199   0.66217   0.49274   0.00000  Uiso   1.00
C794   C     0.52287   0.35284   0.43147   0.00000  Uiso   1.00
C795   C     0.97705   0.64427   0.58811   0.00000  Uiso   1.00
C796   C     0.70941   0.65374   0.37574   0.00000  Uiso   1.00
C797   C     0.50882   0.40539   0.45727   0.00000  Uiso   1.00
C798   C     0.68163   0.60210   0.34596   0.00000  Uiso   1.00
C799   C     0.81118   0.36057   0.59862   0.00000  Uiso   1.00
C800   C     0.82135   0.38531   0.66635   0.00000  Uiso   1.00
C801   C     0.69444   0.45972   0.64909   0.00000  Uiso   1.00
C802   C     0.80561   0.53963   0.35062   0.00000  Uiso   1.00
C803   C     0.99107   0.59429   0.55223   0.00000  Uiso   1.00
C804   C     0.74826   0.34384   0.47463   0.00000  Uiso   1.00
C805   C     0.75525   0.65590   0.52346   0.00000  Uiso   1.00
C806   C     0.66435   0.49800   0.50047   0.00000  Uiso   1.00
C807   C     0.83554   0.50230   0.49987   0.00000  Uiso   1.00
C808   C     0.91280   0.55015   0.51946   0.00000  Uiso   1.00
Cu809  Cu    0.75501   0.50579   0.56146   0.00000  Uiso   1.00
Cu810  Cu    0.74500   0.49421   0.43854   0.00000  Uiso   1.00
H811   H     0.87747   0.42256   0.45760   0.00000  Uiso   1.00
H812   H     0.66483   0.40299   0.49322   0.00000  Uiso   1.00
H813   H     0.62275   0.37723   0.42862   0.00000  Uiso   1.00
H814   H     0.60093   0.63621   0.47186   0.00000  Uiso   1.00
H815   H     0.66065   0.64327   0.47463   0.00000  Uiso   1.00
H816   H     0.63546   0.33341   0.54303   0.00000  Uiso   1.00
H817   H     0.99428   0.65804   0.40562   0.00000  Uiso   1.00
H818   H     0.54816   0.35587   0.39902   0.00000  Uiso   1.00
H819   H     0.53568   0.33655   0.46939   0.00000  Uiso   1.00
H820   H     0.50612   0.33661   0.61647   0.00000  Uiso   1.00
H821   H     0.96247   0.66654   0.55717   0.00000  Uiso   1.00
H822   H     0.62242   0.57807   0.53829   0.00000  Uiso   1.00
H823   H     0.95254   0.63580   0.61985   0.00000  Uiso   1.00
H824   H     0.72283   0.33748   0.33946   0.00000  Uiso   1.00
H825   H     0.68639   0.34652   0.39813   0.00000  Uiso   1.00
H826   H     0.67001   0.58224   0.38115   0.00000  Uiso   1.00
H827   H     0.65192   0.60846   0.65078   0.00000  Uiso   1.00
H828   H     0.70223   0.57727   0.64980   0.00000  Uiso   1.00
H829   H     0.82730   0.38737   0.57309   0.00000  Uiso   1.00
H830   H     0.82639   0.65681   0.58933   0.00000  Uiso   1.00
H831   H     0.80855   0.35793   0.35984   0.00000  Uiso   1.00
H832   H     0.85820   0.39520   0.34481   0.00000  Uiso   1.00
H833   H     0.93942   0.37519   0.43248   0.00000  Uiso   1.00
H834   H     0.80500   0.42114   0.34475   0.00000  Uiso   1.00
H835   H     0.68091   0.43251   0.34237   0.00000  Uiso   1.00
H836   H     0.67012   0.48818   0.64830   0.00000  Uiso   1.00
H837   H     0.69699   0.43537   0.60360   0.00000  Uiso   1.00
H838   H     0.81918   0.56725   0.65785   0.00000  Uiso   1.00
H839   H     0.80295   0.56337   0.39628   0.00000  Uiso   1.00
H840   H     0.82963   0.51072   0.35066   0.00000  Uiso   1.00
H841   H     0.56090   0.62581   0.56974   0.00000  Uiso   1.00
H842   H     0.88213   0.57658   0.42896   0.00000  Uiso   1.00
H843   H     0.93025   0.62340   0.46063   0.00000  Uiso   1.00
H844   H     0.88020   0.35383   0.50409   0.00000  Uiso   1.00
H845   H     0.86641   0.66299   0.42197   0.00000  Uiso   1.00
H846   H     0.83199   0.63957   0.47366   0.00000  Uiso   1.00
N847   N     0.73745   0.48547   0.34617   0.00000  Uiso   1.00
N848   N     0.76256   0.51453   0.65383   0.00000  Uiso   1.00
O849   O     0.75326   0.42871   0.53992   0.00000  Uiso   1.00
O850   O     0.59975   0.40745   0.51297   0.00000  Uiso   1.00
O851   O     0.74588   0.64616   0.41520   0.00000  Uiso   1.00
O852   O     0.76416   0.35257   0.58277   0.00000  Uiso   1.00
O853   O     0.74675   0.57129   0.46008   0.00000  Uiso   1.00
O854   O     0.74480   0.41892   0.43612   0.00000  Uiso   1.00
O855   O     0.75520   0.58108   0.56388   0.00000  Uiso   1.00
O856   O     0.68936   0.50488   0.55191   0.00000  Uiso   1.00
O857   O     0.81065   0.49512   0.44809   0.00000  Uiso   1.00
O858   O     0.68090   0.49510   0.44810   0.00000  Uiso   1.00
O859   O     0.81910   0.50490   0.55190   0.00000  Uiso   1.00
O860   O     0.89452   0.59617   0.52492   0.00000  Uiso   1.00
C861   C     0.24953   0.73347   0.48424   0.00000  Uiso   1.00
C862   C     0.08662   0.78213   0.49102   0.00000  Uiso   1.00
C863   C     0.38389   0.83673   0.49913   0.00000  Uiso   1.00
C864   C     0.11581   0.82938   0.50254   0.00000  Uiso   1.00
C865   C     0.40070   0.79066   0.47610   0.00000  Uiso   1.00
C866   C     0.09907   0.87643   0.52224   0.00000  Uiso   1.00
C867   C     0.44673   0.78938   0.47654   0.00000  Uiso   1.00
C868   C     0.05318   0.87816   0.52462   0.00000  Uiso   1.00
C869   C     0.47667   0.83496   0.50119   0.00000  Uiso   1.00
C870   C     0.02320   0.83248   0.50202   0.00000  Uiso   1.00
C871   C     0.46001   0.88276   0.52469   0.00000  Uiso   1.00
C872   C     0.25204   0.93322   0.51536   0.00000  Uiso   1.00
C873   C     0.03982   0.78402   0.48262   0.00000  Uiso   1.00
C874   C     0.46290   0.74260   0.45332   0.00000  Uiso   1.00
C875   C     0.03716   0.92483   0.55007   0.00000  Uiso   1.00
C876   C     0.39542   0.94309   0.46797   0.00000  Uiso   1.00
C877   C     0.36670   0.98619   0.46691   0.00000  Uiso   1.00
C878   C     0.13105   0.71516   0.47853   0.00000  Uiso   1.00
C879   C     0.13199   0.99550   0.49274   0.00000  Uiso   1.00
C880   C     0.02287   0.68617   0.43147   0.00000  Uiso   1.00
C881   C     0.47705   0.97761   0.58811   0.00000  Uiso   1.00
C882   C     0.20941   0.98707   0.37574   0.00000  Uiso   1.00
C883   C     0.00882   0.73872   0.45727   0.00000  Uiso   1.00
C884   C     0.18163   0.93543   0.34596   0.00000  Uiso   1.00
C885   C     0.31118   0.69391   0.59862   0.00000  Uiso   1.00
C886   C     0.32135   0.71865   0.66635   0.00000  Uiso   1.00
C887   C     0.19444   0.79306   0.64909   0.00000  Uiso   1.00
C888   C     0.30561   0.87297   0.35062   0.00000  Uiso   1.00
C889   C     0.49107   0.92762   0.55223   0.00000  Uiso   1.00
C890   C     0.24826   0.67718   0.47463   0.00000  Uiso   1.00
C891   C     0.25525   0.98923   0.52346   0.00000  Uiso   1.00
C892   C     0.16435   0.83134   0.50047   0.00000  Uiso   1.00
C893   C     0.33554   0.83563   0.49987   0.00000  Uiso   1.00
C894   C     0.41280   0.88348   0.51946   0.00000  Uiso   1.00
Cu895  Cu    0.25501   0.83913   0.56146   0.00000  Uiso   1.00
Cu896  Cu    0.24500   0.82754   0.43854   0.00000  Uiso   1.00
H897   H     0.37747   0.75589   0.45760   0.00000  Uiso   1.00
H898   H     0.16483   0.73633   0.49322   0.00000  Uiso   1.00
H899   H     0.12275   0.71057   0.42862   0.00000  Uiso   1.00
H900   H     0.10093   0.96954   0.47186   0.00000  Uiso   1.00
H901   H     0.16065   0.97660   0.47463   0.00000  Uiso   1.00
H902   H     0.13546   0.66675   0.54303   0.00000  Uiso   1.00
H903   H     0.49428   0.99137   0.40562   0.00000  Uiso   1.00
H904   H     0.04816   0.68921   0.39902   0.00000  Uiso   1.00
H905   H     0.03568   0.66988   0.46939   0.00000  Uiso   1.00
H906   H     0.00612   0.66994   0.61647   0.00000  Uiso   1.00
H907   H     0.46247   0.99988   0.55717   0.00000  Uiso   1.00
H908   H     0.12242   0.91140   0.53829   0.00000  Uiso   1.00
H909   H     0.45254   0.96914   0.61985   0.00000  Uiso   1.00
H910   H     0.22283   0.67082   0.33946   0.00000  Uiso   1.00
H911   H     0.18639   0.67986   0.39813   0.00000  Uiso   1.00
H912   H     0.17001   0.91557   0.38115   0.00000  Uiso   1.00
H913   H     0.15192   0.94179   0.65078   0.00000  Uiso   1.00
H914   H     0.20223   0.91060   0.64980   0.00000  Uiso   1.00
H915   H     0.32730   0.72071   0.57309   0.00000  Uiso   1.00
H916   H     0.32639   0.99014   0.58933   0.00000  Uiso   1.00
H917   H     0.30855   0.69126   0.35984   0.00000  Uiso   1.00
H918   H     0.35820   0.72854   0.34481   0.00000  Uiso   1.00
H919   H     0.43942   0.70852   0.43248   0.00000  Uiso   1.00
H920   H     0.30500   0.75447   0.34475   0.00000  Uiso   1.00
H921   H     0.18091   0.76584   0.34237   0.00000  Uiso   1.00
H922   H     0.17012   0.82151   0.64830   0.00000  Uiso   1.00
H923   H     0.19699   0.76870   0.60360   0.00000  Uiso   1.00
H924   H     0.31918   0.90058   0.65785   0.00000  Uiso   1.00
H925   H     0.30295   0.89670   0.39628   0.00000  Uiso   1.00
H926   H     0.32963   0.84405   0.35066   0.00000  Uiso   1.00
H927   H     0.06090   0.95914   0.56974   0.00000  Uiso   1.00
H928   H     0.38213   0.90991   0.42896   0.00000  Uiso   1.00
H929   H     0.43025   0.95673   0.46063   0.00000  Uiso   1.00
H930   H     0.38020   0.68717   0.50409   0.00000  Uiso   1.00
H931   H     0.36641   0.99632   0.42197   0.00000  Uiso   1.00
H932   H     0.33199   0.97291   0.47366   0.00000  Uiso   1.00
N933   N     0.23745   0.81881   0.34617   0.00000  Uiso   1.00
N934   N     0.26256   0.84786   0.65383   0.00000  Uiso   1.00
O935   O     0.25326   0.76204   0.53992   0.00000  Uiso   1.00
O936   O     0.09975   0.74079   0.51297   0.00000  Uiso   1.00
O937   O     0.24588   0.97950   0.41520   0.00000  Uiso   1.00
O938   O     0.26416   0.68591   0.58277   0.00000  Uiso   1.00
O939   O     0.24675   0.90462   0.46008   0.00000  Uiso   1.00
O940   O     0.24480   0.75226   0.43612   0.00000  Uiso   1.00
O941   O     0.25520   0.91441   0.56388   0.00000  Uiso   1.00
O942   O     0.18936   0.83821   0.55191   0.00000  Uiso   1.00
O943   O     0.31065   0.82845   0.44809   0.00000  Uiso   1.00
O944   O     0.18090   0.82843   0.44810   0.00000  Uiso   1.00
O945   O     0.31910   0.83824   0.55190   0.00000  Uiso   1.00
O946   O     0.39452   0.92950   0.52492   0.00000  Uiso   1.00
C947   C     0.74953   0.73347   0.48424   0.00000  Uiso   1.00
C948   C     0.58662   0.78213   0.49102   0.00000  Uiso   1.00
C949   C     0.88389   0.83673   0.49913   0.00000  Uiso   1.00
C950   C     0.61581   0.82938   0.50254   0.00000  Uiso   1.00
C951   C     0.90070   0.79066   0.47610   0.00000  Uiso   1.00
C952   C     0.59907   0.87643   0.52224   0.00000  Uiso   1.00
C953   C     0.94673   0.78938   0.47654   0.00000  Uiso   1.00
C954   C     0.55318   0.87816   0.52462   0.00000  Uiso   1.00
C955   C     0.97667   0.83496   0.50119   0.00000  Uiso   1.00
C956   C     0.52320   0.83248   0.50202   0.00000  Uiso   1.00
C957   C     0.96001   0.88276   0.52469   0.00000  Uiso   1.00
C958   C     0.75204   0.93322   0.51536   0.00000  Uiso   1.00
C959   C     0.53982   0.78402   0.48262   0.00000  Uiso   1.00
C960   C     0.96290   0.74260   0.45332   0.00000  Uiso   1.00
C961   C     0.53716   0.92483   0.55007   0.00000  Uiso   1.00
C962   C     0.89542   0.94309   0.46797   0.00000  Uiso   1.00
C963   C     0.86670   0.98619   0.46691   0.00000  Uiso   1.00
C964   C     0.63105   0.71516   0.47853   0.00000  Uiso   1.00
C965   C     0.63199   0.99550   0.49274   0.00000  Uiso   1.00
C966   C     0.52287   0.68617   0.43147   0.00000  Uiso   1.00
C967   C     0.97705   0.97761   0.58811   0.00000  Uiso   1.00
C968   C     0.70941   0.98707   0.37574   0.00000  Uiso   1.00
C969   C     0.50882   0.73872   0.45727   0.00000  Uiso   1.00
C970   C     0.68163   0.93543   0.34596   0.00000  Uiso   1.00
C971   C     0.81118   0.69391   0.59862   0.00000  Uiso   1.00
C972   C     0.82135   0.71865   0.66635   0.00000  Uiso   1.00
C973   C     0.69444   0.79306   0.64909   0.00000  Uiso   1.00
C974   C     0.80561   0.87297   0.35062   0.00000  Uiso   1.00
C975   C     0.99107   0.92762   0.55223   0.00000  Uiso   1.00
C976   C     0.74826   0.67718   0.47463   0.00000  Uiso   1.00
C977   C     0.75525   0.98923   0.52346   0.00000  Uiso   1.00
C978   C     0.66435   0.83134   0.50047   0.00000  Uiso   1.00
C979   C     0.83554   0.83563   0.49987   0.00000  Uiso   1.00
C980   C     0.91280   0.88348   0.51946   0.00000  Uiso   1.00
Cu981  Cu    0.75501   0.83913   0.56146   0.00000  Uiso   1.00
Cu982  Cu    0.74500   0.82754   0.43854   0.00000  Uiso   1.00
H983   H     0.87747   0.75589   0.45760   0.00000  Uiso   1.00
H984   H     0.66483   0.73633   0.49322   0.00000  Uiso   1.00
H985   H     0.62275   0.71057   0.42862   0.00000  Uiso   1.00
H986   H     0.60093   0.96954   0.47186   0.00000  Uiso   1.00
H987   H     0.66065   0.97660   0.47463   0.00000  Uiso   1.00
H988   H     0.63546   0.66675   0.54303   0.00000  Uiso   1.00
H989   H     0.99428   0.99137   0.40562   0.00000  Uiso   1.00
H990   H     0.54816   0.68921   0.39902   0.00000  Uiso   1.00
H991   H     0.53568   0.66988   0.46939   0.00000  Uiso   1.00
H992   H     0.50612   0.66994   0.61647   0.00000  Uiso   1.00
H993   H     0.96247   0.99988   0.55717   0.00000  Uiso   1.00
H994   H     0.62242   0.91140   0.53829   0.00000  Uiso   1.00
H995   H     0.95254   0.96914   0.61985   0.00000  Uiso   1.00
H996   H     0.72283   0.67082   0.33946   0.00000  Uiso   1.00
H997   H     0.68639   0.67986   0.39813   0.00000  Uiso   1.00
H998   H     0.67001   0.91557   0.38115   0.00000  Uiso   1.00
H999   H     0.65192   0.94179   0.65078   0.00000  Uiso   1.00
H1000  H     0.70223   0.91060   0.64980   0.00000  Uiso   1.00
H1001  H     0.82730   0.72071   0.57309   0.00000  Uiso   1.00
H1002  H     0.82639   0.99014   0.58933   0.00000  Uiso   1.00
H1003  H     0.80855   0.69126   0.35984   0.00000  Uiso   1.00
H1004  H     0.85820   0.72854   0.34481   0.00000  Uiso   1.00
H1005  H     0.93942   0.70852   0.43248   0.00000  Uiso   1.00
H1006  H     0.80500   0.75447   0.34475   0.00000  Uiso   1.00
H1007  H     0.68091   0.76584   0.34237   0.00000  Uiso   1.00
H1008  H     0.67012   0.82151   0.64830   0.00000  Uiso   1.00
H1009  H     0.69699   0.76870   0.60360   0.00000  Uiso   1.00
H1010  H     0.81918   0.90058   0.65785   0.00000  Uiso   1.00
H1011  H     0.80295   0.89670   0.39628   0.00000  Uiso   1.00
H1012  H     0.82963   0.84405   0.35066   0.00000  Uiso   1.00
H1013  H     0.56090   0.95914   0.56974   0.00000  Uiso   1.00
H1014  H     0.88213   0.90991   0.42896   0.00000  Uiso   1.00
H1015  H     0.93025   0.95673   0.46063   0.00000  Uiso   1.00
H1016  H     0.88020   0.68717   0.50409   0.00000  Uiso   1.00
H1017  H     0.86641   0.99632   0.42197   0.00000  Uiso   1.00
H1018  H     0.83199   0.97291   0.47366   0.00000  Uiso   1.00
N1019  N     0.73745   0.81881   0.34617   0.00000  Uiso   1.00
N1020  N     0.76256   0.84786   0.65383   0.00000  Uiso   1.00
O1021  O     0.75326   0.76204   0.53992   0.00000  Uiso   1.00
O1022  O     0.59975   0.74079   0.51297   0.00000  Uiso   1.00
O1023  O     0.74588   0.97950   0.41520   0.00000  Uiso   1.00
O1024  O     0.76416   0.68591   0.58277   0.00000  Uiso   1.00
O1025  O     0.74675   0.90462   0.46008   0.00000  Uiso   1.00
O1026  O     0.74480   0.75226   0.43612   0.00000  Uiso   1.00
O1027  O     0.75520   0.91441   0.56388   0.00000  Uiso   1.00
O1028  O     0.68936   0.83821   0.55191   0.00000  Uiso   1.00
O1029  O     0.81065   0.82845   0.44809   0.00000  Uiso   1.00
O1030  O     0.68090   0.82843   0.44810   0.00000  Uiso   1.00
O1031  O     0.81910   0.83824   0.55190   0.00000  Uiso   1.00
O1032  O     0.89452   0.92950   0.52492   0.00000  Uiso   1.00
C1033  C     0.24953   0.06680   0.81757   0.00000  Uiso   1.00
C1034  C     0.08662   0.11546   0.82435   0.00000  Uiso   1.00
C1035  C     0.38389   0.17006   0.83246   0.00000  Uiso   1.00
C1036  C     0.11581   0.16271   0.83588   0.00000  Uiso   1.00
C1037  C     0.40070   0.12400   0.80944   0.00000  Uiso   1.00
C1038  C     0.09907   0.20976   0.85557   0.00000  Uiso   1.00
C1039  C     0.44673   0.12271   0.80988   0.00000  Uiso   1.00
C1040  C     0.05318   0.21149   0.85795   0.00000  Uiso   1.00
C1041  C     0.47667   0.16829   0.83452   0.00000  Uiso   1.00
C1042  C     0.02320   0.16582   0.83535   0.00000  Uiso   1.00
C1043  C     0.46001   0.21610   0.85802   0.00000  Uiso   1.00
C1044  C     0.25204   0.26655   0.84870   0.00000  Uiso   1.00
C1045  C     0.03982   0.11735   0.81595   0.00000  Uiso   1.00
C1046  C     0.46290   0.07593   0.78666   0.00000  Uiso   1.00
C1047  C     0.03716   0.25816   0.88340   0.00000  Uiso   1.00
C1048  C     0.39542   0.27642   0.80130   0.00000  Uiso   1.00
C1049  C     0.36670   0.31953   0.80025   0.00000  Uiso   1.00
C1050  C     0.13105   0.04849   0.81187   0.00000  Uiso   1.00
C1051  C     0.13199   0.32883   0.82608   0.00000  Uiso   1.00
C1052  C     0.02287   0.01950   0.76480   0.00000  Uiso   1.00
C1053  C     0.47705   0.31094   0.92144   0.00000  Uiso   1.00
C1054  C     0.20941   0.32040   0.70907   0.00000  Uiso   1.00
C1055  C     0.00882   0.07206   0.79060   0.00000  Uiso   1.00
C1056  C     0.18163   0.26876   0.67929   0.00000  Uiso   1.00
C1057  C     0.31118   0.02724   0.93195   0.00000  Uiso   1.00
C1058  C     0.32135   0.05198   0.99968   0.00000  Uiso   1.00
C1059  C     0.19444   0.12639   0.98242   0.00000  Uiso   1.00
C1060  C     0.30561   0.20630   0.68395   0.00000  Uiso   1.00
C1061  C     0.49107   0.26095   0.88557   0.00000  Uiso   1.00
C1062  C     0.24826   0.01051   0.80796   0.00000  Uiso   1.00
C1063  C     0.25525   0.32257   0.85680   0.00000  Uiso   1.00
C1064  C     0.16435   0.16467   0.83381   0.00000  Uiso   1.00
C1065  C     0.33554   0.16897   0.83320   0.00000  Uiso   1.00
C1066  C     0.41280   0.21682   0.85279   0.00000  Uiso   1.00
Cu1067 Cu    0.25501   0.17246   0.89479   0.00000  Uiso   1.00
Cu1068 Cu    0.24500   0.16087   0.77187   0.00000  Uiso   1.00
H1069  H     0.37747   0.08923   0.79093   0.00000  Uiso   1.00
H1070  H     0.16483   0.06966   0.82656   0.00000  Uiso   1.00
H1071  H     0.12275   0.04390   0.76195   0.00000  Uiso   1.00
H1072  H     0.10093   0.30288   0.80520   0.00000  Uiso   1.00
H1073  H     0.16065   0.30993   0.80797   0.00000  Uiso   1.00
H1074  H     0.13546   0.00008   0.87636   0.00000  Uiso   1.00
H1075  H     0.49428   0.32471   0.73895   0.00000  Uiso   1.00
H1076  H     0.04816   0.02254   0.73235   0.00000  Uiso   1.00
H1077  H     0.03568   0.00321   0.80273   0.00000  Uiso   1.00
H1078  H     0.00612   0.00328   0.94980   0.00000  Uiso   1.00
H1079  H     0.46247   0.33321   0.89051   0.00000  Uiso   1.00
H1080  H     0.12242   0.24474   0.87162   0.00000  Uiso   1.00
H1081  H     0.45254   0.30247   0.95318   0.00000  Uiso   1.00
H1082  H     0.22283   0.00415   0.67279   0.00000  Uiso   1.00
H1083  H     0.18639   0.01319   0.73146   0.00000  Uiso   1.00
H1084  H     0.17001   0.24891   0.71449   0.00000  Uiso   1.00
H1085  H     0.15192   0.27512   0.98411   0.00000  Uiso   1.00
H1086  H     0.20223   0.24394   0.98313   0.00000  Uiso   1.00
H1087  H     0.32730   0.05404   0.90643   0.00000  Uiso   1.00
H1088  H     0.32639   0.32348   0.92266   0.00000  Uiso   1.00
H1089  H     0.30855   0.02460   0.69318   0.00000  Uiso   1.00
H1090  H     0.35820   0.06187   0.67814   0.00000  Uiso   1.00
H1091  H     0.43942   0.04185   0.76582   0.00000  Uiso   1.00
H1092  H     0.30500   0.08780   0.67808   0.00000  Uiso   1.00
H1093  H     0.18091   0.09917   0.67570   0.00000  Uiso   1.00
H1094  H     0.17012   0.15485   0.98164   0.00000  Uiso   1.00
H1095  H     0.19699   0.10204   0.93693   0.00000  Uiso   1.00
H1096  H     0.31918   0.23391   0.99118   0.00000  Uiso   1.00
H1097  H     0.30295   0.23003   0.72961   0.00000  Uiso   1.00
H1098  H     0.32963   0.17738   0.68399   0.00000  Uiso   1.00
H1099  H     0.06090   0.29247   0.90307   0.00000  Uiso   1.00
H1100  H     0.38213   0.24325   0.76229   0.00000  Uiso   1.00
H1101  H     0.43025   0.29006   0.79397   0.00000  Uiso   1.00
H1102  H     0.38020   0.02050   0.83742   0.00000  Uiso   1.00
H1103  H     0.36641   0.32965   0.75530   0.00000  Uiso   1.00
H1104  H     0.33199   0.30624   0.80699   0.00000  Uiso   1.00
N1105  N     0.23745   0.15214   0.67951   0.00000  Uiso   1.00
N1106  N     0.26256   0.18119   0.98716   0.00000  Uiso   1.00
O1107  O     0.25326   0.09538   0.87326   0.00000  Uiso   1.00
O1108  O     0.09975   0.07412   0.84630   0.00000  Uiso   1.00
O1109  O     0.24588   0.31283   0.74853   0.00000  Uiso   1.00
O1110  O     0.26416   0.01924   0.91610   0.00000  Uiso   1.00
O1111  O     0.24675   0.23796   0.79341   0.00000  Uiso   1.00
O1112  O     0.24480   0.08559   0.76945   0.00000  Uiso   1.00
O1113  O     0.25520   0.24774   0.89721   0.00000  Uiso   1.00
O1114  O     0.18936   0.17155   0.88524   0.00000  Uiso   1.00
O1115  O     0.31065   0.16179   0.78143   0.00000  Uiso   1.00
O1116  O     0.18090   0.16176   0.78143   0.00000  Uiso   1.00
O1117  O     0.31910   0.17157   0.88523   0.00000  Uiso   1.00
O1118  O     0.39452   0.26284   0.85825   0.00000  Uiso   1.00
C1119  C     0.74953   0.06680   0.81757   0.00000  Uiso   1.00
C1120  C     0.58662   0.11546   0.82435   0.00000  Uiso   1.00
C1121  C     0.88389   0.17006   0.83246   0.00000  Uiso   1.00
C1122  C     0.61581   0.16271   0.83588   0.00000  Uiso   1.00
C1123  C     0.90070   0.12400   0.80944   0.00000  Uiso   1.00
C1124  C     0.59907   0.20976   0.85557   0.00000  Uiso   1.00
C1125  C     0.94673   0.12271   0.80988   0.00000  Uiso   1.00
C1126  C     0.55318   0.21149   0.85795   0.00000  Uiso   1.00
C1127  C     0.97667   0.16829   0.83452   0.00000  Uiso   1.00
C1128  C     0.52320   0.16582   0.83535   0.00000  Uiso   1.00
C1129  C     0.96001   0.21610   0.85802   0.00000  Uiso   1.00
C1130  C     0.75204   0.26655   0.84870   0.00000  Uiso   1.00
C1131  C     0.53982   0.11735   0.81595   0.00000  Uiso   1.00
C1132  C     0.96290   0.07593   0.78666   0.00000  Uiso   1.00
C1133  C     0.53716   0.25816   0.88340   0.00000  Uiso   1.00
C1134  C     0.89542   0.27642   0.80130   0.00000  Uiso   1.00
C1135  C     0.86670   0.31953   0.80025   0.00000  Uiso   1.00
C1136  C     0.63105   0.04849   0.81187   0.00000  Uiso   1.00
C1137  C     0.63199   0.32883   0.82608   0.00000  Uiso   1.00
C1138  C     0.52287   0.01950   0.76480   0.00000  Uiso   1.00
C1139  C     0.97705   0.31094   0.92144   0.00000  Uiso   1.00
C1140  C     0.70941   0.32040   0.70907   0.00000  Uiso   1.00
C1141  C     0.50882   0.07206   0.79060   0.00000  Uiso   1.00
C1142  C     0.68163   0.26876   0.67929   0.00000  Uiso   1.00
C1143  C     0.81118   0.02724   0.93195   0.00000  Uiso   1.00
C1144  C     0.82135   0.05198   0.99968   0.00000  Uiso   1.00
C1145  C     0.69444   0.12639   0.98242   0.00000  Uiso   1.00
C1146  C     0.80561   0.20630   0.68395   0.00000  Uiso   1.00
C1147  C     0.99107   0.26095   0.88557   0.00000  Uiso   1.00
C1148  C     0.74826   0.01051   0.80796   0.00000  Uiso   1.00
C1149  C     0.75525   0.32257   0.85680   0.00000  Uiso   1.00
C1150  C     0.66435   0.16467   0.83381   0.00000  Uiso   1.00
C1151  C     0.83554   0.16897   0.83320   0.00000  Uiso   1.00
C1152  C     0.91280   0.21682   0.85279   0.00000  Uiso   1.00
Cu1153 Cu    0.75501   0.17246   0.89479   0.00000  Uiso   1.00
Cu1154 Cu    0.74500   0.16087   0.77187   0.00000  Uiso   1.00
H1155  H     0.87747   0.08923   0.79093   0.00000  Uiso   1.00
H1156  H     0.66483   0.06966   0.82656   0.00000  Uiso   1.00
H1157  H     0.62275   0.04390   0.76195   0.00000  Uiso   1.00
H1158  H     0.60093   0.30288   0.80520   0.00000  Uiso   1.00
H1159  H     0.66065   0.30993   0.80797   0.00000  Uiso   1.00
H1160  H     0.63546   0.00008   0.87636   0.00000  Uiso   1.00
H1161  H     0.99428   0.32471   0.73895   0.00000  Uiso   1.00
H1162  H     0.54816   0.02254   0.73235   0.00000  Uiso   1.00
H1163  H     0.53568   0.00321   0.80273   0.00000  Uiso   1.00
H1164  H     0.50612   0.00328   0.94980   0.00000  Uiso   1.00
H1165  H     0.96247   0.33321   0.89051   0.00000  Uiso   1.00
H1166  H     0.62242   0.24474   0.87162   0.00000  Uiso   1.00
H1167  H     0.95254   0.30247   0.95318   0.00000  Uiso   1.00
H1168  H     0.72283   0.00415   0.67279   0.00000  Uiso   1.00
H1169  H     0.68639   0.01319   0.73146   0.00000  Uiso   1.00
H1170  H     0.67001   0.24891   0.71449   0.00000  Uiso   1.00
H1171  H     0.65192   0.27512   0.98411   0.00000  Uiso   1.00
H1172  H     0.70223   0.24394   0.98313   0.00000  Uiso   1.00
H1173  H     0.82730   0.05404   0.90643   0.00000  Uiso   1.00
H1174  H     0.82639   0.32348   0.92266   0.00000  Uiso   1.00
H1175  H     0.80855   0.02460   0.69318   0.00000  Uiso   1.00
H1176  H     0.85820   0.06187   0.67814   0.00000  Uiso   1.00
H1177  H     0.93942   0.04185   0.76582   0.00000  Uiso   1.00
H1178  H     0.80500   0.08780   0.67808   0.00000  Uiso   1.00
H1179  H     0.68091   0.09917   0.67570   0.00000  Uiso   1.00
H1180  H     0.67012   0.15485   0.98164   0.00000  Uiso   1.00
H1181  H     0.69699   0.10204   0.93693   0.00000  Uiso   1.00
H1182  H     0.81918   0.23391   0.99118   0.00000  Uiso   1.00
H1183  H     0.80295   0.23003   0.72961   0.00000  Uiso   1.00
H1184  H     0.82963   0.17738   0.68399   0.00000  Uiso   1.00
H1185  H     0.56090   0.29247   0.90307   0.00000  Uiso   1.00
H1186  H     0.88213   0.24325   0.76229   0.00000  Uiso   1.00
H1187  H     0.93025   0.29006   0.79397   0.00000  Uiso   1.00
H1188  H     0.88020   0.02050   0.83742   0.00000  Uiso   1.00
H1189  H     0.86641   0.32965   0.75530   0.00000  Uiso   1.00
H1190  H     0.83199   0.30624   0.80699   0.00000  Uiso   1.00
N1191  N     0.73745   0.15214   0.67951   0.00000  Uiso   1.00
N1192  N     0.76256   0.18119   0.98716   0.00000  Uiso   1.00
O1193  O     0.75326   0.09538   0.87326   0.00000  Uiso   1.00
O1194  O     0.59975   0.07412   0.84630   0.00000  Uiso   1.00
O1195  O     0.74588   0.31283   0.74853   0.00000  Uiso   1.00
O1196  O     0.76416   0.01924   0.91610   0.00000  Uiso   1.00
O1197  O     0.74675   0.23796   0.79341   0.00000  Uiso   1.00
O1198  O     0.74480   0.08559   0.76945   0.00000  Uiso   1.00
O1199  O     0.75520   0.24774   0.89721   0.00000  Uiso   1.00
O1200  O     0.68936   0.17155   0.88524   0.00000  Uiso   1.00
O1201  O     0.81065   0.16179   0.78143   0.00000  Uiso   1.00
O1202  O     0.68090   0.16176   0.78143   0.00000  Uiso   1.00
O1203  O     0.81910   0.17157   0.88523   0.00000  Uiso   1.00
O1204  O     0.89452   0.26284   0.85825   0.00000  Uiso   1.00
C1205  C     0.24953   0.40013   0.81757   0.00000  Uiso   1.00
C1206  C     0.08662   0.44880   0.82435   0.00000  Uiso   1.00
C1207  C     0.38389   0.50340   0.83246   0.00000  Uiso   1.00
C1208  C     0.11581   0.49605   0.83588   0.00000  Uiso   1.00
C1209  C     0.40070   0.45733   0.80944   0.00000  Uiso   1.00
C1210  C     0.09907   0.54309   0.85557   0.00000  Uiso   1.00
C1211  C     0.44673   0.45605   0.80988   0.00000  Uiso   1.00
C1212  C     0.05318   0.54482   0.85795   0.00000  Uiso   1.00
C1213  C     0.47667   0.50162   0.83452   0.00000  Uiso   1.00
C1214  C     0.02320   0.49915   0.83535   0.00000  Uiso   1.00
C1215  C     0.46001   0.54943   0.85802   0.00000  Uiso   1.00
C1216  C     0.25204   0.59989   0.84870   0.00000  Uiso   1.00
C1217  C     0.03982   0.45069   0.81595   0.00000  Uiso   1.00
C1218  C     0.46290   0.40926   0.78666   0.00000  Uiso   1.00
C1219  C     0.03716   0.59150   0.88340   0.00000  Uiso   1.00
C1220  C     0.39542   0.60976   0.80130   0.00000  Uiso   1.00
C1221  C     0.36670   0.65286   0.80025   0.00000  Uiso   1.00
C1222  C     0.13105   0.38182   0.81187   0.00000  Uiso   1.00
C1223  C     0.13199   0.66217   0.82608   0.00000  Uiso   1.00
C1224  C     0.02287   0.35284   0.76480   0.00000  Uiso   1.00
C1225  C     0.47705   0.64427   0.92144   0.00000  Uiso   1.00
C1226  C     0.20941   0.65374   0.70907   0.00000  Uiso   1.00
C1227  C     0.00882   0.40539   0.79060   0.00000  Uiso   1.00
C1228  C     0.18163   0.60210   0.67929   0.00000  Uiso   1.00
C1229  C     0.31118   0.36057   0.93195   0.00000  Uiso   1.00
C1230  C     0.32135   0.38531   0.99968   0.00000  Uiso   1.00
C1231  C     0.19444   0.45972   0.98242   0.00000  Uiso   1.00
C1232  C     0.30561   0.53963   0.68395   0.00000  Uiso   1.00
C1233  C     0.49107   0.59429   0.88557   0.00000  Uiso   1.00
C1234  C     0.24826   0.34384   0.80796   0.00000  Uiso   1.00
C1235  C     0.25525   0.65590   0.85680   0.00000  Uiso   1.00
C1236  C     0.16435   0.49800   0.83381   0.00000  Uiso   1.00
C1237  C     0.33554   0.50230   0.83320   0.00000  Uiso   1.00
C1238  C     0.41280   0.55015   0.85279   0.00000  Uiso   1.00
Cu1239 Cu    0.25501   0.50579   0.89479   0.00000  Uiso   1.00
Cu1240 Cu    0.24500   0.49421   0.77187   0.00000  Uiso   1.00
H1241  H     0.37747   0.42256   0.79093   0.00000  Uiso   1.00
H1242  H     0.16483   0.40299   0.82656   0.00000  Uiso   1.00
H1243  H     0.12275   0.37723   0.76195   0.00000  Uiso   1.00
H1244  H     0.10093   0.63621   0.80520   0.00000  Uiso   1.00
H1245  H     0.16065   0.64327   0.80797   0.00000  Uiso   1.00
H1246  H     0.13546   0.33341   0.87636   0.00000  Uiso   1.00
H1247  H     0.49428   0.65804   0.73895   0.00000  Uiso   1.00
H1248  H     0.04816   0.35587   0.73235   0.00000  Uiso   1.00
H1249  H     0.03568   0.33655   0.80273   0.00000  Uiso   1.00
H1250  H     0.00612   0.33661   0.94980   0.00000  Uiso   1.00
H1251  H     0.46247   0.66654   0.89051   0.00000  Uiso   1.00
H1252  H     0.12242   0.57807   0.87162   0.00000  Uiso   1.00
H1253  H     0.45254   0.63580   0.95318   0.00000  Uiso   1.00
H1254  H     0.22283   0.33748   0.67279   0.00000  Uiso   1.00
H1255  H     0.18639   0.34652   0.73146   0.00000  Uiso   1.00
H1256  H     0.17001   0.58224   0.71449   0.00000  Uiso   1.00
H1257  H     0.15192   0.60846   0.98411   0.00000  Uiso   1.00
H1258  H     0.20223   0.57727   0.98313   0.00000  Uiso   1.00
H1259  H     0.32730   0.38737   0.90643   0.00000  Uiso   1.00
H1260  H     0.32639   0.65681   0.92266   0.00000  Uiso   1.00
H1261  H     0.30855   0.35793   0.69318   0.00000  Uiso   1.00
H1262  H     0.35820   0.39520   0.67814   0.00000  Uiso   1.00
H1263  H     0.43942   0.37519   0.76582   0.00000  Uiso   1.00
H1264  H     0.30500   0.42114   0.67808   0.00000  Uiso   1.00
H1265  H     0.18091   0.43251   0.67570   0.00000  Uiso   1.00
H1266  H     0.17012   0.48818   0.98164   0.00000  Uiso   1.00
H1267  H     0.19699   0.43537   0.93693   0.00000  Uiso   1.00
H1268  H     0.31918   0.56725   0.99118   0.00000  Uiso   1.00
H1269  H     0.30295   0.56337   0.72961   0.00000  Uiso   1.00
H1270  H     0.32963   0.51072   0.68399   0.00000  Uiso   1.00
H1271  H     0.06090   0.62581   0.90307   0.00000  Uiso   1.00
H1272  H     0.38213   0.57658   0.76229   0.00000  Uiso   1.00
H1273  H     0.43025   0.62340   0.79397   0.00000  Uiso   1.00
H1274  H     0.38020   0.35383   0.83742   0.00000  Uiso   1.00
H1275  H     0.36641   0.66299   0.75530   0.00000  Uiso   1.00
H1276  H     0.33199   0.63957   0.80699   0.00000  Uiso   1.00
N1277  N     0.23745   0.48547   0.67951   0.00000  Uiso   1.00
N1278  N     0.26256   0.51453   0.98716   0.00000  Uiso   1.00
O1279  O     0.25326   0.42871   0.87326   0.00000  Uiso   1.00
O1280  O     0.09975   0.40745   0.84630   0.00000  Uiso   1.00
O1281  O     0.24588   0.64616   0.74853   0.00000  Uiso   1.00
O1282  O     0.26416   0.35257   0.91610   0.00000  Uiso   1.00
O1283  O     0.24675   0.57129   0.79341   0.00000  Uiso   1.00
O1284  O     0.24480   0.41892   0.76945   0.00000  Uiso   1.00
O1285  O     0.25520   0.58108   0.89721   0.00000  Uiso   1.00
O1286  O     0.18936   0.50488   0.88524   0.00000  Uiso   1.00
O1287  O     0.31065   0.49512   0.78143   0.00000  Uiso   1.00
O1288  O     0.18090   0.49510   0.78143   0.00000  Uiso   1.00
O1289  O     0.31910   0.50490   0.88523   0.00000  Uiso   1.00
O1290  O     0.39452   0.59617   0.85825   0.00000  Uiso   1.00
C1291  C     0.74953   0.40013   0.81757   0.00000  Uiso   1.00
C1292  C     0.58662   0.44880   0.82435   0.00000  Uiso   1.00
C1293  C     0.88389   0.50340   0.83246   0.00000  Uiso   1.00
C1294  C     0.61581   0.49605   0.83588   0.00000  Uiso   1.00
C1295  C     0.90070   0.45733   0.80944   0.00000  Uiso   1.00
C1296  C     0.59907   0.54309   0.85557   0.00000  Uiso   1.00
C1297  C     0.94673   0.45605   0.80988   0.00000  Uiso   1.00
C1298  C     0.55318   0.54482   0.85795   0.00000  Uiso   1.00
C1299  C     0.97667   0.50162   0.83452   0.00000  Uiso   1.00
C1300  C     0.52320   0.49915   0.83535   0.00000  Uiso   1.00
C1301  C     0.96001   0.54943   0.85802   0.00000  Uiso   1.00
C1302  C     0.75204   0.59989   0.84870   0.00000  Uiso   1.00
C1303  C     0.53982   0.45069   0.81595   0.00000  Uiso   1.00
C1304  C     0.96290   0.40926   0.78666   0.00000  Uiso   1.00
C1305  C     0.53716   0.59150   0.88340   0.00000  Uiso   1.00
C1306  C     0.89542   0.60976   0.80130   0.00000  Uiso   1.00
C1307  C     0.86670   0.65286   0.80025   0.00000  Uiso   1.00
C1308  C     0.63105   0.38182   0.81187   0.00000  Uiso   1.00
C1309  C     0.63199   0.66217   0.82608   0.00000  Uiso   1.00
C1310  C     0.52287   0.35284   0.76480   0.00000  Uiso   1.00
C1311  C     0.97705   0.64427   0.92144   0.00000  Uiso   1.00
C1312  C     0.70941   0.65374   0.70907   0.00000  Uiso   1.00
C1313  C     0.50882   0.40539   0.79060   0.00000  Uiso   1.00
C1314  C     0.68163   0.60210   0.67929   0.00000  Uiso   1.00
C1315  C     0.81118   0.36057   0.93195   0.00000  Uiso   1.00
C1316  C     0.82135   0.38531   0.99968   0.00000  Uiso   1.00
C1317  C     0.69444   0.45972   0.98242   0.00000  Uiso   1.00
C1318  C     0.80561   0.53963   0.68395   0.00000  Uiso   1.00
C1319  C     0.99107   0.59429   0.88557   0.00000  Uiso   1.00
C1320  C     0.74826   0.34384   0.80796   0.00000  Uiso   1.00
C1321  C     0.75525   0.65590   0.85680   0.00000  Uiso   1.00
C1322  C     0.66435   0.49800   0.83381   0.00000  Uiso   1.00
C1323  C     0.83554   0.50230   0.83320   0.00000  Uiso   1.00
C1324  C     0.91280   0.55015   0.85279   0.00000  Uiso   1.00
Cu1325 Cu    0.75501   0.50579   0.89479   0.00000  Uiso   1.00
Cu1326 Cu    0.74500   0.49421   0.77187   0.00000  Uiso   1.00
H1327  H     0.87747   0.42256   0.79093   0.00000  Uiso   1.00
H1328  H     0.66483   0.40299   0.82656   0.00000  Uiso   1.00
H1329  H     0.62275   0.37723   0.76195   0.00000  Uiso   1.00
H1330  H     0.60093   0.63621   0.80520   0.00000  Uiso   1.00
H1331  H     0.66065   0.64327   0.80797   0.00000  Uiso   1.00
H1332  H     0.63546   0.33341   0.87636   0.00000  Uiso   1.00
H1333  H     0.99428   0.65804   0.73895   0.00000  Uiso   1.00
H1334  H     0.54816   0.35587   0.73235   0.00000  Uiso   1.00
H1335  H     0.53568   0.33655   0.80273   0.00000  Uiso   1.00
H1336  H     0.50612   0.33661   0.94980   0.00000  Uiso   1.00
H1337  H     0.96247   0.66654   0.89051   0.00000  Uiso   1.00
H1338  H     0.62242   0.57807   0.87162   0.00000  Uiso   1.00
H1339  H     0.95254   0.63580   0.95318   0.00000  Uiso   1.00
H1340  H     0.72283   0.33748   0.67279   0.00000  Uiso   1.00
H1341  H     0.68639   0.34652   0.73146   0.00000  Uiso   1.00
H1342  H     0.67001   0.58224   0.71449   0.00000  Uiso   1.00
H1343  H     0.65192   0.60846   0.98411   0.00000  Uiso   1.00
H1344  H     0.70223   0.57727   0.98313   0.00000  Uiso   1.00
H1345  H     0.82730   0.38737   0.90643   0.00000  Uiso   1.00
H1346  H     0.82639   0.65681   0.92266   0.00000  Uiso   1.00
H1347  H     0.80855   0.35793   0.69318   0.00000  Uiso   1.00
H1348  H     0.85820   0.39520   0.67814   0.00000  Uiso   1.00
H1349  H     0.93942   0.37519   0.76582   0.00000  Uiso   1.00
H1350  H     0.80500   0.42114   0.67808   0.00000  Uiso   1.00
H1351  H     0.68091   0.43251   0.67570   0.00000  Uiso   1.00
H1352  H     0.67012   0.48818   0.98164   0.00000  Uiso   1.00
H1353  H     0.69699   0.43537   0.93693   0.00000  Uiso   1.00
H1354  H     0.81918   0.56725   0.99118   0.00000  Uiso   1.00
H1355  H     0.80295   0.56337   0.72961   0.00000  Uiso   1.00
H1356  H     0.82963   0.51072   0.68399   0.00000  Uiso   1.00
H1357  H     0.56090   0.62581   0.90307   0.00000  Uiso   1.00
H1358  H     0.88213   0.57658   0.76229   0.00000  Uiso   1.00
H1359  H     0.93025   0.62340   0.79397   0.00000  Uiso   1.00
H1360  H     0.88020   0.35383   0.83742   0.00000  Uiso   1.00
H1361  H     0.86641   0.66299   0.75530   0.00000  Uiso   1.00
H1362  H     0.83199   0.63957   0.80699   0.00000  Uiso   1.00
N1363  N     0.73745   0.48547   0.67951   0.00000  Uiso   1.00
N1364  N     0.76256   0.51453   0.98716   0.00000  Uiso   1.00
O1365  O     0.75326   0.42871   0.87326   0.00000  Uiso   1.00
O1366  O     0.59975   0.40745   0.84630   0.00000  Uiso   1.00
O1367  O     0.74588   0.64616   0.74853   0.00000  Uiso   1.00
O1368  O     0.76416   0.35257   0.91610   0.00000  Uiso   1.00
O1369  O     0.74675   0.57129   0.79341   0.00000  Uiso   1.00
O1370  O     0.74480   0.41892   0.76945   0.00000  Uiso   1.00
O1371  O     0.75520   0.58108   0.89721   0.00000  Uiso   1.00
O1372  O     0.68936   0.50488   0.88524   0.00000  Uiso   1.00
O1373  O     0.81065   0.49512   0.78143   0.00000  Uiso   1.00
O1374  O     0.68090   0.49510   0.78143   0.00000  Uiso   1.00
O1375  O     0.81910   0.50490   0.88523   0.00000  Uiso   1.00
O1376  O     0.89452   0.59617   0.85825   0.00000  Uiso   1.00
C1377  C     0.24953   0.73347   0.81757   0.00000  Uiso   1.00
C1378  C     0.08662   0.78213   0.82435   0.00000  Uiso   1.00
C1379  C     0.38389   0.83673   0.83246   0.00000  Uiso   1.00
C1380  C     0.11581   0.82938   0.83588   0.00000  Uiso   1.00
C1381  C     0.40070   0.79066   0.80944   0.00000  Uiso   1.00
C1382  C     0.09907   0.87643   0.85557   0.00000  Uiso   1.00
C1383  C     0.44673   0.78938   0.80988   0.00000  Uiso   1.00
C1384  C     0.05318   0.87816   0.85795   0.00000  Uiso   1.00
C1385  C     0.47667   0.83496   0.83452   0.00000  Uiso   1.00
C1386  C     0.02320   0.83248   0.83535   0.00000  Uiso   1.00
C1387  C     0.46001   0.88276   0.85802   0.00000  Uiso   1.00
C1388  C     0.25204   0.93322   0.84870   0.00000  Uiso   1.00
C1389  C     0.03982   0.78402   0.81595   0.00000  Uiso   1.00
C1390  C     0.46290   0.74260   0.78666   0.00000  Uiso   1.00
C1391  C     0.03716   0.92483   0.88340   0.00000  Uiso   1.00
C1392  C     0.39542   0.94309   0.80130   0.00000  Uiso   1.00
C1393  C     0.36670   0.98619   0.80025   0.00000  Uiso   1.00
C1394  C     0.13105   0.71516   0.81187   0.00000  Uiso   1.00
C1395  C     0.13199   0.99550   0.82608   0.00000  Uiso   1.00
C1396  C     0.02287   0.68617   0.76480   0.00000  Uiso   1.00
C1397  C     0.47705   0.97761   0.92144   0.00000  Uiso   1.00
C1398  C     0.20941   0.98707   0.70907   0.00000  Uiso   1.00
C1399  C     0.00882   0.73872   0.79060   0.00000  Uiso   1.00
C1400  C     0.18163   0.93543   0.67929   0.00000  Uiso   1.00
C1401  C     0.31118   0.69391   0.93195   0.00000  Uiso   1.00
C1402  C     0.32135   0.71865   0.99968   0.00000  Uiso   1.00
C1403  C     0.19444   0.79306   0.98242   0.00000  Uiso   1.00
C1404  C     0.30561   0.87297   0.68395   0.00000  Uiso   1.00
C1405  C     0.49107   0.92762   0.88557   0.00000  Uiso   1.00
C1406  C     0.24826   0.67718   0.80796   0.00000  Uiso   1.00
C1407  C     0.25525   0.98923   0.85680   0.00000  Uiso   1.00
C1408  C     0.16435   0.83134   0.83381   0.00000  Uiso   1.00
C1409  C     0.33554   0.83563   0.83320   0.00000  Uiso   1.00
C1410  C     0.41280   0.88348   0.85279   0.00000  Uiso   1.00
Cu1411 Cu    0.25501   0.83913   0.89479   0.00000  Uiso   1.00
Cu1412 Cu    0.24500   0.82754   0.77187   0.00000  Uiso   1.00
H1413  H     0.37747   0.75589   0.79093   0.00000  Uiso   1.00
H1414  H     0.16483   0.73633   0.82656   0.00000  Uiso   1.00
H1415  H     0.12275   0.71057   0.76195   0.00000  Uiso   1.00
H1416  H     0.10093   0.96954   0.80520   0.00000  Uiso   1.00
H1417  H     0.16065   0.97660   0.80797   0.00000  Uiso   1.00
H1418  H     0.13546   0.66675   0.87636   0.00000  Uiso   1.00
H1419  H     0.49428   0.99137   0.73895   0.00000  Uiso   1.00
H1420  H     0.04816   0.68921   0.73235   0.00000  Uiso   1.00
H1421  H     0.03568   0.66988   0.80273   0.00000  Uiso   1.00
H1422  H     0.00612   0.66994   0.94980   0.00000  Uiso   1.00
H1423  H     0.46247   0.99988   0.89051   0.00000  Uiso   1.00
H1424  H     0.12242   0.91140   0.87162   0.00000  Uiso   1.00
H1425  H     0.45254   0.96914   0.95318   0.00000  Uiso   1.00
H1426  H     0.22283   0.67082   0.67279   0.00000  Uiso   1.00
H1427  H     0.18639   0.67986   0.73146   0.00000  Uiso   1.00
H1428  H     0.17001   0.91557   0.71449   0.00000  Uiso   1.00
H1429  H     0.15192   0.94179   0.98411   0.00000  Uiso   1.00
H1430  H     0.20223   0.91060   0.98313   0.00000  Uiso   1.00
H1431  H     0.32730   0.72071   0.90643   0.00000  Uiso   1.00
H1432  H     0.32639   0.99014   0.92266   0.00000  Uiso   1.00
H1433  H     0.30855   0.69126   0.69318   0.00000  Uiso   1.00
H1434  H     0.35820   0.72854   0.67814   0.00000  Uiso   1.00
H1435  H     0.43942   0.70852   0.76582   0.00000  Uiso   1.00
H1436  H     0.30500   0.75447   0.67808   0.00000  Uiso   1.00
H1437  H     0.18091   0.76584   0.67570   0.00000  Uiso   1.00
H1438  H     0.17012   0.82151   0.98164   0.00000  Uiso   1.00
H1439  H     0.19699   0.76870   0.93693   0.00000  Uiso   1.00
H1440  H     0.31918   0.90058   0.99118   0.00000  Uiso   1.00
H1441  H     0.30295   0.89670   0.72961   0.00000  Uiso   1.00
H1442  H     0.32963   0.84405   0.68399   0.00000  Uiso   1.00
H1443  H     0.06090   0.95914   0.90307   0.00000  Uiso   1.00
H1444  H     0.38213   0.90991   0.76229   0.00000  Uiso   1.00
H1445  H     0.43025   0.95673   0.79397   0.00000  Uiso   1.00
H1446  H     0.38020   0.68717   0.83742   0.00000  Uiso   1.00
H1447  H     0.36641   0.99632   0.75530   0.00000  Uiso   1.00
H1448  H     0.33199   0.97291   0.80699   0.00000  Uiso   1.00
N1449  N     0.23745   0.81881   0.67951   0.00000  Uiso   1.00
N1450  N     0.26256   0.84786   0.98716   0.00000  Uiso   1.00
O1451  O     0.25326   0.76204   0.87326   0.00000  Uiso   1.00
O1452  O     0.09975   0.74079   0.84630   0.00000  Uiso   1.00
O1453  O     0.24588   0.97950   0.74853   0.00000  Uiso   1.00
O1454  O     0.26416   0.68591   0.91610   0.00000  Uiso   1.00
O1455  O     0.24675   0.90462   0.79341   0.00000  Uiso   1.00
O1456  O     0.24480   0.75226   0.76945   0.00000  Uiso   1.00
O1457  O     0.25520   0.91441   0.89721   0.00000  Uiso   1.00
O1458  O     0.18936   0.83821   0.88524   0.00000  Uiso   1.00
O1459  O     0.31065   0.82845   0.78143   0.00000  Uiso   1.00
O1460  O     0.18090   0.82843   0.78143   0.00000  Uiso   1.00
O1461  O     0.31910   0.83824   0.88523   0.00000  Uiso   1.00
O1462  O     0.39452   0.92950   0.85825   0.00000  Uiso   1.00
C1463  C     0.74953   0.73347   0.81757   0.00000  Uiso   1.00
C1464  C     0.58662   0.78213   0.82435   0.00000  Uiso   1.00
C1465  C     0.88389   0.83673   0.83246   0.00000  Uiso   1.00
C1466  C     0.61581   0.82938   0.83588   0.00000  Uiso   1.00
C1467  C     0.90070   0.79066   0.80944   0.00000  Uiso   1.00
C1468  C     0.59907   0.87643   0.85557   0.00000  Uiso   1.00
C1469  C     0.94673   0.78938   0.80988   0.00000  Uiso   1.00
C1470  C     0.55318   0.87816   0.85795   0.00000  Uiso   1.00
C1471  C     0.97667   0.83496   0.83452   0.00000  Uiso   1.00
C1472  C     0.52320   0.83248   0.83535   0.00000  Uiso   1.00
C1473  C     0.96001   0.88276   0.85802   0.00000  Uiso   1.00
C1474  C     0.75204   0.93322   0.84870   0.00000  Uiso   1.00
C1475  C     0.53982   0.78402   0.81595   0.00000  Uiso   1.00
C1476  C     0.96290   0.74260   0.78666   0.00000  Uiso   1.00
C1477  C     0.53716   0.92483   0.88340   0.00000  Uiso   1.00
C1478  C     0.89542   0.94309   0.80130   0.00000  Uiso   1.00
C1479  C     0.86670   0.98619   0.80025   0.00000  Uiso   1.00
C1480  C     0.63105   0.71516   0.81187   0.00000  Uiso   1.00
C1481  C     0.63199   0.99550   0.82608   0.00000  Uiso   1.00
C1482  C     0.52287   0.68617   0.76480   0.00000  Uiso   1.00
C1483  C     0.97705   0.97761   0.92144   0.00000  Uiso   1.00
C1484  C     0.70941   0.98707   0.70907   0.00000  Uiso   1.00
C1485  C     0.50882   0.73872   0.79060   0.00000  Uiso   1.00
C1486  C     0.68163   0.93543   0.67929   0.00000  Uiso   1.00
C1487  C     0.81118   0.69391   0.93195   0.00000  Uiso   1.00
C1488  C     0.82135   0.71865   0.99968   0.00000  Uiso   1.00
C1489  C     0.69444   0.79306   0.98242   0.00000  Uiso   1.00
C1490  C     0.80561   0.87297   0.68395   0.00000  Uiso   1.00
C1491  C     0.99107   0.92762   0.88557   0.00000  Uiso   1.00
C1492  C     0.74826   0.67718   0.80796   0.00000  Uiso   1.00
C1493  C     0.75525   0.98923   0.85680   0.00000  Uiso   1.00
C1494  C     0.66435   0.83134   0.83381   0.00000  Uiso   1.00
C1495  C     0.83554   0.83563   0.83320   0.00000  Uiso   1.00
C1496  C     0.91280   0.88348   0.85279   0.00000  Uiso   1.00
Cu1497 Cu    0.75501   0.83913   0.89479   0.00000  Uiso   1.00
Cu1498 Cu    0.74500   0.82754   0.77187   0.00000  Uiso   1.00
H1499  H     0.87747   0.75589   0.79093   0.00000  Uiso   1.00
H1500  H     0.66483   0.73633   0.82656   0.00000  Uiso   1.00
H1501  H     0.62275   0.71057   0.76195   0.00000  Uiso   1.00
H1502  H     0.60093   0.96954   0.80520   0.00000  Uiso   1.00
H1503  H     0.66065   0.97660   0.80797   0.00000  Uiso   1.00
H1504  H     0.63546   0.66675   0.87636   0.00000  Uiso   1.00
H1505  H     0.99428   0.99137   0.73895   0.00000  Uiso   1.00
H1506  H     0.54816   0.68921   0.73235   0.00000  Uiso   1.00
H1507  H     0.53568   0.66988   0.80273   0.00000  Uiso   1.00
H1508  H     0.50612   0.66994   0.94980   0.00000  Uiso   1.00
H1509  H     0.96247   0.99988   0.89051   0.00000  Uiso   1.00
H1510  H     0.62242   0.91140   0.87162   0.00000  Uiso   1.00
H1511  H     0.95254   0.96914   0.95318   0.00000  Uiso   1.00
H1512  H     0.72283   0.67082   0.67279   0.00000  Uiso   1.00
H1513  H     0.68639   0.67986   0.73146   0.00000  Uiso   1.00
H1514  H     0.67001   0.91557   0.71449   0.00000  Uiso   1.00
H1515  H     0.65192   0.94179   0.98411   0.00000  Uiso   1.00
H1516  H     0.70223   0.91060   0.98313   0.00000  Uiso   1.00
H1517  H     0.82730   0.72071   0.90643   0.00000  Uiso   1.00
H1518  H     0.82639   0.99014   0.92266   0.00000  Uiso   1.00
H1519  H     0.80855   0.69126   0.69318   0.00000  Uiso   1.00
H1520  H     0.85820   0.72854   0.67814   0.00000  Uiso   1.00
H1521  H     0.93942   0.70852   0.76582   0.00000  Uiso   1.00
H1522  H     0.80500   0.75447   0.67808   0.00000  Uiso   1.00
H1523  H     0.68091   0.76584   0.67570   0.00000  Uiso   1.00
H1524  H     0.67012   0.82151   0.98164   0.00000  Uiso   1.00
H1525  H     0.69699   0.76870   0.93693   0.00000  Uiso   1.00
H1526  H     0.81918   0.90058   0.99118   0.00000  Uiso   1.00
H1527  H     0.80295   0.89670   0.72961   0.00000  Uiso   1.00
H1528  H     0.82963   0.84405   0.68399   0.00000  Uiso   1.00
H1529  H     0.56090   0.95914   0.90307   0.00000  Uiso   1.00
H1530  H     0.88213   0.90991   0.76229   0.00000  Uiso   1.00
H1531  H     0.93025   0.95673   0.79397   0.00000  Uiso   1.00
H1532  H     0.88020   0.68717   0.83742   0.00000  Uiso   1.00
H1533  H     0.86641   0.99632   0.75530   0.00000  Uiso   1.00
H1534  H     0.83199   0.97291   0.80699   0.00000  Uiso   1.00
N1535  N     0.73745   0.81881   0.67951   0.00000  Uiso   1.00
N1536  N     0.76256   0.84786   0.98716   0.00000  Uiso   1.00
O1537  O     0.75326   0.76204   0.87326   0.00000  Uiso   1.00
O1538  O     0.59975   0.74079   0.84630   0.00000  Uiso   1.00
O1539  O     0.74588   0.97950   0.74853   0.00000  Uiso   1.00
O1540  O     0.76416   0.68591   0.91610   0.00000  Uiso   1.00
O1541  O     0.74675   0.90462   0.79341   0.00000  Uiso   1.00
O1542  O     0.74480   0.75226   0.76945   0.00000  Uiso   1.00
O1543  O     0.75520   0.91441   0.89721   0.00000  Uiso   1.00
O1544  O     0.68936   0.83821   0.88524   0.00000  Uiso   1.00
O1545  O     0.81065   0.82845   0.78143   0.00000  Uiso   1.00
O1546  O     0.68090   0.82843   0.78143   0.00000  Uiso   1.00
O1547  O     0.81910   0.83824   0.88523   0.00000  Uiso   1.00
O1548  O     0.89452   0.92950   0.85825   0.00000  Uiso   1.00
loop_
_geom_bond_atom_site_label_1
_geom_bond_atom_site_label_2
_geom_bond_distance
_geom_bond_site_symmetry_2
_ccdc_geom_bond_type
C1     O75     1.305   .     A
C1     C30     1.462   .     S
C1     O80     1.300   .     A
C2     C13     1.414   .     A
C2     C4      1.419   .     A
C2     O76     1.385   .     S
C3     C33     1.454   .     S
C3     C34     1.406   .     A
C3     C5      1.382   .     A
C4     C6      1.391   .     A
C4     C32     1.461   .     S
C5     H37     1.081   .     S
C5     C7      1.388   .     A
C6     H48     1.080   .     S
C6     C8      1.391   .     A
C7     C14     1.390   .     A
C7     C9      1.410   .     A
C8     C15     1.397   .     A
C8     C10     1.406   .     A
C9     C11     1.422   .     A
C9     C96     1.407   .     S
C10    C13     1.421   .     A
C10    C95     1.407   1_455 S
C11    C34     1.419   .     A
C11    C29     1.426   .     A
C12    O79     1.297   .     A
C12    C31     1.454   .     S
C12    O81     1.306   .     A
C13    C23     1.424   .     A
C14    H59     1.081   .     S
C14    C109    1.394   .     S
C15    H67     1.084   .     S
C15    C115    1.401   1_455 S
C16    C17     1.509   .     S
C16    H68     1.113   .     S
C16    O86     1.416   .     S
C16    H69     1.111   .     S
C17    H71     1.108   .     S
C17    H72     1.102   .     S
C17    H242    1.109   .     S
C18    H39     1.113   .     S
C18    O76     1.402   .     S
C18    H38     1.098   .     S
C18    C363    1.519   1_545 S
C19    H40     1.107   .     S
C19    H41     1.103   .     S
C19    C190    1.519   .     S
C19    H214    1.111   .     S
C20    H45     1.105   .     S
C20    H44     1.107   .     S
C20    C23     1.506   .     S
C20    H473    1.111   1_445 S
C21    H49     1.110   .     S
C21    C29     1.513   .     S
C21    H47     1.107   .     S
C21    H304    1.111   .     S
C22    C24     1.517   .     S
C22    O77     1.419   .     S
C22    H222    1.108   .     S
C22    H223    1.102   .     S
C23    C100    1.394   1_455 S
C24    H52     1.110   .     S
C24    H1085   1.110   1_554 S
C24    H1086   1.102   1_554 S
C25    O78     1.414   .     S
C25    C26     1.517   .     S
C25    H55     1.113   .     S
C25    H400    1.115   1_545 S
C26    H573    1.108   .     S
C26    H574    1.110   .     S
C26    H576    1.106   .     S
C27    H62     1.108   .     S
C27    H63     1.098   .     S
C27    H577    1.109   .     S
C27    N589    1.443   .     S
C28    H66     1.109   .     S
C28    H65     1.095   .     S
C28    H1096   1.109   1_554 S
C28    N1106   1.438   1_554 S
C29    C101    1.401   .     S
C30    C375    1.362   1_545 S
C30    O421    1.401   1_545 S
C31    C202    1.362   .     S
C31    O250    1.387   .     S
C32    O84     1.310   .     A
C32    O82     1.300   .     A
C33    O85     1.302   .     A
C33    O83     1.303   .     A
C34    O86     1.378   .     S
Cu35   N74     2.040   .     S
Cu35   Cu36    2.715   .     S
Cu35   O81     1.993   .     S
Cu35   O75     1.994   .     S
Cu35   O82     1.967   .     S
Cu35   O85     1.960   .     S
Cu36   O83     1.967   .     S
Cu36   O80     1.993   .     S
Cu36   O79     1.994   .     S
Cu36   O84     1.960   .     S
Cu36   N73     2.040   .     S
H42    C363    1.111   1_545 S
H43    C278    1.111   .     S
H46    C451    1.111   1_445 S
H50    C366    1.108   1_545 S
H51    C366    1.102   1_545 S
H53    C540    1.110   .     S
H54    C540    1.102   .     S
H56    C197    1.115   .     S
H57    C1058   1.108   1_554 S
H58    C1058   1.110   1_554 S
H60    C1058   1.106   1_554 S
H61    C1059   1.109   1_554 S
H64    C544    1.109   .     S
H70    C361    1.109   1_545 S
N73    C1059   1.443   1_554 S
N73    N1106   1.289   1_554 S
N74    N589    1.289   .     S
N74    C544    1.438   .     S
O77    C202    1.401   .     S
O78    C375    1.387   1_545 S
C87    O161    1.305   .     A
C87    C116    1.462   .     S
C87    O166    1.300   .     A
C88    C99     1.414   .     A
C88    C90     1.419   .     A
C88    O162    1.385   .     S
C89    C119    1.454   .     S
C89    C120    1.406   .     A
C89    C91     1.382   .     A
C90    C92     1.391   .     A
C90    C118    1.461   .     S
C91    H123    1.081   .     S
C91    C93     1.388   .     A
C92    H134    1.080   .     S
C92    C94     1.391   .     A
C93    C100    1.390   .     A
C93    C95     1.410   .     A
C94    C101    1.397   .     A
C94    C96     1.406   .     A
C95    C97     1.422   .     A
C95    C10     1.407   1_655 S
C96    C99     1.421   .     A
C97    C120    1.419   .     A
C97    C115    1.426   .     A
C98    O165    1.297   .     A
C98    C117    1.454   .     S
C98    O167    1.306   .     A
C99    C109    1.424   .     A
C100   H145    1.081   .     S
C100   C23     1.394   1_655 S
C101   H153    1.084   .     S
C102   C103    1.509   .     S
C102   H154    1.113   .     S
C102   O172    1.416   .     S
C102   H155    1.111   .     S
C103   H157    1.108   .     S
C103   H158    1.102   .     S
C103   H328    1.109   .     S
C104   H125    1.113   .     S
C104   O162    1.402   .     S
C104   H124    1.098   .     S
C104   C449    1.519   1_545 S
C105   H126    1.107   .     S
C105   H127    1.103   .     S
C105   C276    1.519   .     S
C105   H300    1.111   .     S
C106   H131    1.105   .     S
C106   H130    1.107   .     S
C106   C109    1.506   .     S
C106   H387    1.111   1_545 S
C107   H135    1.110   .     S
C107   C115    1.513   .     S
C107   H133    1.107   .     S
C107   H218    1.111   1_655 S
C108   C110    1.517   .     S
C108   O163    1.419   .     S
C108   H308    1.108   .     S
C108   H309    1.102   .     S
C110   H138    1.110   .     S
C110   H1171   1.110   1_554 S
C110   H1172   1.102   1_554 S
C111   O164    1.414   .     S
C111   C112    1.517   .     S
C111   H141    1.113   .     S
C111   H486    1.115   1_545 S
C112   H659    1.108   .     S
C112   H660    1.110   .     S
C112   H662    1.106   .     S
C113   H148    1.108   .     S
C113   H149    1.098   .     S
C113   H663    1.109   .     S
C113   N675    1.443   .     S
C114   H152    1.109   .     S
C114   H151    1.095   .     S
C114   H1182   1.109   1_554 S
C114   N1192   1.438   1_554 S
C115   C15     1.401   1_655 S
C116   C461    1.362   1_545 S
C116   O507    1.401   1_545 S
C117   C288    1.362   .     S
C117   O336    1.387   .     S
C118   O170    1.310   .     A
C118   O168    1.300   .     A
C119   O171    1.302   .     A
C119   O169    1.303   .     A
C120   O172    1.378   .     S
Cu121  N160    2.040   .     S
Cu121  Cu122   2.715   .     S
Cu121  O167    1.993   .     S
Cu121  O161    1.994   .     S
Cu121  O168    1.967   .     S
Cu121  O171    1.960   .     S
Cu122  O169    1.967   .     S
Cu122  O166    1.993   .     S
Cu122  O165    1.994   .     S
Cu122  O170    1.960   .     S
Cu122  N159    2.040   .     S
H128   C449    1.111   1_545 S
H129   C192    1.111   1_655 S
H132   C365    1.111   1_545 S
H136   C452    1.108   1_545 S
H137   C452    1.102   1_545 S
H139   C626    1.110   .     S
H140   C626    1.102   .     S
H142   C283    1.115   .     S
H143   C1144   1.108   1_554 S
H144   C1144   1.110   1_554 S
H146   C1144   1.106   1_554 S
H147   C1145   1.109   1_554 S
H150   C630    1.109   .     S
H156   C447    1.109   1_545 S
N159   C1145   1.443   1_554 S
N159   N1192   1.289   1_554 S
N160   N675    1.289   .     S
N160   C630    1.438   .     S
O163   C288    1.401   .     S
O164   C461    1.387   1_545 S
C173   O247    1.305   .     A
C173   C202    1.462   .     S
C173   O252    1.300   .     A
C174   C185    1.414   .     A
C174   C176    1.419   .     A
C174   O248    1.385   .     S
C175   C205    1.454   .     S
C175   C206    1.406   .     A
C175   C177    1.382   .     A
C176   C178    1.391   .     A
C176   C204    1.461   .     S
C177   H209    1.081   .     S
C177   C179    1.388   .     A
C178   H220    1.080   .     S
C178   C180    1.391   .     A
C179   C186    1.390   .     A
C179   C181    1.410   .     A
C180   C187    1.397   .     A
C180   C182    1.406   .     A
C181   C183    1.422   .     A
C181   C268    1.407   .     S
C182   C185    1.421   .     A
C182   C267    1.407   1_455 S
C183   C206    1.419   .     A
C183   C201    1.426   .     A
C184   O251    1.297   .     A
C184   C203    1.454   .     S
C184   O253    1.306   .     A
C185   C195    1.424   .     A
C186   H231    1.081   .     S
C186   C281    1.394   .     S
C187   H239    1.084   .     S
C187   C287    1.401   1_455 S
C188   C189    1.509   .     S
C188   H240    1.113   .     S
C188   O258    1.416   .     S
C188   H241    1.111   .     S
C189   H243    1.108   .     S
C189   H244    1.102   .     S
C189   H414    1.109   .     S
C190   H211    1.113   .     S
C190   O248    1.402   .     S
C190   H210    1.098   .     S
C191   H212    1.107   .     S
C191   H213    1.103   .     S
C191   C362    1.519   .     S
C191   H386    1.111   .     S
C192   H217    1.105   .     S
C192   H216    1.107   .     S
C192   C195    1.506   .     S
C192   H129    1.111   1_455 S
C193   H221    1.110   .     S
C193   C201    1.513   .     S
C193   H219    1.107   .     S
C193   H476    1.111   .     S
C194   C196    1.517   .     S
C194   O249    1.419   .     S
C194   H394    1.108   .     S
C194   H395    1.102   .     S
C195   C272    1.394   1_455 S
C196   H224    1.110   .     S
C196   H1257   1.110   1_554 S
C196   H1258   1.102   1_554 S
C197   O250    1.414   .     S
C197   C198    1.517   .     S
C197   H227    1.113   .     S
C198   H745    1.108   .     S
C198   H746    1.110   .     S
C198   H748    1.106   .     S
C199   H234    1.108   .     S
C199   H235    1.098   .     S
C199   H749    1.109   .     S
C199   N761    1.443   .     S
C200   H238    1.109   .     S
C200   H237    1.095   .     S
C200   H1268   1.109   1_554 S
C200   N1278   1.438   1_554 S
C201   C273    1.401   .     S
C203   C374    1.362   .     S
C203   O422    1.387   .     S
C204   O256    1.310   .     A
C204   O254    1.300   .     A
C205   O257    1.302   .     A
C205   O255    1.303   .     A
C206   O258    1.378   .     S
Cu207  N246    2.040   .     S
Cu207  Cu208   2.715   .     S
Cu207  O253    1.993   .     S
Cu207  O247    1.994   .     S
Cu207  O254    1.967   .     S
Cu207  O257    1.960   .     S
Cu208  O255    1.967   .     S
Cu208  O252    1.993   .     S
Cu208  O251    1.994   .     S
Cu208  O256    1.960   .     S
Cu208  N245    2.040   .     S
H215   C450    1.111   .     S
H218   C107    1.111   1_455 S
H225   C712    1.110   .     S
H226   C712    1.102   .     S
H228   C369    1.115   .     S
H229   C1230   1.108   1_554 S
H230   C1230   1.110   1_554 S
H232   C1230   1.106   1_554 S
H233   C1231   1.109   1_554 S
H236   C716    1.109   .     S
N245   C1231   1.443   1_554 S
N245   N1278   1.289   1_554 S
N246   N761    1.289   .     S
N246   C716    1.438   .     S
O249   C374    1.401   .     S
C259   O333    1.305   .     A
C259   C288    1.462   .     S
C259   O338    1.300   .     A
C260   C271    1.414   .     A
C260   C262    1.419   .     A
C260   O334    1.385   .     S
C261   C291    1.454   .     S
C261   C292    1.406   .     A
C261   C263    1.382   .     A
C262   C264    1.391   .     A
C262   C290    1.461   .     S
C263   H295    1.081   .     S
C263   C265    1.388   .     A
C264   H306    1.080   .     S
C264   C266    1.391   .     A
C265   C272    1.390   .     A
C265   C267    1.410   .     A
C266   C273    1.397   .     A
C266   C268    1.406   .     A
C267   C269    1.422   .     A
C267   C182    1.407   1_655 S
C268   C271    1.421   .     A
C269   C292    1.419   .     A
C269   C287    1.426   .     A
C270   O337    1.297   .     A
C270   C289    1.454   .     S
C270   O339    1.306   .     A
C271   C281    1.424   .     A
C272   H317    1.081   .     S
C272   C195    1.394   1_655 S
C273   H325    1.084   .     S
C274   C275    1.509   .     S
C274   H326    1.113   .     S
C274   O344    1.416   .     S
C274   H327    1.111   .     S
C275   H329    1.108   .     S
C275   H330    1.102   .     S
C275   H500    1.109   .     S
C276   H297    1.113   .     S
C276   O334    1.402   .     S
C276   H296    1.098   .     S
C277   H298    1.107   .     S
C277   H299    1.103   .     S
C277   C448    1.519   .     S
C277   H472    1.111   .     S
C278   H303    1.105   .     S
C278   H302    1.107   .     S
C278   C281    1.506   .     S
C279   H307    1.110   .     S
C279   C287    1.513   .     S
C279   H305    1.107   .     S
C279   H390    1.111   1_655 S
C280   C282    1.517   .     S
C280   O335    1.419   .     S
C280   H480    1.108   .     S
C280   H481    1.102   .     S
C282   H310    1.110   .     S
C282   H1343   1.110   1_554 S
C282   H1344   1.102   1_554 S
C283   O336    1.414   .     S
C283   C284    1.517   .     S
C283   H313    1.113   .     S
C284   H831    1.108   .     S
C284   H832    1.110   .     S
C284   H834    1.106   .     S
C285   H320    1.108   .     S
C285   H321    1.098   .     S
C285   H835    1.109   .     S
C285   N847    1.443   .     S
C286   H324    1.109   .     S
C286   H323    1.095   .     S
C286   H1354   1.109   1_554 S
C286   N1364   1.438   1_554 S
C287   C187    1.401   1_655 S
C289   C460    1.362   .     S
C289   O508    1.387   .     S
C290   O342    1.310   .     A
C290   O340    1.300   .     A
C291   O343    1.302   .     A
C291   O341    1.303   .     A
C292   O344    1.378   .     S
Cu293  N332    2.040   .     S
Cu293  Cu294   2.715   .     S
Cu293  O339    1.993   .     S
Cu293  O333    1.994   .     S
Cu293  O340    1.967   .     S
Cu293  O343    1.960   .     S
Cu294  O341    1.967   .     S
Cu294  O338    1.993   .     S
Cu294  O337    1.994   .     S
Cu294  O342    1.960   .     S
Cu294  N331    2.040   .     S
H301   C364    1.111   1_655 S
H311   C798    1.110   .     S
H312   C798    1.102   .     S
H314   C455    1.115   .     S
H315   C1316   1.108   1_554 S
H316   C1316   1.110   1_554 S
H318   C1316   1.106   1_554 S
H319   C1317   1.109   1_554 S
H322   C802    1.109   .     S
N331   C1317   1.443   1_554 S
N331   N1364   1.289   1_554 S
N332   N847    1.289   .     S
N332   C802    1.438   .     S
O335   C460    1.401   .     S
C345   O419    1.305   .     A
C345   C374    1.462   .     S
C345   O424    1.300   .     A
C346   C357    1.414   .     A
C346   C348    1.419   .     A
C346   O420    1.385   .     S
C347   C377    1.454   .     S
C347   C378    1.406   .     A
C347   C349    1.382   .     A
C348   C350    1.391   .     A
C348   C376    1.461   .     S
C349   H381    1.081   .     S
C349   C351    1.388   .     A
C350   H392    1.080   .     S
C350   C352    1.391   .     A
C351   C358    1.390   .     A
C351   C353    1.410   .     A
C352   C359    1.397   .     A
C352   C354    1.406   .     A
C353   C355    1.422   .     A
C353   C440    1.407   .     S
C354   C357    1.421   .     A
C354   C439    1.407   1_455 S
C355   C378    1.419   .     A
C355   C373    1.426   .     A
C356   O423    1.297   .     A
C356   C375    1.454   .     S
C356   O425    1.306   .     A
C357   C367    1.424   .     A
C358   H403    1.081   .     S
C358   C453    1.394   .     S
C359   H411    1.084   .     S
C359   C459    1.401   1_455 S
C360   C361    1.509   .     S
C360   H412    1.113   .     S
C360   O430    1.416   .     S
C360   H413    1.111   .     S
C361   H415    1.108   .     S
C361   H416    1.102   .     S
C361   H70     1.109   1_565 S
C362   H383    1.113   .     S
C362   O420    1.402   .     S
C362   H382    1.098   .     S
C363   H384    1.107   .     S
C363   H385    1.103   .     S
C363   C18     1.519   1_565 S
C363   H42     1.111   1_565 S
C364   H389    1.105   .     S
C364   H388    1.107   .     S
C364   C367    1.506   .     S
C364   H301    1.111   1_455 S
C365   H393    1.110   .     S
C365   C373    1.513   .     S
C365   H391    1.107   .     S
C365   H132    1.111   1_565 S
C366   C368    1.517   .     S
C366   O421    1.419   .     S
C366   H50     1.108   1_565 S
C366   H51     1.102   1_565 S
C367   C444    1.394   1_455 S
C368   H396    1.110   .     S
C368   H1429   1.110   1_554 S
C368   H1430   1.102   1_554 S
C369   O422    1.414   .     S
C369   C370    1.517   .     S
C369   H399    1.113   .     S
C370   H917    1.108   .     S
C370   H918    1.110   .     S
C370   H920    1.106   .     S
C371   H406    1.108   .     S
C371   H407    1.098   .     S
C371   H921    1.109   .     S
C371   N933    1.443   .     S
C372   H410    1.109   .     S
C372   H409    1.095   .     S
C372   H1440   1.109   1_554 S
C372   N1450   1.438   1_554 S
C373   C445    1.401   .     S
C375   C30     1.362   1_565 S
C375   O78     1.387   1_565 S
C376   O428    1.310   .     A
C376   O426    1.300   .     A
C377   O429    1.302   .     A
C377   O427    1.303   .     A
C378   O430    1.378   .     S
Cu379  N418    2.040   .     S
Cu379  Cu380   2.715   .     S
Cu379  O425    1.993   .     S
Cu379  O419    1.994   .     S
Cu379  O426    1.967   .     S
Cu379  O429    1.960   .     S
Cu380  O427    1.967   .     S
Cu380  O424    1.993   .     S
Cu380  O423    1.994   .     S
Cu380  O428    1.960   .     S
Cu380  N417    2.040   .     S
H387   C106    1.111   1_565 S
H390   C279    1.111   1_455 S
H397   C884    1.110   .     S
H398   C884    1.102   .     S
H400   C25     1.115   1_565 S
H401   C1402   1.108   1_554 S
H402   C1402   1.110   1_554 S
H404   C1402   1.106   1_554 S
H405   C1403   1.109   1_554 S
H408   C888    1.109   .     S
N417   C1403   1.443   1_554 S
N417   N1450   1.289   1_554 S
N418   N933    1.289   .     S
N418   C888    1.438   .     S
O421   C30     1.401   1_565 S
C431   O505    1.305   .     A
C431   C460    1.462   .     S
C431   O510    1.300   .     A
C432   C443    1.414   .     A
C432   C434    1.419   .     A
C432   O506    1.385   .     S
C433   C463    1.454   .     S
C433   C464    1.406   .     A
C433   C435    1.382   .     A
C434   C436    1.391   .     A
C434   C462    1.461   .     S
C435   H467    1.081   .     S
C435   C437    1.388   .     A
C436   H478    1.080   .     S
C436   C438    1.391   .     A
C437   C444    1.390   .     A
C437   C439    1.410   .     A
C438   C445    1.397   .     A
C438   C440    1.406   .     A
C439   C441    1.422   .     A
C439   C354    1.407   1_655 S
C440   C443    1.421   .     A
C441   C464    1.419   .     A
C441   C459    1.426   .     A
C442   O509    1.297   .     A
C442   C461    1.454   .     S
C442   O511    1.306   .     A
C443   C453    1.424   .     A
C444   H489    1.081   .     S
C444   C367    1.394   1_655 S
C445   H497    1.084   .     S
C446   C447    1.509   .     S
C446   H498    1.113   .     S
C446   O516    1.416   .     S
C446   H499    1.111   .     S
C447   H501    1.108   .     S
C447   H502    1.102   .     S
C447   H156    1.109   1_565 S
C448   H469    1.113   .     S
C448   O506    1.402   .     S
C448   H468    1.098   .     S
C449   H470    1.107   .     S
C449   H471    1.103   .     S
C449   C104    1.519   1_565 S
C449   H128    1.111   1_565 S
C450   H475    1.105   .     S
C450   H474    1.107   .     S
C450   C453    1.506   .     S
C451   H479    1.110   .     S
C451   C459    1.513   .     S
C451   H477    1.107   .     S
C451   H46     1.111   1_665 S
C452   C454    1.517   .     S
C452   O507    1.419   .     S
C452   H136    1.108   1_565 S
C452   H137    1.102   1_565 S
C454   H482    1.110   .     S
C454   H1515   1.110   1_554 S
C454   H1516   1.102   1_554 S
C455   O508    1.414   .     S
C455   C456    1.517   .     S
C455   H485    1.113   .     S
C456   H1003   1.108   .     S
C456   H1004   1.110   .     S
C456   H1006   1.106   .     S
C457   H492    1.108   .     S
C457   H493    1.098   .     S
C457   H1007   1.109   .     S
C457   N1019   1.443   .     S
C458   H496    1.109   .     S
C458   H495    1.095   .     S
C458   H1526   1.109   1_554 S
C458   N1536   1.438   1_554 S
C459   C359    1.401   1_655 S
C461   C116    1.362   1_565 S
C461   O164    1.387   1_565 S
C462   O514    1.310   .     A
C462   O512    1.300   .     A
C463   O515    1.302   .     A
C463   O513    1.303   .     A
C464   O516    1.378   .     S
Cu465  N504    2.040   .     S
Cu465  Cu466   2.715   .     S
Cu465  O511    1.993   .     S
Cu465  O505    1.994   .     S
Cu465  O512    1.967   .     S
Cu465  O515    1.960   .     S
Cu466  O513    1.967   .     S
Cu466  O510    1.993   .     S
Cu466  O509    1.994   .     S
Cu466  O514    1.960   .     S
Cu466  N503    2.040   .     S
H473   C20     1.111   1_665 S
H483   C970    1.110   .     S
H484   C970    1.102   .     S
H486   C111    1.115   1_565 S
H487   C1488   1.108   1_554 S
H488   C1488   1.110   1_554 S
H490   C1488   1.106   1_554 S
H491   C1489   1.109   1_554 S
H494   C974    1.109   .     S
N503   C1489   1.443   1_554 S
N503   N1536   1.289   1_554 S
N504   N1019   1.289   .     S
N504   C974    1.438   .     S
O507   C116    1.401   1_565 S
C517   O591    1.305   .     A
C517   C546    1.462   .     S
C517   O596    1.300   .     A
C518   C529    1.414   .     A
C518   C520    1.419   .     A
C518   O592    1.385   .     S
C519   C549    1.454   .     S
C519   C550    1.406   .     A
C519   C521    1.382   .     A
C520   C522    1.391   .     A
C520   C548    1.461   .     S
C521   H553    1.081   .     S
C521   C523    1.388   .     A
C522   H564    1.080   .     S
C522   C524    1.391   .     A
C523   C530    1.390   .     A
C523   C525    1.410   .     A
C524   C531    1.397   .     A
C524   C526    1.406   .     A
C525   C527    1.422   .     A
C525   C612    1.407   .     S
C526   C529    1.421   .     A
C526   C611    1.407   1_455 S
C527   C550    1.419   .     A
C527   C545    1.426   .     A
C528   O595    1.297   .     A
C528   C547    1.454   .     S
C528   O597    1.306   .     A
C529   C539    1.424   .     A
C530   H575    1.081   .     S
C530   C625    1.394   .     S
C531   H583    1.084   .     S
C531   C631    1.401   1_455 S
C532   C533    1.509   .     S
C532   H584    1.113   .     S
C532   O602    1.416   .     S
C532   H585    1.111   .     S
C533   H587    1.108   .     S
C533   H588    1.102   .     S
C533   H758    1.109   .     S
C534   H555    1.113   .     S
C534   O592    1.402   .     S
C534   H554    1.098   .     S
C534   C879    1.519   1_545 S
C535   H556    1.107   .     S
C535   H557    1.103   .     S
C535   C706    1.519   .     S
C535   H730    1.111   .     S
C536   H561    1.105   .     S
C536   H560    1.107   .     S
C536   C539    1.506   .     S
C536   H989    1.111   1_445 S
C537   H565    1.110   .     S
C537   C545    1.513   .     S
C537   H563    1.107   .     S
C537   H820    1.111   .     S
C538   C540    1.517   .     S
C538   O593    1.419   .     S
C538   H738    1.108   .     S
C538   H739    1.102   .     S
C539   C616    1.394   1_455 S
C540   H568    1.110   .     S
C541   O594    1.414   .     S
C541   C542    1.517   .     S
C541   H571    1.113   .     S
C541   H916    1.115   1_545 S
C542   H1089   1.108   .     S
C542   H1090   1.110   .     S
C542   H1092   1.106   .     S
C543   H578    1.108   .     S
C543   H579    1.098   .     S
C543   H1093   1.109   .     S
C543   N1105   1.443   .     S
C544   H582    1.109   .     S
C544   H581    1.095   .     S
C545   C617    1.401   .     S
C546   C891    1.362   1_545 S
C546   O937    1.401   1_545 S
C547   C718    1.362   .     S
C547   O766    1.387   .     S
C548   O600    1.310   .     A
C548   O598    1.300   .     A
C549   O601    1.302   .     A
C549   O599    1.303   .     A
C550   O602    1.378   .     S
Cu551  N590    2.040   .     S
Cu551  Cu552   2.715   .     S
Cu551  O597    1.993   .     S
Cu551  O591    1.994   .     S
Cu551  O598    1.967   .     S
Cu551  O601    1.960   .     S
Cu552  O599    1.967   .     S
Cu552  O596    1.993   .     S
Cu552  O595    1.994   .     S
Cu552  O600    1.960   .     S
Cu552  N589    2.040   .     S
H558   C879    1.111   1_545 S
H559   C794    1.111   .     S
H562   C967    1.111   1_445 S
H566   C882    1.108   1_545 S
H567   C882    1.102   1_545 S
H569   C1056   1.110   .     S
H570   C1056   1.102   .     S
H572   C713    1.115   .     S
H580   C1060   1.109   .     S
H586   C877    1.109   1_545 S
N590   N1105   1.289   .     S
N590   C1060   1.438   .     S
O593   C718    1.401   .     S
O594   C891    1.387   1_545 S
C603   O677    1.305   .     A
C603   C632    1.462   .     S
C603   O682    1.300   .     A
C604   C615    1.414   .     A
C604   C606    1.419   .     A
C604   O678    1.385   .     S
C605   C635    1.454   .     S
C605   C636    1.406   .     A
C605   C607    1.382   .     A
C606   C608    1.391   .     A
C606   C634    1.461   .     S
C607   H639    1.081   .     S
C607   C609    1.388   .     A
C608   H650    1.080   .     S
C608   C610    1.391   .     A
C609   C616    1.390   .     A
C609   C611    1.410   .     A
C610   C617    1.397   .     A
C610   C612    1.406   .     A
C611   C613    1.422   .     A
C611   C526    1.407   1_655 S
C612   C615    1.421   .     A
C613   C636    1.419   .     A
C613   C631    1.426   .     A
C614   O681    1.297   .     A
C614   C633    1.454   .     S
C614   O683    1.306   .     A
C615   C625    1.424   .     A
C616   H661    1.081   .     S
C616   C539    1.394   1_655 S
C617   H669    1.084   .     S
C618   C619    1.509   .     S
C618   H670    1.113   .     S
C618   O688    1.416   .     S
C618   H671    1.111   .     S
C619   H673    1.108   .     S
C619   H674    1.102   .     S
C619   H844    1.109   .     S
C620   H641    1.113   .     S
C620   O678    1.402   .     S
C620   H640    1.098   .     S
C620   C965    1.519   1_545 S
C621   H642    1.107   .     S
C621   H643    1.103   .     S
C621   C792    1.519   .     S
C621   H816    1.111   .     S
C622   H647    1.105   .     S
C622   H646    1.107   .     S
C622   C625    1.506   .     S
C622   H903    1.111   1_545 S
C623   H651    1.110   .     S
C623   C631    1.513   .     S
C623   H649    1.107   .     S
C623   H734    1.111   1_655 S
C624   C626    1.517   .     S
C624   O679    1.419   .     S
C624   H824    1.108   .     S
C624   H825    1.102   .     S
C626   H654    1.110   .     S
C627   O680    1.414   .     S
C627   C628    1.517   .     S
C627   H657    1.113   .     S
C627   H1002   1.115   1_545 S
C628   H1175   1.108   .     S
C628   H1176   1.110   .     S
C628   H1178   1.106   .     S
C629   H664    1.108   .     S
C629   H665    1.098   .     S
C629   H1179   1.109   .     S
C629   N1191   1.443   .     S
C630   H668    1.109   .     S
C630   H667    1.095   .     S
C631   C531    1.401   1_655 S
C632   C977    1.362   1_545 S
C632   O1023   1.401   1_545 S
C633   C804    1.362   .     S
C633   O852    1.387   .     S
C634   O686    1.310   .     A
C634   O684    1.300   .     A
C635   O687    1.302   .     A
C635   O685    1.303   .     A
C636   O688    1.378   .     S
Cu637  N676    2.040   .     S
Cu637  Cu638   2.715   .     S
Cu637  O683    1.993   .     S
Cu637  O677    1.994   .     S
Cu637  O684    1.967   .     S
Cu637  O687    1.960   .     S
Cu638  O685    1.967   .     S
Cu638  O682    1.993   .     S
Cu638  O681    1.994   .     S
Cu638  O686    1.960   .     S
Cu638  N675    2.040   .     S
H644   C965    1.111   1_545 S
H645   C708    1.111   1_655 S
H648   C881    1.111   1_545 S
H652   C968    1.108   1_545 S
H653   C968    1.102   1_545 S
H655   C1142   1.110   .     S
H656   C1142   1.102   .     S
H658   C799    1.115   .     S
H666   C1146   1.109   .     S
H672   C963    1.109   1_545 S
N676   N1191   1.289   .     S
N676   C1146   1.438   .     S
O679   C804    1.401   .     S
O680   C977    1.387   1_545 S
C689   O763    1.305   .     A
C689   C718    1.462   .     S
C689   O768    1.300   .     A
C690   C701    1.414   .     A
C690   C692    1.419   .     A
C690   O764    1.385   .     S
C691   C721    1.454   .     S
C691   C722    1.406   .     A
C691   C693    1.382   .     A
C692   C694    1.391   .     A
C692   C720    1.461   .     S
C693   H725    1.081   .     S
C693   C695    1.388   .     A
C694   H736    1.080   .     S
C694   C696    1.391   .     A
C695   C702    1.390   .     A
C695   C697    1.410   .     A
C696   C703    1.397   .     A
C696   C698    1.406   .     A
C697   C699    1.422   .     A
C697   C784    1.407   .     S
C698   C701    1.421   .     A
C698   C783    1.407   1_455 S
C699   C722    1.419   .     A
C699   C717    1.426   .     A
C700   O767    1.297   .     A
C700   C719    1.454   .     S
C700   O769    1.306   .     A
C701   C711    1.424   .     A
C702   H747    1.081   .     S
C702   C797    1.394   .     S
C703   H755    1.084   .     S
C703   C803    1.401   1_455 S
C704   C705    1.509   .     S
C704   H756    1.113   .     S
C704   O774    1.416   .     S
C704   H757    1.111   .     S
C705   H759    1.108   .     S
C705   H760    1.102   .     S
C705   H930    1.109   .     S
C706   H727    1.113   .     S
C706   O764    1.402   .     S
C706   H726    1.098   .     S
C707   H728    1.107   .     S
C707   H729    1.103   .     S
C707   C878    1.519   .     S
C707   H902    1.111   .     S
C708   H733    1.105   .     S
C708   H732    1.107   .     S
C708   C711    1.506   .     S
C708   H645    1.111   1_455 S
C709   H737    1.110   .     S
C709   C717    1.513   .     S
C709   H735    1.107   .     S
C709   H992    1.111   .     S
C710   C712    1.517   .     S
C710   O765    1.419   .     S
C710   H910    1.108   .     S
C710   H911    1.102   .     S
C711   C788    1.394   1_455 S
C712   H740    1.110   .     S
C713   O766    1.414   .     S
C713   C714    1.517   .     S
C713   H743    1.113   .     S
C714   H1261   1.108   .     S
C714   H1262   1.110   .     S
C714   H1264   1.106   .     S
C715   H750    1.108   .     S
C715   H751    1.098   .     S
C715   H1265   1.109   .     S
C715   N1277   1.443   .     S
C716   H754    1.109   .     S
C716   H753    1.095   .     S
C717   C789    1.401   .     S
C719   C890    1.362   .     S
C719   O938    1.387   .     S
C720   O772    1.310   .     A
C720   O770    1.300   .     A
C721   O773    1.302   .     A
C721   O771    1.303   .     A
C722   O774    1.378   .     S
Cu723  N762    2.040   .     S
Cu723  Cu724   2.715   .     S
Cu723  O769    1.993   .     S
Cu723  O763    1.994   .     S
Cu723  O770    1.967   .     S
Cu723  O773    1.960   .     S
Cu724  O771    1.967   .     S
Cu724  O768    1.993   .     S
Cu724  O767    1.994   .     S
Cu724  O772    1.960   .     S
Cu724  N761    2.040   .     S
H731   C966    1.111   .     S
H734   C623    1.111   1_455 S
H741   C1228   1.110   .     S
H742   C1228   1.102   .     S
H744   C885    1.115   .     S
H752   C1232   1.109   .     S
N762   N1277   1.289   .     S
N762   C1232   1.438   .     S
O765   C890    1.401   .     S
C775   O849    1.305   .     A
C775   C804    1.462   .     S
C775   O854    1.300   .     A
C776   C787    1.414   .     A
C776   C778    1.419   .     A
C776   O850    1.385   .     S
C777   C807    1.454   .     S
C777   C808    1.406   .     A
C777   C779    1.382   .     A
C778   C780    1.391   .     A
C778   C806    1.461   .     S
C779   H811    1.081   .     S
C779   C781    1.388   .     A
C780   H822    1.080   .     S
C780   C782    1.391   .     A
C781   C788    1.390   .     A
C781   C783    1.410   .     A
C782   C789    1.397   .     A
C782   C784    1.406   .     A
C783   C785    1.422   .     A
C783   C698    1.407   1_655 S
C784   C787    1.421   .     A
C785   C808    1.419   .     A
C785   C803    1.426   .     A
C786   O853    1.297   .     A
C786   C805    1.454   .     S
C786   O855    1.306   .     A
C787   C797    1.424   .     A
C788   H833    1.081   .     S
C788   C711    1.394   1_655 S
C789   H841    1.084   .     S
C790   C791    1.509   .     S
C790   H842    1.113   .     S
C790   O860    1.416   .     S
C790   H843    1.111   .     S
C791   H845    1.108   .     S
C791   H846    1.102   .     S
C791   H1016   1.109   .     S
C792   H813    1.113   .     S
C792   O850    1.402   .     S
C792   H812    1.098   .     S
C793   H814    1.107   .     S
C793   H815    1.103   .     S
C793   C964    1.519   .     S
C793   H988    1.111   .     S
C794   H819    1.105   .     S
C794   H818    1.107   .     S
C794   C797    1.506   .     S
C795   H823    1.110   .     S
C795   C803    1.513   .     S
C795   H821    1.107   .     S
C795   H906    1.111   1_655 S
C796   C798    1.517   .     S
C796   O851    1.419   .     S
C796   H996    1.108   .     S
C796   H997    1.102   .     S
C798   H826    1.110   .     S
C799   O852    1.414   .     S
C799   C800    1.517   .     S
C799   H829    1.113   .     S
C800   H1347   1.108   .     S
C800   H1348   1.110   .     S
C800   H1350   1.106   .     S
C801   H836    1.108   .     S
C801   H837    1.098   .     S
C801   H1351   1.109   .     S
C801   N1363   1.443   .     S
C802   H840    1.109   .     S
C802   H839    1.095   .     S
C803   C703    1.401   1_655 S
C805   C976    1.362   .     S
C805   O1024   1.387   .     S
C806   O858    1.310   .     A
C806   O856    1.300   .     A
C807   O859    1.302   .     A
C807   O857    1.303   .     A
C808   O860    1.378   .     S
Cu809  N848    2.040   .     S
Cu809  Cu810   2.715   .     S
Cu809  O855    1.993   .     S
Cu809  O849    1.994   .     S
Cu809  O856    1.967   .     S
Cu809  O859    1.960   .     S
Cu810  O857    1.967   .     S
Cu810  O854    1.993   .     S
Cu810  O853    1.994   .     S
Cu810  O858    1.960   .     S
Cu810  N847    2.040   .     S
H817   C880    1.111   1_655 S
H827   C1314   1.110   .     S
H828   C1314   1.102   .     S
H830   C971    1.115   .     S
H838   C1318   1.109   .     S
N848   N1363   1.289   .     S
N848   C1318   1.438   .     S
O851   C976    1.401   .     S
C861   O935    1.305   .     A
C861   C890    1.462   .     S
C861   O940    1.300   .     A
C862   C873    1.414   .     A
C862   C864    1.419   .     A
C862   O936    1.385   .     S
C863   C893    1.454   .     S
C863   C894    1.406   .     A
C863   C865    1.382   .     A
C864   C866    1.391   .     A
C864   C892    1.461   .     S
C865   H897    1.081   .     S
C865   C867    1.388   .     A
C866   H908    1.080   .     S
C866   C868    1.391   .     A
C867   C874    1.390   .     A
C867   C869    1.410   .     A
C868   C875    1.397   .     A
C868   C870    1.406   .     A
C869   C871    1.422   .     A
C869   C956    1.407   .     S
C870   C873    1.421   .     A
C870   C955    1.407   1_455 S
C871   C894    1.419   .     A
C871   C889    1.426   .     A
C872   O939    1.297   .     A
C872   C891    1.454   .     S
C872   O941    1.306   .     A
C873   C883    1.424   .     A
C874   H919    1.081   .     S
C874   C969    1.394   .     S
C875   H927    1.084   .     S
C875   C975    1.401   1_455 S
C876   C877    1.509   .     S
C876   H928    1.113   .     S
C876   O946    1.416   .     S
C876   H929    1.111   .     S
C877   H931    1.108   .     S
C877   H932    1.102   .     S
C877   H586    1.109   1_565 S
C878   H899    1.113   .     S
C878   O936    1.402   .     S
C878   H898    1.098   .     S
C879   H900    1.107   .     S
C879   H901    1.103   .     S
C879   C534    1.519   1_565 S
C879   H558    1.111   1_565 S
C880   H905    1.105   .     S
C880   H904    1.107   .     S
C880   C883    1.506   .     S
C880   H817    1.111   1_455 S
C881   H909    1.110   .     S
C881   C889    1.513   .     S
C881   H907    1.107   .     S
C881   H648    1.111   1_565 S
C882   C884    1.517   .     S
C882   O937    1.419   .     S
C882   H566    1.108   1_565 S
C882   H567    1.102   1_565 S
C883   C960    1.394   1_455 S
C884   H912    1.110   .     S
C885   O938    1.414   .     S
C885   C886    1.517   .     S
C885   H915    1.113   .     S
C886   H1433   1.108   .     S
C886   H1434   1.110   .     S
C886   H1436   1.106   .     S
C887   H922    1.108   .     S
C887   H923    1.098   .     S
C887   H1437   1.109   .     S
C887   N1449   1.443   .     S
C888   H926    1.109   .     S
C888   H925    1.095   .     S
C889   C961    1.401   .     S
C891   C546    1.362   1_565 S
C891   O594    1.387   1_565 S
C892   O944    1.310   .     A
C892   O942    1.300   .     A
C893   O945    1.302   .     A
C893   O943    1.303   .     A
C894   O946    1.378   .     S
Cu895  N934    2.040   .     S
Cu895  Cu896   2.715   .     S
Cu895  O941    1.993   .     S
Cu895  O935    1.994   .     S
Cu895  O942    1.967   .     S
Cu895  O945    1.960   .     S
Cu896  O943    1.967   .     S
Cu896  O940    1.993   .     S
Cu896  O939    1.994   .     S
Cu896  O944    1.960   .     S
Cu896  N933    2.040   .     S
H903   C622    1.111   1_565 S
H906   C795    1.111   1_455 S
H913   C1400   1.110   .     S
H914   C1400   1.102   .     S
H916   C541    1.115   1_565 S
H924   C1404   1.109   .     S
N934   N1449   1.289   .     S
N934   C1404   1.438   .     S
O937   C546    1.401   1_565 S
C947   O1021   1.305   .     A
C947   C976    1.462   .     S
C947   O1026   1.300   .     A
C948   C959    1.414   .     A
C948   C950    1.419   .     A
C948   O1022   1.385   .     S
C949   C979    1.454   .     S
C949   C980    1.406   .     A
C949   C951    1.382   .     A
C950   C952    1.391   .     A
C950   C978    1.461   .     S
C951   H983    1.081   .     S
C951   C953    1.388   .     A
C952   H994    1.080   .     S
C952   C954    1.391   .     A
C953   C960    1.390   .     A
C953   C955    1.410   .     A
C954   C961    1.397   .     A
C954   C956    1.406   .     A
C955   C957    1.422   .     A
C955   C870    1.407   1_655 S
C956   C959    1.421   .     A
C957   C980    1.419   .     A
C957   C975    1.426   .     A
C958   O1025   1.297   .     A
C958   C977    1.454   .     S
C958   O1027   1.306   .     A
C959   C969    1.424   .     A
C960   H1005   1.081   .     S
C960   C883    1.394   1_655 S
C961   H1013   1.084   .     S
C962   C963    1.509   .     S
C962   H1014   1.113   .     S
C962   O1032   1.416   .     S
C962   H1015   1.111   .     S
C963   H1017   1.108   .     S
C963   H1018   1.102   .     S
C963   H672    1.109   1_565 S
C964   H985    1.113   .     S
C964   O1022   1.402   .     S
C964   H984    1.098   .     S
C965   H986    1.107   .     S
C965   H987    1.103   .     S
C965   C620    1.519   1_565 S
C965   H644    1.111   1_565 S
C966   H991    1.105   .     S
C966   H990    1.107   .     S
C966   C969    1.506   .     S
C967   H995    1.110   .     S
C967   C975    1.513   .     S
C967   H993    1.107   .     S
C967   H562    1.111   1_665 S
C968   C970    1.517   .     S
C968   O1023   1.419   .     S
C968   H652    1.108   1_565 S
C968   H653    1.102   1_565 S
C970   H998    1.110   .     S
C971   O1024   1.414   .     S
C971   C972    1.517   .     S
C971   H1001   1.113   .     S
C972   H1519   1.108   .     S
C972   H1520   1.110   .     S
C972   H1522   1.106   .     S
C973   H1008   1.108   .     S
C973   H1009   1.098   .     S
C973   H1523   1.109   .     S
C973   N1535   1.443   .     S
C974   H1012   1.109   .     S
C974   H1011   1.095   .     S
C975   C875    1.401   1_655 S
C977   C632    1.362   1_565 S
C977   O680    1.387   1_565 S
C978   O1030   1.310   .     A
C978   O1028   1.300   .     A
C979   O1031   1.302   .     A
C979   O1029   1.303   .     A
C980   O1032   1.378   .     S
Cu981  N1020   2.040   .     S
Cu981  Cu982   2.715   .     S
Cu981  O1027   1.993   .     S
Cu981  O1021   1.994   .     S
Cu981  O1028   1.967   .     S
Cu981  O1031   1.960   .     S
Cu982  O1029   1.967   .     S
Cu982  O1026   1.993   .     S
Cu982  O1025   1.994   .     S
Cu982  O1030   1.960   .     S
Cu982  N1019   2.040   .     S
H989   C536    1.111   1_665 S
H999   C1486   1.110   .     S
H1000  C1486   1.102   .     S
H1002  C627    1.115   1_565 S
H1010  C1490   1.109   .     S
N1020  N1535   1.289   .     S
N1020  C1490   1.438   .     S
O1023  C632    1.401   1_565 S
C1033  O1107   1.305   .     A
C1033  C1062   1.462   .     S
C1033  O1112   1.300   .     A
C1034  C1045   1.414   .     A
C1034  C1036   1.419   .     A
C1034  O1108   1.385   .     S
C1035  C1065   1.454   .     S
C1035  C1066   1.406   .     A
C1035  C1037   1.382   .     A
C1036  C1038   1.391   .     A
C1036  C1064   1.461   .     S
C1037  H1069   1.081   .     S
C1037  C1039   1.388   .     A
C1038  H1080   1.080   .     S
C1038  C1040   1.391   .     A
C1039  C1046   1.390   .     A
C1039  C1041   1.410   .     A
C1040  C1047   1.397   .     A
C1040  C1042   1.406   .     A
C1041  C1043   1.422   .     A
C1041  C1128   1.407   .     S
C1042  C1045   1.421   .     A
C1042  C1127   1.407   1_455 S
C1043  C1066   1.419   .     A
C1043  C1061   1.426   .     A
C1044  O1111   1.297   .     A
C1044  C1063   1.454   .     S
C1044  O1113   1.306   .     A
C1045  C1055   1.424   .     A
C1046  H1091   1.081   .     S
C1046  C1141   1.394   .     S
C1047  H1099   1.084   .     S
C1047  C1147   1.401   1_455 S
C1048  C1049   1.509   .     S
C1048  H1100   1.113   .     S
C1048  O1118   1.416   .     S
C1048  H1101   1.111   .     S
C1049  H1103   1.108   .     S
C1049  H1104   1.102   .     S
C1049  H1274   1.109   .     S
C1050  H1071   1.113   .     S
C1050  O1108   1.402   .     S
C1050  H1070   1.098   .     S
C1050  C1395   1.519   1_545 S
C1051  H1072   1.107   .     S
C1051  H1073   1.103   .     S
C1051  C1222   1.519   .     S
C1051  H1246   1.111   .     S
C1052  H1077   1.105   .     S
C1052  H1076   1.107   .     S
C1052  C1055   1.506   .     S
C1052  H1505   1.111   1_445 S
C1053  H1081   1.110   .     S
C1053  C1061   1.513   .     S
C1053  H1079   1.107   .     S
C1053  H1336   1.111   .     S
C1054  C1056   1.517   .     S
C1054  O1109   1.419   .     S
C1054  H1254   1.108   .     S
C1054  H1255   1.102   .     S
C1055  C1132   1.394   1_455 S
C1056  H1084   1.110   .     S
C1057  O1110   1.414   .     S
C1057  C1058   1.517   .     S
C1057  H1087   1.113   .     S
C1057  H1432   1.115   1_545 S
C1058  H57     1.108   1_556 S
C1058  H58     1.110   1_556 S
C1058  H60     1.106   1_556 S
C1059  H1094   1.108   .     S
C1059  H1095   1.098   .     S
C1059  H61     1.109   1_556 S
C1059  N73     1.443   1_556 S
C1060  H1098   1.109   .     S
C1060  H1097   1.095   .     S
C1061  C1133   1.401   .     S
C1062  C1407   1.362   1_545 S
C1062  O1453   1.401   1_545 S
C1063  C1234   1.362   .     S
C1063  O1282   1.387   .     S
C1064  O1116   1.310   .     A
C1064  O1114   1.300   .     A
C1065  O1117   1.302   .     A
C1065  O1115   1.303   .     A
C1066  O1118   1.378   .     S
Cu1067 N1106   2.040   .     S
Cu1067 Cu1068  2.715   .     S
Cu1067 O1113   1.993   .     S
Cu1067 O1107   1.994   .     S
Cu1067 O1114   1.967   .     S
Cu1067 O1117   1.960   .     S
Cu1068 O1115   1.967   .     S
Cu1068 O1112   1.993   .     S
Cu1068 O1111   1.994   .     S
Cu1068 O1116   1.960   .     S
Cu1068 N1105   2.040   .     S
H1074  C1395   1.111   1_545 S
H1075  C1310   1.111   .     S
H1078  C1483   1.111   1_445 S
H1082  C1398   1.108   1_545 S
H1083  C1398   1.102   1_545 S
H1085  C24     1.110   1_556 S
H1086  C24     1.102   1_556 S
H1088  C1229   1.115   .     S
H1096  C28     1.109   1_556 S
H1102  C1393   1.109   1_545 S
N1106  N73     1.289   1_556 S
N1106  C28     1.438   1_556 S
O1109  C1234   1.401   .     S
O1110  C1407   1.387   1_545 S
C1119  O1193   1.305   .     A
C1119  C1148   1.462   .     S
C1119  O1198   1.300   .     A
C1120  C1131   1.414   .     A
C1120  C1122   1.419   .     A
C1120  O1194   1.385   .     S
C1121  C1151   1.454   .     S
C1121  C1152   1.406   .     A
C1121  C1123   1.382   .     A
C1122  C1124   1.391   .     A
C1122  C1150   1.461   .     S
C1123  H1155   1.081   .     S
C1123  C1125   1.388   .     A
C1124  H1166   1.080   .     S
C1124  C1126   1.391   .     A
C1125  C1132   1.390   .     A
C1125  C1127   1.410   .     A
C1126  C1133   1.397   .     A
C1126  C1128   1.406   .     A
C1127  C1129   1.422   .     A
C1127  C1042   1.407   1_655 S
C1128  C1131   1.421   .     A
C1129  C1152   1.419   .     A
C1129  C1147   1.426   .     A
C1130  O1197   1.297   .     A
C1130  C1149   1.454   .     S
C1130  O1199   1.306   .     A
C1131  C1141   1.424   .     A
C1132  H1177   1.081   .     S
C1132  C1055   1.394   1_655 S
C1133  H1185   1.084   .     S
C1134  C1135   1.509   .     S
C1134  H1186   1.113   .     S
C1134  O1204   1.416   .     S
C1134  H1187   1.111   .     S
C1135  H1189   1.108   .     S
C1135  H1190   1.102   .     S
C1135  H1360   1.109   .     S
C1136  H1157   1.113   .     S
C1136  O1194   1.402   .     S
C1136  H1156   1.098   .     S
C1136  C1481   1.519   1_545 S
C1137  H1158   1.107   .     S
C1137  H1159   1.103   .     S
C1137  C1308   1.519   .     S
C1137  H1332   1.111   .     S
C1138  H1163   1.105   .     S
C1138  H1162   1.107   .     S
C1138  C1141   1.506   .     S
C1138  H1419   1.111   1_545 S
C1139  H1167   1.110   .     S
C1139  C1147   1.513   .     S
C1139  H1165   1.107   .     S
C1139  H1250   1.111   1_655 S
C1140  C1142   1.517   .     S
C1140  O1195   1.419   .     S
C1140  H1340   1.108   .     S
C1140  H1341   1.102   .     S
C1142  H1170   1.110   .     S
C1143  O1196   1.414   .     S
C1143  C1144   1.517   .     S
C1143  H1173   1.113   .     S
C1143  H1518   1.115   1_545 S
C1144  H143    1.108   1_556 S
C1144  H144    1.110   1_556 S
C1144  H146    1.106   1_556 S
C1145  H1180   1.108   .     S
C1145  H1181   1.098   .     S
C1145  H147    1.109   1_556 S
C1145  N159    1.443   1_556 S
C1146  H1184   1.109   .     S
C1146  H1183   1.095   .     S
C1147  C1047   1.401   1_655 S
C1148  C1493   1.362   1_545 S
C1148  O1539   1.401   1_545 S
C1149  C1320   1.362   .     S
C1149  O1368   1.387   .     S
C1150  O1202   1.310   .     A
C1150  O1200   1.300   .     A
C1151  O1203   1.302   .     A
C1151  O1201   1.303   .     A
C1152  O1204   1.378   .     S
Cu1153 N1192   2.040   .     S
Cu1153 Cu1154  2.715   .     S
Cu1153 O1199   1.993   .     S
Cu1153 O1193   1.994   .     S
Cu1153 O1200   1.967   .     S
Cu1153 O1203   1.960   .     S
Cu1154 O1201   1.967   .     S
Cu1154 O1198   1.993   .     S
Cu1154 O1197   1.994   .     S
Cu1154 O1202   1.960   .     S
Cu1154 N1191   2.040   .     S
H1160  C1481   1.111   1_545 S
H1161  C1224   1.111   1_655 S
H1164  C1397   1.111   1_545 S
H1168  C1484   1.108   1_545 S
H1169  C1484   1.102   1_545 S
H1171  C110    1.110   1_556 S
H1172  C110    1.102   1_556 S
H1174  C1315   1.115   .     S
H1182  C114    1.109   1_556 S
H1188  C1479   1.109   1_545 S
N1192  N159    1.289   1_556 S
N1192  C114    1.438   1_556 S
O1195  C1320   1.401   .     S
O1196  C1493   1.387   1_545 S
C1205  O1279   1.305   .     A
C1205  C1234   1.462   .     S
C1205  O1284   1.300   .     A
C1206  C1217   1.414   .     A
C1206  C1208   1.419   .     A
C1206  O1280   1.385   .     S
C1207  C1237   1.454   .     S
C1207  C1238   1.406   .     A
C1207  C1209   1.382   .     A
C1208  C1210   1.391   .     A
C1208  C1236   1.461   .     S
C1209  H1241   1.081   .     S
C1209  C1211   1.388   .     A
C1210  H1252   1.080   .     S
C1210  C1212   1.391   .     A
C1211  C1218   1.390   .     A
C1211  C1213   1.410   .     A
C1212  C1219   1.397   .     A
C1212  C1214   1.406   .     A
C1213  C1215   1.422   .     A
C1213  C1300   1.407   .     S
C1214  C1217   1.421   .     A
C1214  C1299   1.407   1_455 S
C1215  C1238   1.419   .     A
C1215  C1233   1.426   .     A
C1216  O1283   1.297   .     A
C1216  C1235   1.454   .     S
C1216  O1285   1.306   .     A
C1217  C1227   1.424   .     A
C1218  H1263   1.081   .     S
C1218  C1313   1.394   .     S
C1219  H1271   1.084   .     S
C1219  C1319   1.401   1_455 S
C1220  C1221   1.509   .     S
C1220  H1272   1.113   .     S
C1220  O1290   1.416   .     S
C1220  H1273   1.111   .     S
C1221  H1275   1.108   .     S
C1221  H1276   1.102   .     S
C1221  H1446   1.109   .     S
C1222  H1243   1.113   .     S
C1222  O1280   1.402   .     S
C1222  H1242   1.098   .     S
C1223  H1244   1.107   .     S
C1223  H1245   1.103   .     S
C1223  C1394   1.519   .     S
C1223  H1418   1.111   .     S
C1224  H1249   1.105   .     S
C1224  H1248   1.107   .     S
C1224  C1227   1.506   .     S
C1224  H1161   1.111   1_455 S
C1225  H1253   1.110   .     S
C1225  C1233   1.513   .     S
C1225  H1251   1.107   .     S
C1225  H1508   1.111   .     S
C1226  C1228   1.517   .     S
C1226  O1281   1.419   .     S
C1226  H1426   1.108   .     S
C1226  H1427   1.102   .     S
C1227  C1304   1.394   1_455 S
C1228  H1256   1.110   .     S
C1229  O1282   1.414   .     S
C1229  C1230   1.517   .     S
C1229  H1259   1.113   .     S
C1230  H229    1.108   1_556 S
C1230  H230    1.110   1_556 S
C1230  H232    1.106   1_556 S
C1231  H1266   1.108   .     S
C1231  H1267   1.098   .     S
C1231  H233    1.109   1_556 S
C1231  N245    1.443   1_556 S
C1232  H1270   1.109   .     S
C1232  H1269   1.095   .     S
C1233  C1305   1.401   .     S
C1235  C1406   1.362   .     S
C1235  O1454   1.387   .     S
C1236  O1288   1.310   .     A
C1236  O1286   1.300   .     A
C1237  O1289   1.302   .     A
C1237  O1287   1.303   .     A
C1238  O1290   1.378   .     S
Cu1239 N1278   2.040   .     S
Cu1239 Cu1240  2.715   .     S
Cu1239 O1285   1.993   .     S
Cu1239 O1279   1.994   .     S
Cu1239 O1286   1.967   .     S
Cu1239 O1289   1.960   .     S
Cu1240 O1287   1.967   .     S
Cu1240 O1284   1.993   .     S
Cu1240 O1283   1.994   .     S
Cu1240 O1288   1.960   .     S
Cu1240 N1277   2.040   .     S
H1247  C1482   1.111   .     S
H1250  C1139   1.111   1_455 S
H1257  C196    1.110   1_556 S
H1258  C196    1.102   1_556 S
H1260  C1401   1.115   .     S
H1268  C200    1.109   1_556 S
N1278  N245    1.289   1_556 S
N1278  C200    1.438   1_556 S
O1281  C1406   1.401   .     S
C1291  O1365   1.305   .     A
C1291  C1320   1.462   .     S
C1291  O1370   1.300   .     A
C1292  C1303   1.414   .     A
C1292  C1294   1.419   .     A
C1292  O1366   1.385   .     S
C1293  C1323   1.454   .     S
C1293  C1324   1.406   .     A
C1293  C1295   1.382   .     A
C1294  C1296   1.391   .     A
C1294  C1322   1.461   .     S
C1295  H1327   1.081   .     S
C1295  C1297   1.388   .     A
C1296  H1338   1.080   .     S
C1296  C1298   1.391   .     A
C1297  C1304   1.390   .     A
C1297  C1299   1.410   .     A
C1298  C1305   1.397   .     A
C1298  C1300   1.406   .     A
C1299  C1301   1.422   .     A
C1299  C1214   1.407   1_655 S
C1300  C1303   1.421   .     A
C1301  C1324   1.419   .     A
C1301  C1319   1.426   .     A
C1302  O1369   1.297   .     A
C1302  C1321   1.454   .     S
C1302  O1371   1.306   .     A
C1303  C1313   1.424   .     A
C1304  H1349   1.081   .     S
C1304  C1227   1.394   1_655 S
C1305  H1357   1.084   .     S
C1306  C1307   1.509   .     S
C1306  H1358   1.113   .     S
C1306  O1376   1.416   .     S
C1306  H1359   1.111   .     S
C1307  H1361   1.108   .     S
C1307  H1362   1.102   .     S
C1307  H1532   1.109   .     S
C1308  H1329   1.113   .     S
C1308  O1366   1.402   .     S
C1308  H1328   1.098   .     S
C1309  H1330   1.107   .     S
C1309  H1331   1.103   .     S
C1309  C1480   1.519   .     S
C1309  H1504   1.111   .     S
C1310  H1335   1.105   .     S
C1310  H1334   1.107   .     S
C1310  C1313   1.506   .     S
C1311  H1339   1.110   .     S
C1311  C1319   1.513   .     S
C1311  H1337   1.107   .     S
C1311  H1422   1.111   1_655 S
C1312  C1314   1.517   .     S
C1312  O1367   1.419   .     S
C1312  H1512   1.108   .     S
C1312  H1513   1.102   .     S
C1314  H1342   1.110   .     S
C1315  O1368   1.414   .     S
C1315  C1316   1.517   .     S
C1315  H1345   1.113   .     S
C1316  H315    1.108   1_556 S
C1316  H316    1.110   1_556 S
C1316  H318    1.106   1_556 S
C1317  H1352   1.108   .     S
C1317  H1353   1.098   .     S
C1317  H319    1.109   1_556 S
C1317  N331    1.443   1_556 S
C1318  H1356   1.109   .     S
C1318  H1355   1.095   .     S
C1319  C1219   1.401   1_655 S
C1321  C1492   1.362   .     S
C1321  O1540   1.387   .     S
C1322  O1374   1.310   .     A
C1322  O1372   1.300   .     A
C1323  O1375   1.302   .     A
C1323  O1373   1.303   .     A
C1324  O1376   1.378   .     S
Cu1325 N1364   2.040   .     S
Cu1325 Cu1326  2.715   .     S
Cu1325 O1371   1.993   .     S
Cu1325 O1365   1.994   .     S
Cu1325 O1372   1.967   .     S
Cu1325 O1375   1.960   .     S
Cu1326 O1373   1.967   .     S
Cu1326 O1370   1.993   .     S
Cu1326 O1369   1.994   .     S
Cu1326 O1374   1.960   .     S
Cu1326 N1363   2.040   .     S
H1333  C1396   1.111   1_655 S
H1343  C282    1.110   1_556 S
H1344  C282    1.102   1_556 S
H1346  C1487   1.115   .     S
H1354  C286    1.109   1_556 S
N1364  N331    1.289   1_556 S
N1364  C286    1.438   1_556 S
O1367  C1492   1.401   .     S
C1377  O1451   1.305   .     A
C1377  C1406   1.462   .     S
C1377  O1456   1.300   .     A
C1378  C1389   1.414   .     A
C1378  C1380   1.419   .     A
C1378  O1452   1.385   .     S
C1379  C1409   1.454   .     S
C1379  C1410   1.406   .     A
C1379  C1381   1.382   .     A
C1380  C1382   1.391   .     A
C1380  C1408   1.461   .     S
C1381  H1413   1.081   .     S
C1381  C1383   1.388   .     A
C1382  H1424   1.080   .     S
C1382  C1384   1.391   .     A
C1383  C1390   1.390   .     A
C1383  C1385   1.410   .     A
C1384  C1391   1.397   .     A
C1384  C1386   1.406   .     A
C1385  C1387   1.422   .     A
C1385  C1472   1.407   .     S
C1386  C1389   1.421   .     A
C1386  C1471   1.407   1_455 S
C1387  C1410   1.419   .     A
C1387  C1405   1.426   .     A
C1388  O1455   1.297   .     A
C1388  C1407   1.454   .     S
C1388  O1457   1.306   .     A
C1389  C1399   1.424   .     A
C1390  H1435   1.081   .     S
C1390  C1485   1.394   .     S
C1391  H1443   1.084   .     S
C1391  C1491   1.401   1_455 S
C1392  C1393   1.509   .     S
C1392  H1444   1.113   .     S
C1392  O1462   1.416   .     S
C1392  H1445   1.111   .     S
C1393  H1447   1.108   .     S
C1393  H1448   1.102   .     S
C1393  H1102   1.109   1_565 S
C1394  H1415   1.113   .     S
C1394  O1452   1.402   .     S
C1394  H1414   1.098   .     S
C1395  H1416   1.107   .     S
C1395  H1417   1.103   .     S
C1395  C1050   1.519   1_565 S
C1395  H1074   1.111   1_565 S
C1396  H1421   1.105   .     S
C1396  H1420   1.107   .     S
C1396  C1399   1.506   .     S
C1396  H1333   1.111   1_455 S
C1397  H1425   1.110   .     S
C1397  C1405   1.513   .     S
C1397  H1423   1.107   .     S
C1397  H1164   1.111   1_565 S
C1398  C1400   1.517   .     S
C1398  O1453   1.419   .     S
C1398  H1082   1.108   1_565 S
C1398  H1083   1.102   1_565 S
C1399  C1476   1.394   1_455 S
C1400  H1428   1.110   .     S
C1401  O1454   1.414   .     S
C1401  C1402   1.517   .     S
C1401  H1431   1.113   .     S
C1402  H401    1.108   1_556 S
C1402  H402    1.110   1_556 S
C1402  H404    1.106   1_556 S
C1403  H1438   1.108   .     S
C1403  H1439   1.098   .     S
C1403  H405    1.109   1_556 S
C1403  N417    1.443   1_556 S
C1404  H1442   1.109   .     S
C1404  H1441   1.095   .     S
C1405  C1477   1.401   .     S
C1407  C1062   1.362   1_565 S
C1407  O1110   1.387   1_565 S
C1408  O1460   1.310   .     A
C1408  O1458   1.300   .     A
C1409  O1461   1.302   .     A
C1409  O1459   1.303   .     A
C1410  O1462   1.378   .     S
Cu1411 N1450   2.040   .     S
Cu1411 Cu1412  2.715   .     S
Cu1411 O1457   1.993   .     S
Cu1411 O1451   1.994   .     S
Cu1411 O1458   1.967   .     S
Cu1411 O1461   1.960   .     S
Cu1412 O1459   1.967   .     S
Cu1412 O1456   1.993   .     S
Cu1412 O1455   1.994   .     S
Cu1412 O1460   1.960   .     S
Cu1412 N1449   2.040   .     S
H1419  C1138   1.111   1_565 S
H1422  C1311   1.111   1_455 S
H1429  C368    1.110   1_556 S
H1430  C368    1.102   1_556 S
H1432  C1057   1.115   1_565 S
H1440  C372    1.109   1_556 S
N1450  N417    1.289   1_556 S
N1450  C372    1.438   1_556 S
O1453  C1062   1.401   1_565 S
C1463  O1537   1.305   .     A
C1463  C1492   1.462   .     S
C1463  O1542   1.300   .     A
C1464  C1475   1.414   .     A
C1464  C1466   1.419   .     A
C1464  O1538   1.385   .     S
C1465  C1495   1.454   .     S
C1465  C1496   1.406   .     A
C1465  C1467   1.382   .     A
C1466  C1468   1.391   .     A
C1466  C1494   1.461   .     S
C1467  H1499   1.081   .     S
C1467  C1469   1.388   .     A
C1468  H1510   1.080   .     S
C1468  C1470   1.391   .     A
C1469  C1476   1.390   .     A
C1469  C1471   1.410   .     A
C1470  C1477   1.397   .     A
C1470  C1472   1.406   .     A
C1471  C1473   1.422   .     A
C1471  C1386   1.407   1_655 S
C1472  C1475   1.421   .     A
C1473  C1496   1.419   .     A
C1473  C1491   1.426   .     A
C1474  O1541   1.297   .     A
C1474  C1493   1.454   .     S
C1474  O1543   1.306   .     A
C1475  C1485   1.424   .     A
C1476  H1521   1.081   .     S
C1476  C1399   1.394   1_655 S
C1477  H1529   1.084   .     S
C1478  C1479   1.509   .     S
C1478  H1530   1.113   .     S
C1478  O1548   1.416   .     S
C1478  H1531   1.111   .     S
C1479  H1533   1.108   .     S
C1479  H1534   1.102   .     S
C1479  H1188   1.109   1_565 S
C1480  H1501   1.113   .     S
C1480  O1538   1.402   .     S
C1480  H1500   1.098   .     S
C1481  H1502   1.107   .     S
C1481  H1503   1.103   .     S
C1481  C1136   1.519   1_565 S
C1481  H1160   1.111   1_565 S
C1482  H1507   1.105   .     S
C1482  H1506   1.107   .     S
C1482  C1485   1.506   .     S
C1483  H1511   1.110   .     S
C1483  C1491   1.513   .     S
C1483  H1509   1.107   .     S
C1483  H1078   1.111   1_665 S
C1484  C1486   1.517   .     S
C1484  O1539   1.419   .     S
C1484  H1168   1.108   1_565 S
C1484  H1169   1.102   1_565 S
C1486  H1514   1.110   .     S
C1487  O1540   1.414   .     S
C1487  C1488   1.517   .     S
C1487  H1517   1.113   .     S
C1488  H487    1.108   1_556 S
C1488  H488    1.110   1_556 S
C1488  H490    1.106   1_556 S
C1489  H1524   1.108   .     S
C1489  H1525   1.098   .     S
C1489  H491    1.109   1_556 S
C1489  N503    1.443   1_556 S
C1490  H1528   1.109   .     S
C1490  H1527   1.095   .     S
C1491  C1391   1.401   1_655 S
C1493  C1148   1.362   1_565 S
C1493  O1196   1.387   1_565 S
C1494  O1546   1.310   .     A
C1494  O1544   1.300   .     A
C1495  O1547   1.302   .     A
C1495  O1545   1.303   .     A
C1496  O1548   1.378   .     S
Cu1497 N1536   2.040   .     S
Cu1497 Cu1498  2.715   .     S
Cu1497 O1543   1.993   .     S
Cu1497 O1537   1.994   .     S
Cu1497 O1544   1.967   .     S
Cu1497 O1547   1.960   .     S
Cu1498 O1545   1.967   .     S
Cu1498 O1542   1.993   .     S
Cu1498 O1541   1.994   .     S
Cu1498 O1546   1.960   .     S
Cu1498 N1535   2.040   .     S
H1505  C1052   1.111   1_665 S
H1515  C454    1.110   1_556 S
H1516  C454    1.102   1_556 S
H1518  C1143   1.115   1_565 S
H1526  C458    1.109   1_556 S
N1536  N503    1.289   1_556 S
N1536  C458    1.438   1_556 S
O1539  C1148   1.401   1_565 S
