data_str_m1_o1_o2_pcu_sym.103
_audit_creation_date              2020-01-03
_audit_creation_method            'Materials Studio'
_symmetry_space_group_name_H-M    'P1'
_symmetry_Int_Tables_number       1
_symmetry_cell_setting            triclinic
loop_
_symmetry_equiv_pos_as_xyz
  x,y,z
_cell_length_a                    36.6838
_cell_length_b                    36.6853
_cell_length_c                    34.5274
_cell_angle_alpha                 89.9840
_cell_angle_beta                  90.0004
_cell_angle_gamma                 90.0001
loop_
_atom_site_label
_atom_site_type_symbol
_atom_site_fract_x
_atom_site_fract_y
_atom_site_fract_z
_atom_site_U_iso_or_equiv
_atom_site_adp_type
_atom_site_occupancy
C1     C     0.22685   0.47466   0.04181   0.00000  Uiso   1.00
C2     C     0.01931   0.22395   0.45921   0.00000  Uiso   1.00
C3     C     0.34809   0.40181   0.75009   0.00000  Uiso   1.00
C4     C     0.40182   0.15191   0.24992   0.00000  Uiso   1.00
C5     C     0.09809   0.34818   0.74992   0.00000  Uiso   1.00
C6     C     0.34819   0.40191   0.25008   0.00000  Uiso   1.00
C7     C     0.15191   0.09819   0.75008   0.00000  Uiso   1.00
C8     C     0.09819   0.15191   0.75008   0.00000  Uiso   1.00
C9     C     0.40191   0.34819   0.25008   0.00000  Uiso   1.00
C10    C     0.15181   0.40191   0.74992   0.00000  Uiso   1.00
C11    C     0.34809   0.09818   0.24992   0.00000  Uiso   1.00
C12    C     0.40181   0.34809   0.75008   0.00000  Uiso   1.00
C13    C     0.22670   0.47701   0.54091   0.00000  Uiso   1.00
C14    C     0.09809   0.15182   0.25008   0.00000  Uiso   1.00
C15    C     0.34819   0.09809   0.74991   0.00000  Uiso   1.00
C16    C     0.15191   0.40181   0.24991   0.00000  Uiso   1.00
C17    C     0.24991   0.00003   0.10232   0.00000  Uiso   1.00
C18    C     0.24991   0.49997   0.89768   0.00000  Uiso   1.00
C19    C     0.49996   0.25010   0.10232   0.00000  Uiso   1.00
C20    C     0.00002   0.25007   0.89768   0.00000  Uiso   1.00
C21    C     0.49991   0.25003   0.60232   0.00000  Uiso   1.00
C22    C     0.49991   0.24997   0.39768   0.00000  Uiso   1.00
C23    C     0.25016   0.00016   0.60220   0.00000  Uiso   1.00
C24    C     0.22392   0.02111   0.45835   0.00000  Uiso   1.00
C25    C     0.25028   0.49993   0.39760   0.00000  Uiso   1.00
C26    C     0.20867   0.44510   0.10478   0.00000  Uiso   1.00
C27    C     0.28933   0.44329   0.89790   0.00000  Uiso   1.00
C28    C     0.44326   0.21071   0.10214   0.00000  Uiso   1.00
C29    C     0.44509   0.29132   0.89522   0.00000  Uiso   1.00
C30    C     0.28932   0.05672   0.10210   0.00000  Uiso   1.00
C31    C     0.20867   0.05490   0.89522   0.00000  Uiso   1.00
C32    C     0.05490   0.29133   0.10475   0.00000  Uiso   1.00
C33    C     0.05669   0.21065   0.89790   0.00000  Uiso   1.00
C34    C     0.45865   0.19512   0.60478   0.00000  Uiso   1.00
C35    C     0.01933   0.27603   0.54078   0.00000  Uiso   1.00
C36    C     0.03930   0.19327   0.39789   0.00000  Uiso   1.00
C37    C     0.19973   0.45340   0.60299   0.00000  Uiso   1.00
C38    C     0.19391   0.03917   0.39554   0.00000  Uiso   1.00
C39    C     0.03935   0.30669   0.60210   0.00000  Uiso   1.00
C40    C     0.45869   0.30491   0.39522   0.00000  Uiso   1.00
C41    C     0.30074   0.04676   0.60384   0.00000  Uiso   1.00
C42    C     0.30859   0.46302   0.39712   0.00000  Uiso   1.00
C43    C     0.47686   0.27534   0.45819   0.00000  Uiso   1.00
C44    C     0.27362   0.02440   0.54136   0.00000  Uiso   1.00
C45    C     0.27712   0.48093   0.45885   0.00000  Uiso   1.00
C46    C     0.22832   0.47389   0.08254   0.00000  Uiso   1.00
C47    C     0.26963   0.47308   0.91852   0.00000  Uiso   1.00
C48    C     0.47306   0.23039   0.08150   0.00000  Uiso   1.00
C49    C     0.26932   0.47396   0.95921   0.00000  Uiso   1.00
C50    C     0.47388   0.27167   0.91746   0.00000  Uiso   1.00
C51    C     0.26963   0.02692   0.08148   0.00000  Uiso   1.00
C52    C     0.22832   0.02611   0.91746   0.00000  Uiso   1.00
C53    C     0.02611   0.27169   0.08253   0.00000  Uiso   1.00
C54    C     0.02691   0.23035   0.91852   0.00000  Uiso   1.00
C55    C     0.47831   0.22390   0.58254   0.00000  Uiso   1.00
C56    C     0.01962   0.22307   0.41851   0.00000  Uiso   1.00
C57    C     0.22628   0.47669   0.58165   0.00000  Uiso   1.00
C58    C     0.22329   0.02023   0.41761   0.00000  Uiso   1.00
C59    C     0.01964   0.27691   0.58148   0.00000  Uiso   1.00
C60    C     0.47395   0.23070   0.04080   0.00000  Uiso   1.00
C61    C     0.47833   0.27612   0.41746   0.00000  Uiso   1.00
C62    C     0.27408   0.02395   0.58208   0.00000  Uiso   1.00
C63    C     0.27801   0.48113   0.41814   0.00000  Uiso   1.00
C64    C     0.24772   0.00031   0.02129   0.00000  Uiso   1.00
C65    C     0.24772   0.49969   0.97871   0.00000  Uiso   1.00
C66    C     0.49968   0.25228   0.02129   0.00000  Uiso   1.00
C67    C     0.00030   0.25227   0.97871   0.00000  Uiso   1.00
C68    C     0.49772   0.25031   0.52129   0.00000  Uiso   1.00
C69    C     0.49772   0.24969   0.47871   0.00000  Uiso   1.00
C70    C     0.25012   0.00093   0.52115   0.00000  Uiso   1.00
C71    C     0.47466   0.27314   0.95818   0.00000  Uiso   1.00
C72    C     0.25041   0.00108   0.47859   0.00000  Uiso   1.00
C73    C     0.25043   0.49997   0.35511   0.00000  Uiso   1.00
C74    C     0.25002   0.00002   0.64482   0.00000  Uiso   1.00
C75    C     0.00002   0.24961   0.35515   0.00000  Uiso   1.00
C76    C     0.00002   0.25039   0.64485   0.00000  Uiso   1.00
C77    C     0.00039   0.24998   0.85515   0.00000  Uiso   1.00
C78    C     0.49961   0.24999   0.14485   0.00000  Uiso   1.00
C79    C     0.25002   0.49961   0.85515   0.00000  Uiso   1.00
C80    C     0.25002   0.00039   0.14485   0.00000  Uiso   1.00
C81    C     0.17991   0.07006   0.25002   0.00000  Uiso   1.00
C82    C     0.26931   0.02604   0.04078   0.00000  Uiso   1.00
C83    C     0.32006   0.42991   0.75003   0.00000  Uiso   1.00
C84    C     0.42991   0.17994   0.24998   0.00000  Uiso   1.00
C85    C     0.07006   0.32009   0.74998   0.00000  Uiso   1.00
C86    C     0.32009   0.42994   0.25003   0.00000  Uiso   1.00
C87    C     0.17994   0.07009   0.75002   0.00000  Uiso   1.00
C88    C     0.07009   0.32006   0.24997   0.00000  Uiso   1.00
C89    C     0.42994   0.17991   0.74998   0.00000  Uiso   1.00
C90    C     0.17991   0.42994   0.74998   0.00000  Uiso   1.00
C91    C     0.32006   0.07009   0.24998   0.00000  Uiso   1.00
C92    C     0.42991   0.32006   0.75002   0.00000  Uiso   1.00
C93    C     0.22685   0.02533   0.95819   0.00000  Uiso   1.00
C94    C     0.07006   0.17991   0.25003   0.00000  Uiso   1.00
C95    C     0.32009   0.07006   0.74997   0.00000  Uiso   1.00
C96    C     0.17994   0.42991   0.24998   0.00000  Uiso   1.00
C97    C     0.07009   0.17994   0.75003   0.00000  Uiso   1.00
C98    C     0.42994   0.32009   0.25002   0.00000  Uiso   1.00
C99    C     0.12229   0.40444   0.22442   0.00000  Uiso   1.00
C100   C     0.37784   0.09544   0.77537   0.00000  Uiso   1.00
C101   C     0.09539   0.12212   0.22470   0.00000  Uiso   1.00
C102   C     0.40446   0.37773   0.77554   0.00000  Uiso   1.00
C103   C     0.37777   0.09551   0.22450   0.00000  Uiso   1.00
C104   C     0.02533   0.27315   0.04180   0.00000  Uiso   1.00
C105   C     0.12213   0.40458   0.77533   0.00000  Uiso   1.00
C106   C     0.40460   0.37788   0.22468   0.00000  Uiso   1.00
C107   C     0.09554   0.12225   0.77554   0.00000  Uiso   1.00
C108   C     0.12226   0.09553   0.77554   0.00000  Uiso   1.00
C109   C     0.37787   0.40460   0.22468   0.00000  Uiso   1.00
C110   C     0.09541   0.37786   0.77533   0.00000  Uiso   1.00
C111   C     0.40449   0.12224   0.22450   0.00000  Uiso   1.00
C112   C     0.37774   0.40446   0.77554   0.00000  Uiso   1.00
C113   C     0.12211   0.09540   0.22470   0.00000  Uiso   1.00
C114   C     0.40456   0.12216   0.77537   0.00000  Uiso   1.00
C115   C     0.02603   0.23067   0.95922   0.00000  Uiso   1.00
C116   C     0.09556   0.37772   0.22441   0.00000  Uiso   1.00
C117   C     0.37230   0.15443   0.72440   0.00000  Uiso   1.00
C118   C     0.12785   0.34542   0.27535   0.00000  Uiso   1.00
C119   C     0.34541   0.37214   0.72468   0.00000  Uiso   1.00
C120   C     0.15448   0.12775   0.27552   0.00000  Uiso   1.00
C121   C     0.12774   0.34554   0.72446   0.00000  Uiso   1.00
C122   C     0.37211   0.15461   0.27529   0.00000  Uiso   1.00
C123   C     0.15459   0.12788   0.72468   0.00000  Uiso   1.00
C124   C     0.34553   0.37225   0.27554   0.00000  Uiso   1.00
C125   C     0.37226   0.34553   0.27554   0.00000  Uiso   1.00
C126   C     0.47684   0.22467   0.54181   0.00000  Uiso   1.00
C127   C     0.12787   0.15460   0.72468   0.00000  Uiso   1.00
C128   C     0.34539   0.12788   0.27529   0.00000  Uiso   1.00
C129   C     0.15446   0.37227   0.72446   0.00000  Uiso   1.00
C130   C     0.12776   0.15447   0.27552   0.00000  Uiso   1.00
C131   C     0.37213   0.34541   0.72468   0.00000  Uiso   1.00
C132   C     0.15457   0.37214   0.27535   0.00000  Uiso   1.00
C133   C     0.34558   0.12770   0.72440   0.00000  Uiso   1.00
C134   C     0.09819   0.34809   0.24991   0.00000  Uiso   1.00
C135   C     0.40191   0.15181   0.74991   0.00000  Uiso   1.00
C136   C     0.15181   0.09809   0.25008   0.00000  Uiso   1.00
Cl137  Cl    0.20065   0.44238   0.01557   0.00000  Uiso   1.00
Cl138  Cl    0.04759   0.19425   0.48648   0.00000  Uiso   1.00
Cl139  Cl    0.19689   0.44876   0.51377   0.00000  Uiso   1.00
Cl140  Cl    0.19047   0.04545   0.48497   0.00000  Uiso   1.00
Cl141  Cl    0.04764   0.30571   0.51352   0.00000  Uiso   1.00
Cl142  Cl    0.45067   0.30763   0.48443   0.00000  Uiso   1.00
Cl143  Cl    0.30364   0.05292   0.51477   0.00000  Uiso   1.00
Cl144  Cl    0.30818   0.45394   0.48588   0.00000  Uiso   1.00
Cl145  Cl    0.29762   0.44427   0.98648   0.00000  Uiso   1.00
Cl146  Cl    0.44425   0.20240   0.01355   0.00000  Uiso   1.00
Cl147  Cl    0.44238   0.29935   0.98443   0.00000  Uiso   1.00
Cl148  Cl    0.29761   0.05573   0.01352   0.00000  Uiso   1.00
Cl149  Cl    0.20065   0.05761   0.98443   0.00000  Uiso   1.00
Cl150  Cl    0.05762   0.29934   0.01553   0.00000  Uiso   1.00
Cl151  Cl    0.05572   0.20238   0.98649   0.00000  Uiso   1.00
Cl152  Cl    0.45062   0.19240   0.51557   0.00000  Uiso   1.00
H153   H     0.11973   0.42709   0.20447   0.00000  Uiso   1.00
H154   H     0.38047   0.42729   0.20479   0.00000  Uiso   1.00
H155   H     0.07274   0.38044   0.79523   0.00000  Uiso   1.00
H156   H     0.42718   0.11965   0.20462   0.00000  Uiso   1.00
H157   H     0.38032   0.42712   0.79545   0.00000  Uiso   1.00
H158   H     0.11951   0.07272   0.20481   0.00000  Uiso   1.00
H159   H     0.42720   0.11959   0.79531   0.00000  Uiso   1.00
H160   H     0.07292   0.38028   0.20447   0.00000  Uiso   1.00
H161   H     0.36975   0.17707   0.70444   0.00000  Uiso   1.00
H162   H     0.13042   0.32276   0.29528   0.00000  Uiso   1.00
H163   H     0.32273   0.36955   0.70478   0.00000  Uiso   1.00
H164   H     0.38040   0.07279   0.79531   0.00000  Uiso   1.00
H165   H     0.17716   0.13033   0.29541   0.00000  Uiso   1.00
H166   H     0.13032   0.32288   0.70454   0.00000  Uiso   1.00
H167   H     0.36950   0.17730   0.29517   0.00000  Uiso   1.00
H168   H     0.17727   0.13047   0.70478   0.00000  Uiso   1.00
H169   H     0.32286   0.36966   0.29544   0.00000  Uiso   1.00
H170   H     0.36968   0.32285   0.29545   0.00000  Uiso   1.00
H171   H     0.13046   0.17728   0.70478   0.00000  Uiso   1.00
H172   H     0.32269   0.13049   0.29517   0.00000  Uiso   1.00
H173   H     0.17713   0.36970   0.70454   0.00000  Uiso   1.00
H174   H     0.13035   0.17715   0.29541   0.00000  Uiso   1.00
H175   H     0.07270   0.11953   0.20481   0.00000  Uiso   1.00
H176   H     0.36953   0.32274   0.70478   0.00000  Uiso   1.00
H177   H     0.17723   0.36957   0.29528   0.00000  Uiso   1.00
H178   H     0.32294   0.13026   0.70444   0.00000  Uiso   1.00
H179   H     0.22023   0.43462   0.13149   0.00000  Uiso   1.00
H180   H     0.30332   0.44828   0.87084   0.00000  Uiso   1.00
H181   H     0.44824   0.19674   0.12921   0.00000  Uiso   1.00
H182   H     0.43461   0.27976   0.86852   0.00000  Uiso   1.00
H183   H     0.30331   0.05172   0.12917   0.00000  Uiso   1.00
H184   H     0.22023   0.06538   0.86851   0.00000  Uiso   1.00
H185   H     0.06538   0.27978   0.13146   0.00000  Uiso   1.00
H186   H     0.42713   0.38030   0.79546   0.00000  Uiso   1.00
H187   H     0.05169   0.19665   0.87085   0.00000  Uiso   1.00
H188   H     0.47020   0.18463   0.63149   0.00000  Uiso   1.00
H189   H     0.05328   0.19826   0.37083   0.00000  Uiso   1.00
H190   H     0.18743   0.46322   0.62960   0.00000  Uiso   1.00
H191   H     0.18418   0.02784   0.36841   0.00000  Uiso   1.00
H192   H     0.05335   0.30169   0.62915   0.00000  Uiso   1.00
H193   H     0.47025   0.31539   0.36851   0.00000  Uiso   1.00
H194   H     0.31303   0.03641   0.63024   0.00000  Uiso   1.00
H195   H     0.30435   0.45023   0.36925   0.00000  Uiso   1.00
H196   H     0.38037   0.07283   0.20462   0.00000  Uiso   1.00
H197   H     0.11954   0.42725   0.79523   0.00000  Uiso   1.00
H198   H     0.42728   0.38048   0.20479   0.00000  Uiso   1.00
H199   H     0.07287   0.11967   0.79546   0.00000  Uiso   1.00
H200   H     0.11968   0.07286   0.79546   0.00000  Uiso   1.00
O201   O     0.25000   0.00000   0.25000   0.00000  Uiso   1.00
O202   O     0.25000   0.46964   0.66317   0.00000  Uiso   1.00
O203   O     0.46964   0.25000   0.33683   0.00000  Uiso   1.00
O204   O     0.03036   0.25000   0.66317   0.00000  Uiso   1.00
O205   O     0.00000   0.21964   0.83683   0.00000  Uiso   1.00
O206   O     0.00000   0.28036   0.16317   0.00000  Uiso   1.00
O207   O     0.28036   0.00000   0.83683   0.00000  Uiso   1.00
O208   O     0.21964  -0.00000   0.16317   0.00000  Uiso   1.00
O209   O     0.00000   0.28036   0.83683   0.00000  Uiso   1.00
O210   O     0.00000   0.21964   0.16317   0.00000  Uiso   1.00
O211   O     0.21964   0.00000   0.83683   0.00000  Uiso   1.00
O212   O     0.25000   0.00000   0.75000   0.00000  Uiso   1.00
O213   O     0.28036  -0.00000   0.16317   0.00000  Uiso   1.00
O214   O     0.20725   0.07307   0.27282   0.00000  Uiso   1.00
O215   O     0.29274   0.42693   0.72718   0.00000  Uiso   1.00
O216   O     0.42693   0.20726   0.27282   0.00000  Uiso   1.00
O217   O     0.07307   0.29274   0.72718   0.00000  Uiso   1.00
O218   O     0.29274   0.42693   0.27282   0.00000  Uiso   1.00
O219   O     0.20725   0.07307   0.72718   0.00000  Uiso   1.00
O220   O     0.07307   0.29274   0.27282   0.00000  Uiso   1.00
O221   O     0.42693   0.20726   0.72718   0.00000  Uiso   1.00
O222   O     0.20725   0.42693   0.72718   0.00000  Uiso   1.00
O223   O    -0.00000   0.25000   0.25000   0.00000  Uiso   1.00
O224   O     0.29274   0.07307   0.27282   0.00000  Uiso   1.00
O225   O     0.42693   0.29275   0.72718   0.00000  Uiso   1.00
O226   O     0.07307   0.20725   0.27282   0.00000  Uiso   1.00
O227   O     0.29274   0.07307   0.72718   0.00000  Uiso   1.00
O228   O     0.20725   0.42693   0.27282   0.00000  Uiso   1.00
O229   O     0.07307   0.20725   0.72718   0.00000  Uiso   1.00
O230   O     0.42693   0.29275   0.27282   0.00000  Uiso   1.00
O231   O     0.45725   0.32307   0.77282   0.00000  Uiso   1.00
O232   O     0.04274   0.17693   0.22718   0.00000  Uiso   1.00
O233   O     0.17693   0.45725   0.77282   0.00000  Uiso   1.00
O234   O     0.00000   0.25000   0.75000   0.00000  Uiso   1.00
O235   O     0.32307   0.04275   0.22718   0.00000  Uiso   1.00
O236   O     0.04274   0.17693   0.77282   0.00000  Uiso   1.00
O237   O     0.45725   0.32307   0.22718   0.00000  Uiso   1.00
O238   O     0.32307   0.04275   0.77282   0.00000  Uiso   1.00
O239   O     0.17693   0.45725   0.22718   0.00000  Uiso   1.00
O240   O     0.45725   0.17693   0.22718   0.00000  Uiso   1.00
O241   O     0.04274   0.32307   0.77282   0.00000  Uiso   1.00
O242   O     0.17693   0.04275   0.22718   0.00000  Uiso   1.00
O243   O     0.32307   0.45725   0.77282   0.00000  Uiso   1.00
O244   O     0.04274   0.32307   0.22718   0.00000  Uiso   1.00
O245   O     0.25000   0.46964   0.33683   0.00000  Uiso   1.00
O246   O     0.45725   0.17693   0.77282   0.00000  Uiso   1.00
O247   O     0.32307   0.45725   0.22718   0.00000  Uiso   1.00
O248   O     0.17693   0.04275   0.77282   0.00000  Uiso   1.00
O249   O     0.17901   0.43364   0.09441   0.00000  Uiso   1.00
O250   O     0.28932   0.41220   0.91054   0.00000  Uiso   1.00
O251   O     0.41218   0.21072   0.08949   0.00000  Uiso   1.00
O252   O     0.43364   0.32099   0.90558   0.00000  Uiso   1.00
O253   O     0.28931   0.08780   0.08946   0.00000  Uiso   1.00
O254   O     0.17900   0.06635   0.90559   0.00000  Uiso   1.00
O255   O     0.06636   0.32100   0.09437   0.00000  Uiso   1.00
O256   O     0.25000   0.03036   0.66317   0.00000  Uiso   1.00
O257   O     0.08778   0.21066   0.91053   0.00000  Uiso   1.00
O258   O     0.42897   0.18368   0.59441   0.00000  Uiso   1.00
O259   O     0.03929   0.16219   0.41054   0.00000  Uiso   1.00
O260   O     0.19215   0.42274   0.59189   0.00000  Uiso   1.00
O261   O     0.18109   0.06807   0.40655   0.00000  Uiso   1.00
O262   O     0.03934   0.33778   0.58946   0.00000  Uiso   1.00
O263   O     0.42903   0.31638   0.40559   0.00000  Uiso   1.00
O264   O     0.30840   0.07760   0.59336   0.00000  Uiso   1.00
O265   O     0.33950   0.46315   0.41023   0.00000  Uiso   1.00
O266   O     0.03036   0.25000   0.33683   0.00000  Uiso   1.00
O267   O     0.46964   0.25000   0.66317   0.00000  Uiso   1.00
O268   O     0.25000   0.03036   0.33683   0.00000  Uiso   1.00
Zn269  Zn    0.20660   0.00000   0.21760   0.00000  Uiso   1.00
Zn270  Zn    0.04340   0.25000   0.28240   0.00000  Uiso   1.00
Zn271  Zn    0.25000   0.45660   0.71760   0.00000  Uiso   1.00
Zn272  Zn    0.25000   0.04340   0.28240   0.00000  Uiso   1.00
Zn273  Zn    0.04340   0.25000   0.71760   0.00000  Uiso   1.00
Zn274  Zn    0.45660   0.25000   0.28240   0.00000  Uiso   1.00
Zn275  Zn    0.25000   0.04340   0.71760   0.00000  Uiso   1.00
Zn276  Zn    0.25000   0.45660   0.28240   0.00000  Uiso   1.00
Zn277  Zn    0.29340   0.00000   0.78240   0.00000  Uiso   1.00
Zn278  Zn   -0.00000   0.20660   0.21760   0.00000  Uiso   1.00
Zn279  Zn    0.00000   0.29340   0.78240   0.00000  Uiso   1.00
Zn280  Zn    0.29340   0.00000   0.21760   0.00000  Uiso   1.00
Zn281  Zn    0.20660   0.00000   0.78240   0.00000  Uiso   1.00
Zn282  Zn    0.00000   0.29340   0.21760   0.00000  Uiso   1.00
Zn283  Zn    0.00000   0.20660   0.78240   0.00000  Uiso   1.00
Zn284  Zn    0.45660   0.25000   0.71760   0.00000  Uiso   1.00
C285   C     0.72685   0.47466   0.04181   0.00000  Uiso   1.00
C286   C     0.51931   0.22395   0.45921   0.00000  Uiso   1.00
C287   C     0.84809   0.40181   0.75009   0.00000  Uiso   1.00
C288   C     0.90182   0.15191   0.24992   0.00000  Uiso   1.00
C289   C     0.59809   0.34818   0.74992   0.00000  Uiso   1.00
C290   C     0.84819   0.40191   0.25008   0.00000  Uiso   1.00
C291   C     0.65191   0.09819   0.75008   0.00000  Uiso   1.00
C292   C     0.59819   0.15191   0.75008   0.00000  Uiso   1.00
C293   C     0.90191   0.34819   0.25008   0.00000  Uiso   1.00
C294   C     0.65181   0.40191   0.74992   0.00000  Uiso   1.00
C295   C     0.84809   0.09818   0.24992   0.00000  Uiso   1.00
C296   C     0.90181   0.34809   0.75008   0.00000  Uiso   1.00
C297   C     0.72670   0.47701   0.54091   0.00000  Uiso   1.00
C298   C     0.59809   0.15182   0.25008   0.00000  Uiso   1.00
C299   C     0.84819   0.09809   0.74991   0.00000  Uiso   1.00
C300   C     0.65191   0.40181   0.24991   0.00000  Uiso   1.00
C301   C     0.74991   0.00003   0.10232   0.00000  Uiso   1.00
C302   C     0.74991   0.49997   0.89768   0.00000  Uiso   1.00
C303   C     0.99996   0.25010   0.10232   0.00000  Uiso   1.00
C304   C     0.50002   0.25007   0.89768   0.00000  Uiso   1.00
C305   C     0.99991   0.25003   0.60232   0.00000  Uiso   1.00
C306   C     0.99991   0.24997   0.39768   0.00000  Uiso   1.00
C307   C     0.75016   0.00016   0.60220   0.00000  Uiso   1.00
C308   C     0.72392   0.02111   0.45835   0.00000  Uiso   1.00
C309   C     0.75028   0.49993   0.39760   0.00000  Uiso   1.00
C310   C     0.70867   0.44510   0.10478   0.00000  Uiso   1.00
C311   C     0.78933   0.44329   0.89790   0.00000  Uiso   1.00
C312   C     0.94326   0.21071   0.10214   0.00000  Uiso   1.00
C313   C     0.94509   0.29132   0.89522   0.00000  Uiso   1.00
C314   C     0.78932   0.05672   0.10210   0.00000  Uiso   1.00
C315   C     0.70867   0.05490   0.89522   0.00000  Uiso   1.00
C316   C     0.55490   0.29133   0.10475   0.00000  Uiso   1.00
C317   C     0.55669   0.21065   0.89790   0.00000  Uiso   1.00
C318   C     0.95865   0.19512   0.60478   0.00000  Uiso   1.00
C319   C     0.51933   0.27603   0.54078   0.00000  Uiso   1.00
C320   C     0.53930   0.19327   0.39789   0.00000  Uiso   1.00
C321   C     0.69973   0.45340   0.60299   0.00000  Uiso   1.00
C322   C     0.69391   0.03917   0.39554   0.00000  Uiso   1.00
C323   C     0.53935   0.30669   0.60210   0.00000  Uiso   1.00
C324   C     0.95869   0.30491   0.39522   0.00000  Uiso   1.00
C325   C     0.80074   0.04676   0.60384   0.00000  Uiso   1.00
C326   C     0.80859   0.46302   0.39712   0.00000  Uiso   1.00
C327   C     0.97686   0.27534   0.45819   0.00000  Uiso   1.00
C328   C     0.77362   0.02440   0.54136   0.00000  Uiso   1.00
C329   C     0.77712   0.48093   0.45885   0.00000  Uiso   1.00
C330   C     0.72832   0.47389   0.08254   0.00000  Uiso   1.00
C331   C     0.76963   0.47308   0.91852   0.00000  Uiso   1.00
C332   C     0.97306   0.23039   0.08150   0.00000  Uiso   1.00
C333   C     0.76932   0.47396   0.95921   0.00000  Uiso   1.00
C334   C     0.97388   0.27167   0.91746   0.00000  Uiso   1.00
C335   C     0.76963   0.02692   0.08148   0.00000  Uiso   1.00
C336   C     0.72832   0.02611   0.91746   0.00000  Uiso   1.00
C337   C     0.52611   0.27169   0.08253   0.00000  Uiso   1.00
C338   C     0.52691   0.23035   0.91852   0.00000  Uiso   1.00
C339   C     0.97831   0.22390   0.58254   0.00000  Uiso   1.00
C340   C     0.51962   0.22307   0.41851   0.00000  Uiso   1.00
C341   C     0.72628   0.47669   0.58165   0.00000  Uiso   1.00
C342   C     0.72329   0.02023   0.41761   0.00000  Uiso   1.00
C343   C     0.51964   0.27691   0.58148   0.00000  Uiso   1.00
C344   C     0.97395   0.23070   0.04080   0.00000  Uiso   1.00
C345   C     0.97833   0.27612   0.41746   0.00000  Uiso   1.00
C346   C     0.77408   0.02395   0.58208   0.00000  Uiso   1.00
C347   C     0.77801   0.48113   0.41814   0.00000  Uiso   1.00
C348   C     0.74772   0.00031   0.02129   0.00000  Uiso   1.00
C349   C     0.74772   0.49969   0.97871   0.00000  Uiso   1.00
C350   C     0.99968   0.25228   0.02129   0.00000  Uiso   1.00
C351   C     0.50030   0.25227   0.97871   0.00000  Uiso   1.00
C352   C     0.99772   0.25031   0.52129   0.00000  Uiso   1.00
C353   C     0.99772   0.24969   0.47871   0.00000  Uiso   1.00
C354   C     0.75012   0.00093   0.52115   0.00000  Uiso   1.00
C355   C     0.97466   0.27314   0.95818   0.00000  Uiso   1.00
C356   C     0.75041   0.00108   0.47859   0.00000  Uiso   1.00
C357   C     0.75043   0.49997   0.35511   0.00000  Uiso   1.00
C358   C     0.75002   0.00002   0.64482   0.00000  Uiso   1.00
C359   C     0.50002   0.24961   0.35515   0.00000  Uiso   1.00
C360   C     0.50002   0.25039   0.64485   0.00000  Uiso   1.00
C361   C     0.50039   0.24998   0.85515   0.00000  Uiso   1.00
C362   C     0.99961   0.24999   0.14485   0.00000  Uiso   1.00
C363   C     0.75002   0.49961   0.85515   0.00000  Uiso   1.00
C364   C     0.75002   0.00039   0.14485   0.00000  Uiso   1.00
C365   C     0.67991   0.07006   0.25002   0.00000  Uiso   1.00
C366   C     0.76931   0.02604   0.04078   0.00000  Uiso   1.00
C367   C     0.82006   0.42991   0.75003   0.00000  Uiso   1.00
C368   C     0.92991   0.17994   0.24998   0.00000  Uiso   1.00
C369   C     0.57006   0.32009   0.74998   0.00000  Uiso   1.00
C370   C     0.82009   0.42994   0.25003   0.00000  Uiso   1.00
C371   C     0.67994   0.07009   0.75002   0.00000  Uiso   1.00
C372   C     0.57009   0.32006   0.24997   0.00000  Uiso   1.00
C373   C     0.92994   0.17991   0.74998   0.00000  Uiso   1.00
C374   C     0.67991   0.42994   0.74998   0.00000  Uiso   1.00
C375   C     0.82006   0.07009   0.24998   0.00000  Uiso   1.00
C376   C     0.92991   0.32006   0.75002   0.00000  Uiso   1.00
C377   C     0.72685   0.02533   0.95819   0.00000  Uiso   1.00
C378   C     0.57006   0.17991   0.25003   0.00000  Uiso   1.00
C379   C     0.82009   0.07006   0.74997   0.00000  Uiso   1.00
C380   C     0.67994   0.42991   0.24998   0.00000  Uiso   1.00
C381   C     0.57009   0.17994   0.75003   0.00000  Uiso   1.00
C382   C     0.92994   0.32009   0.25002   0.00000  Uiso   1.00
C383   C     0.62229   0.40444   0.22442   0.00000  Uiso   1.00
C384   C     0.87784   0.09544   0.77537   0.00000  Uiso   1.00
C385   C     0.59539   0.12212   0.22470   0.00000  Uiso   1.00
C386   C     0.90446   0.37773   0.77554   0.00000  Uiso   1.00
C387   C     0.87777   0.09551   0.22450   0.00000  Uiso   1.00
C388   C     0.52533   0.27315   0.04180   0.00000  Uiso   1.00
C389   C     0.62213   0.40458   0.77533   0.00000  Uiso   1.00
C390   C     0.90460   0.37788   0.22468   0.00000  Uiso   1.00
C391   C     0.59554   0.12225   0.77554   0.00000  Uiso   1.00
C392   C     0.62226   0.09553   0.77554   0.00000  Uiso   1.00
C393   C     0.87787   0.40460   0.22468   0.00000  Uiso   1.00
C394   C     0.59541   0.37786   0.77533   0.00000  Uiso   1.00
C395   C     0.90449   0.12224   0.22450   0.00000  Uiso   1.00
C396   C     0.87774   0.40446   0.77554   0.00000  Uiso   1.00
C397   C     0.62211   0.09540   0.22470   0.00000  Uiso   1.00
C398   C     0.90456   0.12216   0.77537   0.00000  Uiso   1.00
C399   C     0.52603   0.23067   0.95922   0.00000  Uiso   1.00
C400   C     0.59556   0.37772   0.22441   0.00000  Uiso   1.00
C401   C     0.87230   0.15443   0.72440   0.00000  Uiso   1.00
C402   C     0.62785   0.34542   0.27535   0.00000  Uiso   1.00
C403   C     0.84541   0.37214   0.72468   0.00000  Uiso   1.00
C404   C     0.65448   0.12775   0.27552   0.00000  Uiso   1.00
C405   C     0.62774   0.34554   0.72446   0.00000  Uiso   1.00
C406   C     0.87211   0.15461   0.27529   0.00000  Uiso   1.00
C407   C     0.65459   0.12788   0.72468   0.00000  Uiso   1.00
C408   C     0.84553   0.37225   0.27554   0.00000  Uiso   1.00
C409   C     0.87226   0.34553   0.27554   0.00000  Uiso   1.00
C410   C     0.97684   0.22467   0.54181   0.00000  Uiso   1.00
C411   C     0.62787   0.15460   0.72468   0.00000  Uiso   1.00
C412   C     0.84539   0.12788   0.27529   0.00000  Uiso   1.00
C413   C     0.65446   0.37227   0.72446   0.00000  Uiso   1.00
C414   C     0.62776   0.15447   0.27552   0.00000  Uiso   1.00
C415   C     0.87213   0.34541   0.72468   0.00000  Uiso   1.00
C416   C     0.65457   0.37214   0.27535   0.00000  Uiso   1.00
C417   C     0.84558   0.12770   0.72440   0.00000  Uiso   1.00
C418   C     0.59819   0.34809   0.24991   0.00000  Uiso   1.00
C419   C     0.90191   0.15181   0.74991   0.00000  Uiso   1.00
C420   C     0.65181   0.09809   0.25008   0.00000  Uiso   1.00
Cl421  Cl    0.70065   0.44238   0.01557   0.00000  Uiso   1.00
Cl422  Cl    0.54759   0.19425   0.48648   0.00000  Uiso   1.00
Cl423  Cl    0.69689   0.44876   0.51377   0.00000  Uiso   1.00
Cl424  Cl    0.69047   0.04545   0.48497   0.00000  Uiso   1.00
Cl425  Cl    0.54764   0.30571   0.51352   0.00000  Uiso   1.00
Cl426  Cl    0.95067   0.30763   0.48443   0.00000  Uiso   1.00
Cl427  Cl    0.80364   0.05292   0.51477   0.00000  Uiso   1.00
Cl428  Cl    0.80818   0.45394   0.48588   0.00000  Uiso   1.00
Cl429  Cl    0.79762   0.44427   0.98648   0.00000  Uiso   1.00
Cl430  Cl    0.94425   0.20240   0.01355   0.00000  Uiso   1.00
Cl431  Cl    0.94238   0.29935   0.98443   0.00000  Uiso   1.00
Cl432  Cl    0.79761   0.05573   0.01352   0.00000  Uiso   1.00
Cl433  Cl    0.70065   0.05761   0.98443   0.00000  Uiso   1.00
Cl434  Cl    0.55762   0.29934   0.01553   0.00000  Uiso   1.00
Cl435  Cl    0.55572   0.20238   0.98649   0.00000  Uiso   1.00
Cl436  Cl    0.95062   0.19240   0.51557   0.00000  Uiso   1.00
H437   H     0.61973   0.42709   0.20447   0.00000  Uiso   1.00
H438   H     0.88047   0.42729   0.20479   0.00000  Uiso   1.00
H439   H     0.57274   0.38044   0.79523   0.00000  Uiso   1.00
H440   H     0.92718   0.11965   0.20462   0.00000  Uiso   1.00
H441   H     0.88032   0.42712   0.79545   0.00000  Uiso   1.00
H442   H     0.61951   0.07272   0.20481   0.00000  Uiso   1.00
H443   H     0.92720   0.11959   0.79531   0.00000  Uiso   1.00
H444   H     0.57292   0.38028   0.20447   0.00000  Uiso   1.00
H445   H     0.86975   0.17707   0.70444   0.00000  Uiso   1.00
H446   H     0.63042   0.32276   0.29528   0.00000  Uiso   1.00
H447   H     0.82273   0.36955   0.70478   0.00000  Uiso   1.00
H448   H     0.88040   0.07279   0.79531   0.00000  Uiso   1.00
H449   H     0.67716   0.13033   0.29541   0.00000  Uiso   1.00
H450   H     0.63032   0.32288   0.70454   0.00000  Uiso   1.00
H451   H     0.86950   0.17730   0.29517   0.00000  Uiso   1.00
H452   H     0.67727   0.13047   0.70478   0.00000  Uiso   1.00
H453   H     0.82286   0.36966   0.29544   0.00000  Uiso   1.00
H454   H     0.86968   0.32285   0.29545   0.00000  Uiso   1.00
H455   H     0.63046   0.17728   0.70478   0.00000  Uiso   1.00
H456   H     0.82269   0.13049   0.29517   0.00000  Uiso   1.00
H457   H     0.67713   0.36970   0.70454   0.00000  Uiso   1.00
H458   H     0.63035   0.17715   0.29541   0.00000  Uiso   1.00
H459   H     0.57270   0.11953   0.20481   0.00000  Uiso   1.00
H460   H     0.86953   0.32274   0.70478   0.00000  Uiso   1.00
H461   H     0.67723   0.36957   0.29528   0.00000  Uiso   1.00
H462   H     0.82294   0.13026   0.70444   0.00000  Uiso   1.00
H463   H     0.72023   0.43462   0.13149   0.00000  Uiso   1.00
H464   H     0.80332   0.44828   0.87084   0.00000  Uiso   1.00
H465   H     0.94824   0.19674   0.12921   0.00000  Uiso   1.00
H466   H     0.93461   0.27976   0.86852   0.00000  Uiso   1.00
H467   H     0.80331   0.05172   0.12917   0.00000  Uiso   1.00
H468   H     0.72023   0.06538   0.86851   0.00000  Uiso   1.00
H469   H     0.56538   0.27978   0.13146   0.00000  Uiso   1.00
H470   H     0.92713   0.38030   0.79546   0.00000  Uiso   1.00
H471   H     0.55169   0.19665   0.87085   0.00000  Uiso   1.00
H472   H     0.97020   0.18463   0.63149   0.00000  Uiso   1.00
H473   H     0.55328   0.19826   0.37083   0.00000  Uiso   1.00
H474   H     0.68743   0.46322   0.62960   0.00000  Uiso   1.00
H475   H     0.68418   0.02784   0.36841   0.00000  Uiso   1.00
H476   H     0.55335   0.30169   0.62915   0.00000  Uiso   1.00
H477   H     0.97025   0.31539   0.36851   0.00000  Uiso   1.00
H478   H     0.81303   0.03641   0.63024   0.00000  Uiso   1.00
H479   H     0.80435   0.45023   0.36925   0.00000  Uiso   1.00
H480   H     0.88037   0.07283   0.20462   0.00000  Uiso   1.00
H481   H     0.61954   0.42725   0.79523   0.00000  Uiso   1.00
H482   H     0.92728   0.38048   0.20479   0.00000  Uiso   1.00
H483   H     0.57287   0.11967   0.79546   0.00000  Uiso   1.00
H484   H     0.61968   0.07286   0.79546   0.00000  Uiso   1.00
O485   O     0.75000   0.00000   0.25000   0.00000  Uiso   1.00
O486   O     0.75000   0.46964   0.66317   0.00000  Uiso   1.00
O487   O     0.96964   0.25000   0.33683   0.00000  Uiso   1.00
O488   O     0.53036   0.25000   0.66317   0.00000  Uiso   1.00
O489   O     0.50000   0.21964   0.83683   0.00000  Uiso   1.00
O490   O     0.50000   0.28036   0.16317   0.00000  Uiso   1.00
O491   O     0.78036   0.00000   0.83683   0.00000  Uiso   1.00
O492   O     0.71964  -0.00000   0.16317   0.00000  Uiso   1.00
O493   O     0.50000   0.28036   0.83683   0.00000  Uiso   1.00
O494   O     0.50000   0.21964   0.16317   0.00000  Uiso   1.00
O495   O     0.71964   0.00000   0.83683   0.00000  Uiso   1.00
O496   O     0.75000   0.00000   0.75000   0.00000  Uiso   1.00
O497   O     0.78036  -0.00000   0.16317   0.00000  Uiso   1.00
O498   O     0.70725   0.07307   0.27282   0.00000  Uiso   1.00
O499   O     0.79274   0.42693   0.72718   0.00000  Uiso   1.00
O500   O     0.92693   0.20726   0.27282   0.00000  Uiso   1.00
O501   O     0.57307   0.29274   0.72718   0.00000  Uiso   1.00
O502   O     0.79274   0.42693   0.27282   0.00000  Uiso   1.00
O503   O     0.70725   0.07307   0.72718   0.00000  Uiso   1.00
O504   O     0.57307   0.29274   0.27282   0.00000  Uiso   1.00
O505   O     0.92693   0.20726   0.72718   0.00000  Uiso   1.00
O506   O     0.70725   0.42693   0.72718   0.00000  Uiso   1.00
O507   O     0.50000   0.25000   0.25000   0.00000  Uiso   1.00
O508   O     0.79274   0.07307   0.27282   0.00000  Uiso   1.00
O509   O     0.92693   0.29275   0.72718   0.00000  Uiso   1.00
O510   O     0.57307   0.20725   0.27282   0.00000  Uiso   1.00
O511   O     0.79274   0.07307   0.72718   0.00000  Uiso   1.00
O512   O     0.70725   0.42693   0.27282   0.00000  Uiso   1.00
O513   O     0.57307   0.20725   0.72718   0.00000  Uiso   1.00
O514   O     0.92693   0.29275   0.27282   0.00000  Uiso   1.00
O515   O     0.95725   0.32307   0.77282   0.00000  Uiso   1.00
O516   O     0.54274   0.17693   0.22718   0.00000  Uiso   1.00
O517   O     0.67693   0.45725   0.77282   0.00000  Uiso   1.00
O518   O     0.50000   0.25000   0.75000   0.00000  Uiso   1.00
O519   O     0.82307   0.04275   0.22718   0.00000  Uiso   1.00
O520   O     0.54274   0.17693   0.77282   0.00000  Uiso   1.00
O521   O     0.95725   0.32307   0.22718   0.00000  Uiso   1.00
O522   O     0.82307   0.04275   0.77282   0.00000  Uiso   1.00
O523   O     0.67693   0.45725   0.22718   0.00000  Uiso   1.00
O524   O     0.95725   0.17693   0.22718   0.00000  Uiso   1.00
O525   O     0.54274   0.32307   0.77282   0.00000  Uiso   1.00
O526   O     0.67693   0.04275   0.22718   0.00000  Uiso   1.00
O527   O     0.82307   0.45725   0.77282   0.00000  Uiso   1.00
O528   O     0.54274   0.32307   0.22718   0.00000  Uiso   1.00
O529   O     0.75000   0.46964   0.33683   0.00000  Uiso   1.00
O530   O     0.95725   0.17693   0.77282   0.00000  Uiso   1.00
O531   O     0.82307   0.45725   0.22718   0.00000  Uiso   1.00
O532   O     0.67693   0.04275   0.77282   0.00000  Uiso   1.00
O533   O     0.67901   0.43364   0.09441   0.00000  Uiso   1.00
O534   O     0.78932   0.41220   0.91054   0.00000  Uiso   1.00
O535   O     0.91218   0.21072   0.08949   0.00000  Uiso   1.00
O536   O     0.93364   0.32099   0.90558   0.00000  Uiso   1.00
O537   O     0.78931   0.08780   0.08946   0.00000  Uiso   1.00
O538   O     0.67900   0.06635   0.90559   0.00000  Uiso   1.00
O539   O     0.56636   0.32100   0.09437   0.00000  Uiso   1.00
O540   O     0.75000   0.03036   0.66317   0.00000  Uiso   1.00
O541   O     0.58778   0.21066   0.91053   0.00000  Uiso   1.00
O542   O     0.92897   0.18368   0.59441   0.00000  Uiso   1.00
O543   O     0.53929   0.16219   0.41054   0.00000  Uiso   1.00
O544   O     0.69215   0.42274   0.59189   0.00000  Uiso   1.00
O545   O     0.68109   0.06807   0.40655   0.00000  Uiso   1.00
O546   O     0.53934   0.33778   0.58946   0.00000  Uiso   1.00
O547   O     0.92903   0.31638   0.40559   0.00000  Uiso   1.00
O548   O     0.80840   0.07760   0.59336   0.00000  Uiso   1.00
O549   O     0.83950   0.46315   0.41023   0.00000  Uiso   1.00
O550   O     0.53036   0.25000   0.33683   0.00000  Uiso   1.00
O551   O     0.96964   0.25000   0.66317   0.00000  Uiso   1.00
O552   O     0.75000   0.03036   0.33683   0.00000  Uiso   1.00
Zn553  Zn    0.70660   0.00000   0.21760   0.00000  Uiso   1.00
Zn554  Zn    0.54340   0.25000   0.28240   0.00000  Uiso   1.00
Zn555  Zn    0.75000   0.45660   0.71760   0.00000  Uiso   1.00
Zn556  Zn    0.75000   0.04340   0.28240   0.00000  Uiso   1.00
Zn557  Zn    0.54340   0.25000   0.71760   0.00000  Uiso   1.00
Zn558  Zn    0.95660   0.25000   0.28240   0.00000  Uiso   1.00
Zn559  Zn    0.75000   0.04340   0.71760   0.00000  Uiso   1.00
Zn560  Zn    0.75000   0.45660   0.28240   0.00000  Uiso   1.00
Zn561  Zn    0.79340   0.00000   0.78240   0.00000  Uiso   1.00
Zn562  Zn    0.50000   0.20660   0.21760   0.00000  Uiso   1.00
Zn563  Zn    0.50000   0.29340   0.78240   0.00000  Uiso   1.00
Zn564  Zn    0.79340   0.00000   0.21760   0.00000  Uiso   1.00
Zn565  Zn    0.70660   0.00000   0.78240   0.00000  Uiso   1.00
Zn566  Zn    0.50000   0.29340   0.21760   0.00000  Uiso   1.00
Zn567  Zn    0.50000   0.20660   0.78240   0.00000  Uiso   1.00
Zn568  Zn    0.95660   0.25000   0.71760   0.00000  Uiso   1.00
C569   C     0.22685   0.97466   0.04181   0.00000  Uiso   1.00
C570   C     0.01931   0.72395   0.45921   0.00000  Uiso   1.00
C571   C     0.34809   0.90181   0.75009   0.00000  Uiso   1.00
C572   C     0.40182   0.65191   0.24992   0.00000  Uiso   1.00
C573   C     0.09809   0.84818   0.74992   0.00000  Uiso   1.00
C574   C     0.34819   0.90191   0.25008   0.00000  Uiso   1.00
C575   C     0.15191   0.59819   0.75008   0.00000  Uiso   1.00
C576   C     0.09819   0.65191   0.75008   0.00000  Uiso   1.00
C577   C     0.40191   0.84819   0.25008   0.00000  Uiso   1.00
C578   C     0.15181   0.90191   0.74992   0.00000  Uiso   1.00
C579   C     0.34809   0.59818   0.24992   0.00000  Uiso   1.00
C580   C     0.40181   0.84809   0.75008   0.00000  Uiso   1.00
C581   C     0.22670   0.97701   0.54091   0.00000  Uiso   1.00
C582   C     0.09809   0.65182   0.25008   0.00000  Uiso   1.00
C583   C     0.34819   0.59809   0.74991   0.00000  Uiso   1.00
C584   C     0.15191   0.90181   0.24991   0.00000  Uiso   1.00
C585   C     0.24991   0.50003   0.10232   0.00000  Uiso   1.00
C586   C     0.24991   0.99997   0.89768   0.00000  Uiso   1.00
C587   C     0.49996   0.75010   0.10232   0.00000  Uiso   1.00
C588   C     0.00002   0.75007   0.89768   0.00000  Uiso   1.00
C589   C     0.49991   0.75003   0.60232   0.00000  Uiso   1.00
C590   C     0.49991   0.74997   0.39768   0.00000  Uiso   1.00
C591   C     0.25016   0.50016   0.60220   0.00000  Uiso   1.00
C592   C     0.22392   0.52111   0.45835   0.00000  Uiso   1.00
C593   C     0.25028   0.99993   0.39760   0.00000  Uiso   1.00
C594   C     0.20867   0.94510   0.10478   0.00000  Uiso   1.00
C595   C     0.28933   0.94329   0.89790   0.00000  Uiso   1.00
C596   C     0.44326   0.71071   0.10214   0.00000  Uiso   1.00
C597   C     0.44509   0.79132   0.89522   0.00000  Uiso   1.00
C598   C     0.28932   0.55672   0.10210   0.00000  Uiso   1.00
C599   C     0.20867   0.55490   0.89522   0.00000  Uiso   1.00
C600   C     0.05490   0.79133   0.10475   0.00000  Uiso   1.00
C601   C     0.05669   0.71065   0.89790   0.00000  Uiso   1.00
C602   C     0.45865   0.69512   0.60478   0.00000  Uiso   1.00
C603   C     0.01933   0.77603   0.54078   0.00000  Uiso   1.00
C604   C     0.03930   0.69327   0.39789   0.00000  Uiso   1.00
C605   C     0.19973   0.95340   0.60299   0.00000  Uiso   1.00
C606   C     0.19391   0.53917   0.39554   0.00000  Uiso   1.00
C607   C     0.03935   0.80669   0.60210   0.00000  Uiso   1.00
C608   C     0.45869   0.80491   0.39522   0.00000  Uiso   1.00
C609   C     0.30074   0.54676   0.60384   0.00000  Uiso   1.00
C610   C     0.30859   0.96302   0.39712   0.00000  Uiso   1.00
C611   C     0.47686   0.77534   0.45819   0.00000  Uiso   1.00
C612   C     0.27362   0.52440   0.54136   0.00000  Uiso   1.00
C613   C     0.27712   0.98093   0.45885   0.00000  Uiso   1.00
C614   C     0.22832   0.97389   0.08254   0.00000  Uiso   1.00
C615   C     0.26963   0.97308   0.91852   0.00000  Uiso   1.00
C616   C     0.47306   0.73039   0.08150   0.00000  Uiso   1.00
C617   C     0.26932   0.97396   0.95921   0.00000  Uiso   1.00
C618   C     0.47388   0.77167   0.91746   0.00000  Uiso   1.00
C619   C     0.26963   0.52692   0.08148   0.00000  Uiso   1.00
C620   C     0.22832   0.52611   0.91746   0.00000  Uiso   1.00
C621   C     0.02611   0.77169   0.08253   0.00000  Uiso   1.00
C622   C     0.02691   0.73035   0.91852   0.00000  Uiso   1.00
C623   C     0.47831   0.72390   0.58254   0.00000  Uiso   1.00
C624   C     0.01962   0.72307   0.41851   0.00000  Uiso   1.00
C625   C     0.22628   0.97669   0.58165   0.00000  Uiso   1.00
C626   C     0.22329   0.52023   0.41761   0.00000  Uiso   1.00
C627   C     0.01964   0.77691   0.58148   0.00000  Uiso   1.00
C628   C     0.47395   0.73070   0.04080   0.00000  Uiso   1.00
C629   C     0.47833   0.77612   0.41746   0.00000  Uiso   1.00
C630   C     0.27408   0.52395   0.58208   0.00000  Uiso   1.00
C631   C     0.27801   0.98113   0.41814   0.00000  Uiso   1.00
C632   C     0.24772   0.50031   0.02129   0.00000  Uiso   1.00
C633   C     0.24772   0.99969   0.97871   0.00000  Uiso   1.00
C634   C     0.49968   0.75228   0.02129   0.00000  Uiso   1.00
C635   C     0.00030   0.75227   0.97871   0.00000  Uiso   1.00
C636   C     0.49772   0.75031   0.52129   0.00000  Uiso   1.00
C637   C     0.49772   0.74969   0.47871   0.00000  Uiso   1.00
C638   C     0.25012   0.50093   0.52115   0.00000  Uiso   1.00
C639   C     0.47466   0.77314   0.95818   0.00000  Uiso   1.00
C640   C     0.25041   0.50108   0.47859   0.00000  Uiso   1.00
C641   C     0.25043   0.99997   0.35511   0.00000  Uiso   1.00
C642   C     0.25002   0.50002   0.64482   0.00000  Uiso   1.00
C643   C     0.00002   0.74961   0.35515   0.00000  Uiso   1.00
C644   C     0.00002   0.75039   0.64485   0.00000  Uiso   1.00
C645   C     0.00039   0.74998   0.85515   0.00000  Uiso   1.00
C646   C     0.49961   0.74999   0.14485   0.00000  Uiso   1.00
C647   C     0.25002   0.99961   0.85515   0.00000  Uiso   1.00
C648   C     0.25002   0.50039   0.14485   0.00000  Uiso   1.00
C649   C     0.17991   0.57006   0.25002   0.00000  Uiso   1.00
C650   C     0.26931   0.52604   0.04078   0.00000  Uiso   1.00
C651   C     0.32006   0.92991   0.75003   0.00000  Uiso   1.00
C652   C     0.42991   0.67994   0.24998   0.00000  Uiso   1.00
C653   C     0.07006   0.82009   0.74998   0.00000  Uiso   1.00
C654   C     0.32009   0.92994   0.25003   0.00000  Uiso   1.00
C655   C     0.17994   0.57009   0.75002   0.00000  Uiso   1.00
C656   C     0.07009   0.82006   0.24997   0.00000  Uiso   1.00
C657   C     0.42994   0.67991   0.74998   0.00000  Uiso   1.00
C658   C     0.17991   0.92994   0.74998   0.00000  Uiso   1.00
C659   C     0.32006   0.57009   0.24998   0.00000  Uiso   1.00
C660   C     0.42991   0.82006   0.75002   0.00000  Uiso   1.00
C661   C     0.22685   0.52533   0.95819   0.00000  Uiso   1.00
C662   C     0.07006   0.67991   0.25003   0.00000  Uiso   1.00
C663   C     0.32009   0.57006   0.74997   0.00000  Uiso   1.00
C664   C     0.17994   0.92991   0.24998   0.00000  Uiso   1.00
C665   C     0.07009   0.67994   0.75003   0.00000  Uiso   1.00
C666   C     0.42994   0.82009   0.25002   0.00000  Uiso   1.00
C667   C     0.12229   0.90444   0.22442   0.00000  Uiso   1.00
C668   C     0.37784   0.59544   0.77537   0.00000  Uiso   1.00
C669   C     0.09539   0.62212   0.22470   0.00000  Uiso   1.00
C670   C     0.40446   0.87773   0.77554   0.00000  Uiso   1.00
C671   C     0.37777   0.59551   0.22450   0.00000  Uiso   1.00
C672   C     0.02533   0.77315   0.04180   0.00000  Uiso   1.00
C673   C     0.12213   0.90458   0.77533   0.00000  Uiso   1.00
C674   C     0.40460   0.87788   0.22468   0.00000  Uiso   1.00
C675   C     0.09554   0.62225   0.77554   0.00000  Uiso   1.00
C676   C     0.12226   0.59553   0.77554   0.00000  Uiso   1.00
C677   C     0.37787   0.90460   0.22468   0.00000  Uiso   1.00
C678   C     0.09541   0.87786   0.77533   0.00000  Uiso   1.00
C679   C     0.40449   0.62224   0.22450   0.00000  Uiso   1.00
C680   C     0.37774   0.90446   0.77554   0.00000  Uiso   1.00
C681   C     0.12211   0.59540   0.22470   0.00000  Uiso   1.00
C682   C     0.40456   0.62216   0.77537   0.00000  Uiso   1.00
C683   C     0.02603   0.73067   0.95922   0.00000  Uiso   1.00
C684   C     0.09556   0.87772   0.22441   0.00000  Uiso   1.00
C685   C     0.37230   0.65443   0.72440   0.00000  Uiso   1.00
C686   C     0.12785   0.84542   0.27535   0.00000  Uiso   1.00
C687   C     0.34541   0.87214   0.72468   0.00000  Uiso   1.00
C688   C     0.15448   0.62775   0.27552   0.00000  Uiso   1.00
C689   C     0.12774   0.84554   0.72446   0.00000  Uiso   1.00
C690   C     0.37211   0.65461   0.27529   0.00000  Uiso   1.00
C691   C     0.15459   0.62788   0.72468   0.00000  Uiso   1.00
C692   C     0.34553   0.87225   0.27554   0.00000  Uiso   1.00
C693   C     0.37226   0.84553   0.27554   0.00000  Uiso   1.00
C694   C     0.47684   0.72467   0.54181   0.00000  Uiso   1.00
C695   C     0.12787   0.65460   0.72468   0.00000  Uiso   1.00
C696   C     0.34539   0.62788   0.27529   0.00000  Uiso   1.00
C697   C     0.15446   0.87227   0.72446   0.00000  Uiso   1.00
C698   C     0.12776   0.65447   0.27552   0.00000  Uiso   1.00
C699   C     0.37213   0.84541   0.72468   0.00000  Uiso   1.00
C700   C     0.15457   0.87214   0.27535   0.00000  Uiso   1.00
C701   C     0.34558   0.62770   0.72440   0.00000  Uiso   1.00
C702   C     0.09819   0.84809   0.24991   0.00000  Uiso   1.00
C703   C     0.40191   0.65181   0.74991   0.00000  Uiso   1.00
C704   C     0.15181   0.59809   0.25008   0.00000  Uiso   1.00
Cl705  Cl    0.20065   0.94238   0.01557   0.00000  Uiso   1.00
Cl706  Cl    0.04759   0.69425   0.48648   0.00000  Uiso   1.00
Cl707  Cl    0.19689   0.94876   0.51377   0.00000  Uiso   1.00
Cl708  Cl    0.19047   0.54545   0.48497   0.00000  Uiso   1.00
Cl709  Cl    0.04764   0.80571   0.51352   0.00000  Uiso   1.00
Cl710  Cl    0.45067   0.80763   0.48443   0.00000  Uiso   1.00
Cl711  Cl    0.30364   0.55292   0.51477   0.00000  Uiso   1.00
Cl712  Cl    0.30818   0.95394   0.48588   0.00000  Uiso   1.00
Cl713  Cl    0.29762   0.94427   0.98648   0.00000  Uiso   1.00
Cl714  Cl    0.44425   0.70240   0.01355   0.00000  Uiso   1.00
Cl715  Cl    0.44238   0.79935   0.98443   0.00000  Uiso   1.00
Cl716  Cl    0.29761   0.55573   0.01352   0.00000  Uiso   1.00
Cl717  Cl    0.20065   0.55761   0.98443   0.00000  Uiso   1.00
Cl718  Cl    0.05762   0.79934   0.01553   0.00000  Uiso   1.00
Cl719  Cl    0.05572   0.70238   0.98649   0.00000  Uiso   1.00
Cl720  Cl    0.45062   0.69240   0.51557   0.00000  Uiso   1.00
H721   H     0.11973   0.92709   0.20447   0.00000  Uiso   1.00
H722   H     0.38047   0.92729   0.20479   0.00000  Uiso   1.00
H723   H     0.07274   0.88044   0.79523   0.00000  Uiso   1.00
H724   H     0.42718   0.61965   0.20462   0.00000  Uiso   1.00
H725   H     0.38032   0.92712   0.79545   0.00000  Uiso   1.00
H726   H     0.11951   0.57272   0.20481   0.00000  Uiso   1.00
H727   H     0.42720   0.61959   0.79531   0.00000  Uiso   1.00
H728   H     0.07292   0.88028   0.20447   0.00000  Uiso   1.00
H729   H     0.36975   0.67707   0.70444   0.00000  Uiso   1.00
H730   H     0.13042   0.82276   0.29528   0.00000  Uiso   1.00
H731   H     0.32273   0.86955   0.70478   0.00000  Uiso   1.00
H732   H     0.38040   0.57279   0.79531   0.00000  Uiso   1.00
H733   H     0.17716   0.63033   0.29541   0.00000  Uiso   1.00
H734   H     0.13032   0.82288   0.70454   0.00000  Uiso   1.00
H735   H     0.36950   0.67730   0.29517   0.00000  Uiso   1.00
H736   H     0.17727   0.63047   0.70478   0.00000  Uiso   1.00
H737   H     0.32286   0.86966   0.29544   0.00000  Uiso   1.00
H738   H     0.36968   0.82285   0.29545   0.00000  Uiso   1.00
H739   H     0.13046   0.67728   0.70478   0.00000  Uiso   1.00
H740   H     0.32269   0.63049   0.29517   0.00000  Uiso   1.00
H741   H     0.17713   0.86970   0.70454   0.00000  Uiso   1.00
H742   H     0.13035   0.67715   0.29541   0.00000  Uiso   1.00
H743   H     0.07270   0.61953   0.20481   0.00000  Uiso   1.00
H744   H     0.36953   0.82274   0.70478   0.00000  Uiso   1.00
H745   H     0.17723   0.86957   0.29528   0.00000  Uiso   1.00
H746   H     0.32294   0.63026   0.70444   0.00000  Uiso   1.00
H747   H     0.22023   0.93462   0.13149   0.00000  Uiso   1.00
H748   H     0.30332   0.94828   0.87084   0.00000  Uiso   1.00
H749   H     0.44824   0.69674   0.12921   0.00000  Uiso   1.00
H750   H     0.43461   0.77976   0.86852   0.00000  Uiso   1.00
H751   H     0.30331   0.55172   0.12917   0.00000  Uiso   1.00
H752   H     0.22023   0.56538   0.86851   0.00000  Uiso   1.00
H753   H     0.06538   0.77978   0.13146   0.00000  Uiso   1.00
H754   H     0.42713   0.88030   0.79546   0.00000  Uiso   1.00
H755   H     0.05169   0.69665   0.87085   0.00000  Uiso   1.00
H756   H     0.47020   0.68463   0.63149   0.00000  Uiso   1.00
H757   H     0.05328   0.69826   0.37083   0.00000  Uiso   1.00
H758   H     0.18743   0.96322   0.62960   0.00000  Uiso   1.00
H759   H     0.18418   0.52784   0.36841   0.00000  Uiso   1.00
H760   H     0.05335   0.80169   0.62915   0.00000  Uiso   1.00
H761   H     0.47025   0.81539   0.36851   0.00000  Uiso   1.00
H762   H     0.31303   0.53641   0.63024   0.00000  Uiso   1.00
H763   H     0.30435   0.95023   0.36925   0.00000  Uiso   1.00
H764   H     0.38037   0.57283   0.20462   0.00000  Uiso   1.00
H765   H     0.11954   0.92725   0.79523   0.00000  Uiso   1.00
H766   H     0.42728   0.88048   0.20479   0.00000  Uiso   1.00
H767   H     0.07287   0.61967   0.79546   0.00000  Uiso   1.00
H768   H     0.11968   0.57286   0.79546   0.00000  Uiso   1.00
O769   O     0.25000   0.50000   0.25000   0.00000  Uiso   1.00
O770   O     0.25000   0.96964   0.66317   0.00000  Uiso   1.00
O771   O     0.46964   0.75000   0.33683   0.00000  Uiso   1.00
O772   O     0.03036   0.75000   0.66317   0.00000  Uiso   1.00
O773   O     0.00000   0.71964   0.83683   0.00000  Uiso   1.00
O774   O     0.00000   0.78036   0.16317   0.00000  Uiso   1.00
O775   O     0.28036   0.50000   0.83683   0.00000  Uiso   1.00
O776   O     0.21964   0.50000   0.16317   0.00000  Uiso   1.00
O777   O     0.00000   0.78036   0.83683   0.00000  Uiso   1.00
O778   O     0.00000   0.71964   0.16317   0.00000  Uiso   1.00
O779   O     0.21964   0.50000   0.83683   0.00000  Uiso   1.00
O780   O     0.25000   0.50000   0.75000   0.00000  Uiso   1.00
O781   O     0.28036   0.50000   0.16317   0.00000  Uiso   1.00
O782   O     0.20725   0.57307   0.27282   0.00000  Uiso   1.00
O783   O     0.29274   0.92693   0.72718   0.00000  Uiso   1.00
O784   O     0.42693   0.70726   0.27282   0.00000  Uiso   1.00
O785   O     0.07307   0.79274   0.72718   0.00000  Uiso   1.00
O786   O     0.29274   0.92693   0.27282   0.00000  Uiso   1.00
O787   O     0.20725   0.57307   0.72718   0.00000  Uiso   1.00
O788   O     0.07307   0.79274   0.27282   0.00000  Uiso   1.00
O789   O     0.42693   0.70726   0.72718   0.00000  Uiso   1.00
O790   O     0.20725   0.92693   0.72718   0.00000  Uiso   1.00
O791   O    -0.00000   0.75000   0.25000   0.00000  Uiso   1.00
O792   O     0.29274   0.57307   0.27282   0.00000  Uiso   1.00
O793   O     0.42693   0.79275   0.72718   0.00000  Uiso   1.00
O794   O     0.07307   0.70725   0.27282   0.00000  Uiso   1.00
O795   O     0.29274   0.57307   0.72718   0.00000  Uiso   1.00
O796   O     0.20725   0.92693   0.27282   0.00000  Uiso   1.00
O797   O     0.07307   0.70725   0.72718   0.00000  Uiso   1.00
O798   O     0.42693   0.79275   0.27282   0.00000  Uiso   1.00
O799   O     0.45725   0.82307   0.77282   0.00000  Uiso   1.00
O800   O     0.04274   0.67693   0.22718   0.00000  Uiso   1.00
O801   O     0.17693   0.95725   0.77282   0.00000  Uiso   1.00
O802   O     0.00000   0.75000   0.75000   0.00000  Uiso   1.00
O803   O     0.32307   0.54275   0.22718   0.00000  Uiso   1.00
O804   O     0.04274   0.67693   0.77282   0.00000  Uiso   1.00
O805   O     0.45725   0.82307   0.22718   0.00000  Uiso   1.00
O806   O     0.32307   0.54275   0.77282   0.00000  Uiso   1.00
O807   O     0.17693   0.95725   0.22718   0.00000  Uiso   1.00
O808   O     0.45725   0.67693   0.22718   0.00000  Uiso   1.00
O809   O     0.04274   0.82307   0.77282   0.00000  Uiso   1.00
O810   O     0.17693   0.54275   0.22718   0.00000  Uiso   1.00
O811   O     0.32307   0.95725   0.77282   0.00000  Uiso   1.00
O812   O     0.04274   0.82307   0.22718   0.00000  Uiso   1.00
O813   O     0.25000   0.96964   0.33683   0.00000  Uiso   1.00
O814   O     0.45725   0.67693   0.77282   0.00000  Uiso   1.00
O815   O     0.32307   0.95725   0.22718   0.00000  Uiso   1.00
O816   O     0.17693   0.54275   0.77282   0.00000  Uiso   1.00
O817   O     0.17901   0.93364   0.09441   0.00000  Uiso   1.00
O818   O     0.28932   0.91220   0.91054   0.00000  Uiso   1.00
O819   O     0.41218   0.71072   0.08949   0.00000  Uiso   1.00
O820   O     0.43364   0.82099   0.90558   0.00000  Uiso   1.00
O821   O     0.28931   0.58780   0.08946   0.00000  Uiso   1.00
O822   O     0.17900   0.56635   0.90559   0.00000  Uiso   1.00
O823   O     0.06636   0.82100   0.09437   0.00000  Uiso   1.00
O824   O     0.25000   0.53036   0.66317   0.00000  Uiso   1.00
O825   O     0.08778   0.71066   0.91053   0.00000  Uiso   1.00
O826   O     0.42897   0.68368   0.59441   0.00000  Uiso   1.00
O827   O     0.03929   0.66219   0.41054   0.00000  Uiso   1.00
O828   O     0.19215   0.92274   0.59189   0.00000  Uiso   1.00
O829   O     0.18109   0.56807   0.40655   0.00000  Uiso   1.00
O830   O     0.03934   0.83778   0.58946   0.00000  Uiso   1.00
O831   O     0.42903   0.81638   0.40559   0.00000  Uiso   1.00
O832   O     0.30840   0.57760   0.59336   0.00000  Uiso   1.00
O833   O     0.33950   0.96315   0.41023   0.00000  Uiso   1.00
O834   O     0.03036   0.75000   0.33683   0.00000  Uiso   1.00
O835   O     0.46964   0.75000   0.66317   0.00000  Uiso   1.00
O836   O     0.25000   0.53036   0.33683   0.00000  Uiso   1.00
Zn837  Zn    0.20660   0.50000   0.21760   0.00000  Uiso   1.00
Zn838  Zn    0.04340   0.75000   0.28240   0.00000  Uiso   1.00
Zn839  Zn    0.25000   0.95660   0.71760   0.00000  Uiso   1.00
Zn840  Zn    0.25000   0.54340   0.28240   0.00000  Uiso   1.00
Zn841  Zn    0.04340   0.75000   0.71760   0.00000  Uiso   1.00
Zn842  Zn    0.45660   0.75000   0.28240   0.00000  Uiso   1.00
Zn843  Zn    0.25000   0.54340   0.71760   0.00000  Uiso   1.00
Zn844  Zn    0.25000   0.95660   0.28240   0.00000  Uiso   1.00
Zn845  Zn    0.29340   0.50000   0.78240   0.00000  Uiso   1.00
Zn846  Zn   -0.00000   0.70660   0.21760   0.00000  Uiso   1.00
Zn847  Zn    0.00000   0.79340   0.78240   0.00000  Uiso   1.00
Zn848  Zn    0.29340   0.50000   0.21760   0.00000  Uiso   1.00
Zn849  Zn    0.20660   0.50000   0.78240   0.00000  Uiso   1.00
Zn850  Zn    0.00000   0.79340   0.21760   0.00000  Uiso   1.00
Zn851  Zn    0.00000   0.70660   0.78240   0.00000  Uiso   1.00
Zn852  Zn    0.45660   0.75000   0.71760   0.00000  Uiso   1.00
C853   C     0.72685   0.97466   0.04181   0.00000  Uiso   1.00
C854   C     0.51931   0.72395   0.45921   0.00000  Uiso   1.00
C855   C     0.84809   0.90181   0.75009   0.00000  Uiso   1.00
C856   C     0.90182   0.65191   0.24992   0.00000  Uiso   1.00
C857   C     0.59809   0.84818   0.74992   0.00000  Uiso   1.00
C858   C     0.84819   0.90191   0.25008   0.00000  Uiso   1.00
C859   C     0.65191   0.59819   0.75008   0.00000  Uiso   1.00
C860   C     0.59819   0.65191   0.75008   0.00000  Uiso   1.00
C861   C     0.90191   0.84819   0.25008   0.00000  Uiso   1.00
C862   C     0.65181   0.90191   0.74992   0.00000  Uiso   1.00
C863   C     0.84809   0.59818   0.24992   0.00000  Uiso   1.00
C864   C     0.90181   0.84809   0.75008   0.00000  Uiso   1.00
C865   C     0.72670   0.97701   0.54091   0.00000  Uiso   1.00
C866   C     0.59809   0.65182   0.25008   0.00000  Uiso   1.00
C867   C     0.84819   0.59809   0.74991   0.00000  Uiso   1.00
C868   C     0.65191   0.90181   0.24991   0.00000  Uiso   1.00
C869   C     0.74991   0.50003   0.10232   0.00000  Uiso   1.00
C870   C     0.74991   0.99997   0.89768   0.00000  Uiso   1.00
C871   C     0.99996   0.75010   0.10232   0.00000  Uiso   1.00
C872   C     0.50002   0.75007   0.89768   0.00000  Uiso   1.00
C873   C     0.99991   0.75003   0.60232   0.00000  Uiso   1.00
C874   C     0.99991   0.74997   0.39768   0.00000  Uiso   1.00
C875   C     0.75016   0.50016   0.60220   0.00000  Uiso   1.00
C876   C     0.72392   0.52111   0.45835   0.00000  Uiso   1.00
C877   C     0.75028   0.99993   0.39760   0.00000  Uiso   1.00
C878   C     0.70867   0.94510   0.10478   0.00000  Uiso   1.00
C879   C     0.78933   0.94329   0.89790   0.00000  Uiso   1.00
C880   C     0.94326   0.71071   0.10214   0.00000  Uiso   1.00
C881   C     0.94509   0.79132   0.89522   0.00000  Uiso   1.00
C882   C     0.78932   0.55672   0.10210   0.00000  Uiso   1.00
C883   C     0.70867   0.55490   0.89522   0.00000  Uiso   1.00
C884   C     0.55490   0.79133   0.10475   0.00000  Uiso   1.00
C885   C     0.55669   0.71065   0.89790   0.00000  Uiso   1.00
C886   C     0.95865   0.69512   0.60478   0.00000  Uiso   1.00
C887   C     0.51933   0.77603   0.54078   0.00000  Uiso   1.00
C888   C     0.53930   0.69327   0.39789   0.00000  Uiso   1.00
C889   C     0.69973   0.95340   0.60299   0.00000  Uiso   1.00
C890   C     0.69391   0.53917   0.39554   0.00000  Uiso   1.00
C891   C     0.53935   0.80669   0.60210   0.00000  Uiso   1.00
C892   C     0.95869   0.80491   0.39522   0.00000  Uiso   1.00
C893   C     0.80074   0.54676   0.60384   0.00000  Uiso   1.00
C894   C     0.80859   0.96302   0.39712   0.00000  Uiso   1.00
C895   C     0.97686   0.77534   0.45819   0.00000  Uiso   1.00
C896   C     0.77362   0.52440   0.54136   0.00000  Uiso   1.00
C897   C     0.77712   0.98093   0.45885   0.00000  Uiso   1.00
C898   C     0.72832   0.97389   0.08254   0.00000  Uiso   1.00
C899   C     0.76963   0.97308   0.91852   0.00000  Uiso   1.00
C900   C     0.97306   0.73039   0.08150   0.00000  Uiso   1.00
C901   C     0.76932   0.97396   0.95921   0.00000  Uiso   1.00
C902   C     0.97388   0.77167   0.91746   0.00000  Uiso   1.00
C903   C     0.76963   0.52692   0.08148   0.00000  Uiso   1.00
C904   C     0.72832   0.52611   0.91746   0.00000  Uiso   1.00
C905   C     0.52611   0.77169   0.08253   0.00000  Uiso   1.00
C906   C     0.52691   0.73035   0.91852   0.00000  Uiso   1.00
C907   C     0.97831   0.72390   0.58254   0.00000  Uiso   1.00
C908   C     0.51962   0.72307   0.41851   0.00000  Uiso   1.00
C909   C     0.72628   0.97669   0.58165   0.00000  Uiso   1.00
C910   C     0.72329   0.52023   0.41761   0.00000  Uiso   1.00
C911   C     0.51964   0.77691   0.58148   0.00000  Uiso   1.00
C912   C     0.97395   0.73070   0.04080   0.00000  Uiso   1.00
C913   C     0.97833   0.77612   0.41746   0.00000  Uiso   1.00
C914   C     0.77408   0.52395   0.58208   0.00000  Uiso   1.00
C915   C     0.77801   0.98113   0.41814   0.00000  Uiso   1.00
C916   C     0.74772   0.50031   0.02129   0.00000  Uiso   1.00
C917   C     0.74772   0.99969   0.97871   0.00000  Uiso   1.00
C918   C     0.99968   0.75228   0.02129   0.00000  Uiso   1.00
C919   C     0.50030   0.75227   0.97871   0.00000  Uiso   1.00
C920   C     0.99772   0.75031   0.52129   0.00000  Uiso   1.00
C921   C     0.99772   0.74969   0.47871   0.00000  Uiso   1.00
C922   C     0.75012   0.50093   0.52115   0.00000  Uiso   1.00
C923   C     0.97466   0.77314   0.95818   0.00000  Uiso   1.00
C924   C     0.75041   0.50108   0.47859   0.00000  Uiso   1.00
C925   C     0.75043   0.99997   0.35511   0.00000  Uiso   1.00
C926   C     0.75002   0.50002   0.64482   0.00000  Uiso   1.00
C927   C     0.50002   0.74961   0.35515   0.00000  Uiso   1.00
C928   C     0.50002   0.75039   0.64485   0.00000  Uiso   1.00
C929   C     0.50039   0.74998   0.85515   0.00000  Uiso   1.00
C930   C     0.99961   0.74999   0.14485   0.00000  Uiso   1.00
C931   C     0.75002   0.99961   0.85515   0.00000  Uiso   1.00
C932   C     0.75002   0.50039   0.14485   0.00000  Uiso   1.00
C933   C     0.67991   0.57006   0.25002   0.00000  Uiso   1.00
C934   C     0.76931   0.52604   0.04078   0.00000  Uiso   1.00
C935   C     0.82006   0.92991   0.75003   0.00000  Uiso   1.00
C936   C     0.92991   0.67994   0.24998   0.00000  Uiso   1.00
C937   C     0.57006   0.82009   0.74998   0.00000  Uiso   1.00
C938   C     0.82009   0.92994   0.25003   0.00000  Uiso   1.00
C939   C     0.67994   0.57009   0.75002   0.00000  Uiso   1.00
C940   C     0.57009   0.82006   0.24997   0.00000  Uiso   1.00
C941   C     0.92994   0.67991   0.74998   0.00000  Uiso   1.00
C942   C     0.67991   0.92994   0.74998   0.00000  Uiso   1.00
C943   C     0.82006   0.57009   0.24998   0.00000  Uiso   1.00
C944   C     0.92991   0.82006   0.75002   0.00000  Uiso   1.00
C945   C     0.72685   0.52533   0.95819   0.00000  Uiso   1.00
C946   C     0.57006   0.67991   0.25003   0.00000  Uiso   1.00
C947   C     0.82009   0.57006   0.74997   0.00000  Uiso   1.00
C948   C     0.67994   0.92991   0.24998   0.00000  Uiso   1.00
C949   C     0.57009   0.67994   0.75003   0.00000  Uiso   1.00
C950   C     0.92994   0.82009   0.25002   0.00000  Uiso   1.00
C951   C     0.62229   0.90444   0.22442   0.00000  Uiso   1.00
C952   C     0.87784   0.59544   0.77537   0.00000  Uiso   1.00
C953   C     0.59539   0.62212   0.22470   0.00000  Uiso   1.00
C954   C     0.90446   0.87773   0.77554   0.00000  Uiso   1.00
C955   C     0.87777   0.59551   0.22450   0.00000  Uiso   1.00
C956   C     0.52533   0.77315   0.04180   0.00000  Uiso   1.00
C957   C     0.62213   0.90458   0.77533   0.00000  Uiso   1.00
C958   C     0.90460   0.87788   0.22468   0.00000  Uiso   1.00
C959   C     0.59554   0.62225   0.77554   0.00000  Uiso   1.00
C960   C     0.62226   0.59553   0.77554   0.00000  Uiso   1.00
C961   C     0.87787   0.90460   0.22468   0.00000  Uiso   1.00
C962   C     0.59541   0.87786   0.77533   0.00000  Uiso   1.00
C963   C     0.90449   0.62224   0.22450   0.00000  Uiso   1.00
C964   C     0.87774   0.90446   0.77554   0.00000  Uiso   1.00
C965   C     0.62211   0.59540   0.22470   0.00000  Uiso   1.00
C966   C     0.90456   0.62216   0.77537   0.00000  Uiso   1.00
C967   C     0.52603   0.73067   0.95922   0.00000  Uiso   1.00
C968   C     0.59556   0.87772   0.22441   0.00000  Uiso   1.00
C969   C     0.87230   0.65443   0.72440   0.00000  Uiso   1.00
C970   C     0.62785   0.84542   0.27535   0.00000  Uiso   1.00
C971   C     0.84541   0.87214   0.72468   0.00000  Uiso   1.00
C972   C     0.65448   0.62775   0.27552   0.00000  Uiso   1.00
C973   C     0.62774   0.84554   0.72446   0.00000  Uiso   1.00
C974   C     0.87211   0.65461   0.27529   0.00000  Uiso   1.00
C975   C     0.65459   0.62788   0.72468   0.00000  Uiso   1.00
C976   C     0.84553   0.87225   0.27554   0.00000  Uiso   1.00
C977   C     0.87226   0.84553   0.27554   0.00000  Uiso   1.00
C978   C     0.97684   0.72467   0.54181   0.00000  Uiso   1.00
C979   C     0.62787   0.65460   0.72468   0.00000  Uiso   1.00
C980   C     0.84539   0.62788   0.27529   0.00000  Uiso   1.00
C981   C     0.65446   0.87227   0.72446   0.00000  Uiso   1.00
C982   C     0.62776   0.65447   0.27552   0.00000  Uiso   1.00
C983   C     0.87213   0.84541   0.72468   0.00000  Uiso   1.00
C984   C     0.65457   0.87214   0.27535   0.00000  Uiso   1.00
C985   C     0.84558   0.62770   0.72440   0.00000  Uiso   1.00
C986   C     0.59819   0.84809   0.24991   0.00000  Uiso   1.00
C987   C     0.90191   0.65181   0.74991   0.00000  Uiso   1.00
C988   C     0.65181   0.59809   0.25008   0.00000  Uiso   1.00
Cl989  Cl    0.70065   0.94238   0.01557   0.00000  Uiso   1.00
Cl990  Cl    0.54759   0.69425   0.48648   0.00000  Uiso   1.00
Cl991  Cl    0.69689   0.94876   0.51377   0.00000  Uiso   1.00
Cl992  Cl    0.69047   0.54545   0.48497   0.00000  Uiso   1.00
Cl993  Cl    0.54764   0.80571   0.51352   0.00000  Uiso   1.00
Cl994  Cl    0.95067   0.80763   0.48443   0.00000  Uiso   1.00
Cl995  Cl    0.80364   0.55292   0.51477   0.00000  Uiso   1.00
Cl996  Cl    0.80818   0.95394   0.48588   0.00000  Uiso   1.00
Cl997  Cl    0.79762   0.94427   0.98648   0.00000  Uiso   1.00
Cl998  Cl    0.94425   0.70240   0.01355   0.00000  Uiso   1.00
Cl999  Cl    0.94238   0.79935   0.98443   0.00000  Uiso   1.00
Cl1000 Cl    0.79761   0.55573   0.01352   0.00000  Uiso   1.00
Cl1001 Cl    0.70065   0.55761   0.98443   0.00000  Uiso   1.00
Cl1002 Cl    0.55762   0.79934   0.01553   0.00000  Uiso   1.00
Cl1003 Cl    0.55572   0.70238   0.98649   0.00000  Uiso   1.00
Cl1004 Cl    0.95062   0.69240   0.51557   0.00000  Uiso   1.00
H1005  H     0.61973   0.92709   0.20447   0.00000  Uiso   1.00
H1006  H     0.88047   0.92729   0.20479   0.00000  Uiso   1.00
H1007  H     0.57274   0.88044   0.79523   0.00000  Uiso   1.00
H1008  H     0.92718   0.61965   0.20462   0.00000  Uiso   1.00
H1009  H     0.88032   0.92712   0.79545   0.00000  Uiso   1.00
H1010  H     0.61951   0.57272   0.20481   0.00000  Uiso   1.00
H1011  H     0.92720   0.61959   0.79531   0.00000  Uiso   1.00
H1012  H     0.57292   0.88028   0.20447   0.00000  Uiso   1.00
H1013  H     0.86975   0.67707   0.70444   0.00000  Uiso   1.00
H1014  H     0.63042   0.82276   0.29528   0.00000  Uiso   1.00
H1015  H     0.82273   0.86955   0.70478   0.00000  Uiso   1.00
H1016  H     0.88040   0.57279   0.79531   0.00000  Uiso   1.00
H1017  H     0.67716   0.63033   0.29541   0.00000  Uiso   1.00
H1018  H     0.63032   0.82288   0.70454   0.00000  Uiso   1.00
H1019  H     0.86950   0.67730   0.29517   0.00000  Uiso   1.00
H1020  H     0.67727   0.63047   0.70478   0.00000  Uiso   1.00
H1021  H     0.82286   0.86966   0.29544   0.00000  Uiso   1.00
H1022  H     0.86968   0.82285   0.29545   0.00000  Uiso   1.00
H1023  H     0.63046   0.67728   0.70478   0.00000  Uiso   1.00
H1024  H     0.82269   0.63049   0.29517   0.00000  Uiso   1.00
H1025  H     0.67713   0.86970   0.70454   0.00000  Uiso   1.00
H1026  H     0.63035   0.67715   0.29541   0.00000  Uiso   1.00
H1027  H     0.57270   0.61953   0.20481   0.00000  Uiso   1.00
H1028  H     0.86953   0.82274   0.70478   0.00000  Uiso   1.00
H1029  H     0.67723   0.86957   0.29528   0.00000  Uiso   1.00
H1030  H     0.82294   0.63026   0.70444   0.00000  Uiso   1.00
H1031  H     0.72023   0.93462   0.13149   0.00000  Uiso   1.00
H1032  H     0.80332   0.94828   0.87084   0.00000  Uiso   1.00
H1033  H     0.94824   0.69674   0.12921   0.00000  Uiso   1.00
H1034  H     0.93461   0.77976   0.86852   0.00000  Uiso   1.00
H1035  H     0.80331   0.55172   0.12917   0.00000  Uiso   1.00
H1036  H     0.72023   0.56538   0.86851   0.00000  Uiso   1.00
H1037  H     0.56538   0.77978   0.13146   0.00000  Uiso   1.00
H1038  H     0.92713   0.88030   0.79546   0.00000  Uiso   1.00
H1039  H     0.55169   0.69665   0.87085   0.00000  Uiso   1.00
H1040  H     0.97020   0.68463   0.63149   0.00000  Uiso   1.00
H1041  H     0.55328   0.69826   0.37083   0.00000  Uiso   1.00
H1042  H     0.68743   0.96322   0.62960   0.00000  Uiso   1.00
H1043  H     0.68418   0.52784   0.36841   0.00000  Uiso   1.00
H1044  H     0.55335   0.80169   0.62915   0.00000  Uiso   1.00
H1045  H     0.97025   0.81539   0.36851   0.00000  Uiso   1.00
H1046  H     0.81303   0.53641   0.63024   0.00000  Uiso   1.00
H1047  H     0.80435   0.95023   0.36925   0.00000  Uiso   1.00
H1048  H     0.88037   0.57283   0.20462   0.00000  Uiso   1.00
H1049  H     0.61954   0.92725   0.79523   0.00000  Uiso   1.00
H1050  H     0.92728   0.88048   0.20479   0.00000  Uiso   1.00
H1051  H     0.57287   0.61967   0.79546   0.00000  Uiso   1.00
H1052  H     0.61968   0.57286   0.79546   0.00000  Uiso   1.00
O1053  O     0.75000   0.50000   0.25000   0.00000  Uiso   1.00
O1054  O     0.75000   0.96964   0.66317   0.00000  Uiso   1.00
O1055  O     0.96964   0.75000   0.33683   0.00000  Uiso   1.00
O1056  O     0.53036   0.75000   0.66317   0.00000  Uiso   1.00
O1057  O     0.50000   0.71964   0.83683   0.00000  Uiso   1.00
O1058  O     0.50000   0.78036   0.16317   0.00000  Uiso   1.00
O1059  O     0.78036   0.50000   0.83683   0.00000  Uiso   1.00
O1060  O     0.71964   0.50000   0.16317   0.00000  Uiso   1.00
O1061  O     0.50000   0.78036   0.83683   0.00000  Uiso   1.00
O1062  O     0.50000   0.71964   0.16317   0.00000  Uiso   1.00
O1063  O     0.71964   0.50000   0.83683   0.00000  Uiso   1.00
O1064  O     0.75000   0.50000   0.75000   0.00000  Uiso   1.00
O1065  O     0.78036   0.50000   0.16317   0.00000  Uiso   1.00
O1066  O     0.70725   0.57307   0.27282   0.00000  Uiso   1.00
O1067  O     0.79274   0.92693   0.72718   0.00000  Uiso   1.00
O1068  O     0.92693   0.70726   0.27282   0.00000  Uiso   1.00
O1069  O     0.57307   0.79274   0.72718   0.00000  Uiso   1.00
O1070  O     0.79274   0.92693   0.27282   0.00000  Uiso   1.00
O1071  O     0.70725   0.57307   0.72718   0.00000  Uiso   1.00
O1072  O     0.57307   0.79274   0.27282   0.00000  Uiso   1.00
O1073  O     0.92693   0.70726   0.72718   0.00000  Uiso   1.00
O1074  O     0.70725   0.92693   0.72718   0.00000  Uiso   1.00
O1075  O     0.50000   0.75000   0.25000   0.00000  Uiso   1.00
O1076  O     0.79274   0.57307   0.27282   0.00000  Uiso   1.00
O1077  O     0.92693   0.79275   0.72718   0.00000  Uiso   1.00
O1078  O     0.57307   0.70725   0.27282   0.00000  Uiso   1.00
O1079  O     0.79274   0.57307   0.72718   0.00000  Uiso   1.00
O1080  O     0.70725   0.92693   0.27282   0.00000  Uiso   1.00
O1081  O     0.57307   0.70725   0.72718   0.00000  Uiso   1.00
O1082  O     0.92693   0.79275   0.27282   0.00000  Uiso   1.00
O1083  O     0.95725   0.82307   0.77282   0.00000  Uiso   1.00
O1084  O     0.54274   0.67693   0.22718   0.00000  Uiso   1.00
O1085  O     0.67693   0.95725   0.77282   0.00000  Uiso   1.00
O1086  O     0.50000   0.75000   0.75000   0.00000  Uiso   1.00
O1087  O     0.82307   0.54275   0.22718   0.00000  Uiso   1.00
O1088  O     0.54274   0.67693   0.77282   0.00000  Uiso   1.00
O1089  O     0.95725   0.82307   0.22718   0.00000  Uiso   1.00
O1090  O     0.82307   0.54275   0.77282   0.00000  Uiso   1.00
O1091  O     0.67693   0.95725   0.22718   0.00000  Uiso   1.00
O1092  O     0.95725   0.67693   0.22718   0.00000  Uiso   1.00
O1093  O     0.54274   0.82307   0.77282   0.00000  Uiso   1.00
O1094  O     0.67693   0.54275   0.22718   0.00000  Uiso   1.00
O1095  O     0.82307   0.95725   0.77282   0.00000  Uiso   1.00
O1096  O     0.54274   0.82307   0.22718   0.00000  Uiso   1.00
O1097  O     0.75000   0.96964   0.33683   0.00000  Uiso   1.00
O1098  O     0.95725   0.67693   0.77282   0.00000  Uiso   1.00
O1099  O     0.82307   0.95725   0.22718   0.00000  Uiso   1.00
O1100  O     0.67693   0.54275   0.77282   0.00000  Uiso   1.00
O1101  O     0.67901   0.93364   0.09441   0.00000  Uiso   1.00
O1102  O     0.78932   0.91220   0.91054   0.00000  Uiso   1.00
O1103  O     0.91218   0.71072   0.08949   0.00000  Uiso   1.00
O1104  O     0.93364   0.82099   0.90558   0.00000  Uiso   1.00
O1105  O     0.78931   0.58780   0.08946   0.00000  Uiso   1.00
O1106  O     0.67900   0.56635   0.90559   0.00000  Uiso   1.00
O1107  O     0.56636   0.82100   0.09437   0.00000  Uiso   1.00
O1108  O     0.75000   0.53036   0.66317   0.00000  Uiso   1.00
O1109  O     0.58778   0.71066   0.91053   0.00000  Uiso   1.00
O1110  O     0.92897   0.68368   0.59441   0.00000  Uiso   1.00
O1111  O     0.53929   0.66219   0.41054   0.00000  Uiso   1.00
O1112  O     0.69215   0.92274   0.59189   0.00000  Uiso   1.00
O1113  O     0.68109   0.56807   0.40655   0.00000  Uiso   1.00
O1114  O     0.53934   0.83778   0.58946   0.00000  Uiso   1.00
O1115  O     0.92903   0.81638   0.40559   0.00000  Uiso   1.00
O1116  O     0.80840   0.57760   0.59336   0.00000  Uiso   1.00
O1117  O     0.83950   0.96315   0.41023   0.00000  Uiso   1.00
O1118  O     0.53036   0.75000   0.33683   0.00000  Uiso   1.00
O1119  O     0.96964   0.75000   0.66317   0.00000  Uiso   1.00
O1120  O     0.75000   0.53036   0.33683   0.00000  Uiso   1.00
Zn1121 Zn    0.70660   0.50000   0.21760   0.00000  Uiso   1.00
Zn1122 Zn    0.54340   0.75000   0.28240   0.00000  Uiso   1.00
Zn1123 Zn    0.75000   0.95660   0.71760   0.00000  Uiso   1.00
Zn1124 Zn    0.75000   0.54340   0.28240   0.00000  Uiso   1.00
Zn1125 Zn    0.54340   0.75000   0.71760   0.00000  Uiso   1.00
Zn1126 Zn    0.95660   0.75000   0.28240   0.00000  Uiso   1.00
Zn1127 Zn    0.75000   0.54340   0.71760   0.00000  Uiso   1.00
Zn1128 Zn    0.75000   0.95660   0.28240   0.00000  Uiso   1.00
Zn1129 Zn    0.79340   0.50000   0.78240   0.00000  Uiso   1.00
Zn1130 Zn    0.50000   0.70660   0.21760   0.00000  Uiso   1.00
Zn1131 Zn    0.50000   0.79340   0.78240   0.00000  Uiso   1.00
Zn1132 Zn    0.79340   0.50000   0.21760   0.00000  Uiso   1.00
Zn1133 Zn    0.70660   0.50000   0.78240   0.00000  Uiso   1.00
Zn1134 Zn    0.50000   0.79340   0.21760   0.00000  Uiso   1.00
Zn1135 Zn    0.50000   0.70660   0.78240   0.00000  Uiso   1.00
Zn1136 Zn    0.95660   0.75000   0.71760   0.00000  Uiso   1.00
loop_
_geom_bond_atom_site_label_1
_geom_bond_atom_site_label_2
_geom_bond_distance
_geom_bond_site_symmetry_2
_ccdc_geom_bond_type
C1     C46     1.408   .     A
C1     Cl137   1.774   .     S
C1     C632    1.405   .     S
C2     Cl138   1.775   .     S
C2     C56     1.406   .     A
C2     C353    1.404   1_455 S
C3     C112    1.402   .     A
C3     C119    1.402   .     A
C3     C83     1.456   .     S
C4     C84     1.456   .     S
C4     C111    1.402   .     A
C4     C122    1.402   .     A
C5     C110    1.402   .     A
C5     C85     1.456   .     S
C5     C121    1.402   .     A
C6     C124    1.402   .     A
C6     C109    1.402   .     A
C6     C86     1.456   .     S
C7     C87     1.456   .     S
C7     C123    1.402   .     A
C7     C108    1.402   .     A
C8     C127    1.402   .     A
C8     C107    1.402   .     A
C8     C97     1.456   .     S
C9     C106    1.402   .     A
C9     C125    1.402   .     A
C9     C98     1.456   .     S
C10    C129    1.402   .     A
C10    C105    1.402   .     A
C10    C90     1.456   .     S
C11    C103    1.402   .     A
C11    C128    1.402   .     A
C11    C91     1.456   .     S
C12    C131    1.402   .     A
C12    C102    1.402   .     A
C12    C92     1.456   .     S
C13    Cl139   1.774   .     S
C13    C57     1.407   .     A
C13    C638    1.405   .     S
C14    C101    1.402   .     A
C14    C130    1.402   .     A
C14    C94     1.456   .     S
C15    C100    1.402   .     A
C15    C133    1.402   .     A
C15    C95     1.456   .     S
C16    C96     1.456   .     S
C16    C99     1.402   .     A
C16    C132    1.402   .     A
C17    C80     1.469   .     S
C17    C51     1.419   .     A
C17    C614    1.419   1_545 S
C18    C47     1.419   .     A
C18    C79     1.469   .     S
C18    C620    1.419   .     S
C19    C48     1.419   .     A
C19    C78     1.469   .     S
C19    C337    1.419   .     S
C20    C54     1.419   .     A
C20    C77     1.469   .     S
C20    C334    1.419   1_455 S
C21    C55     1.419   .     A
C21    C343    1.419   .     S
C21    C360    1.469   .     S
C22    C61     1.419   .     A
C22    C340    1.419   .     S
C22    C359    1.469   .     S
C23    C62     1.419   .     A
C23    C74     1.471   .     S
C23    C625    1.419   1_545 S
C24    Cl140   1.774   .     S
C24    C72     1.405   .     A
C24    C58     1.407   .     A
C25    C63     1.419   .     A
C25    C73     1.467   .     S
C25    C626    1.418   .     S
C26    H179    1.085   .     S
C26    O249    1.221   .     D
C26    C46     1.491   .     S
C27    O250    1.221   .     D
C27    H180    1.082   .     S
C27    C47     1.491   .     S
C28    H181    1.082   .     S
C28    C48     1.491   .     S
C28    O251    1.221   .     D
C29    C50     1.491   .     S
C29    O252    1.221   .     D
C29    H182    1.085   .     S
C30    H183    1.082   .     S
C30    C51     1.491   .     S
C30    O253    1.221   .     D
C31    H184    1.085   .     S
C31    O254    1.221   .     D
C31    C52     1.491   .     S
C32    H185    1.085   .     S
C32    C53     1.491   .     S
C32    O255    1.221   .     D
C33    H187    1.082   .     S
C33    O257    1.221   .     D
C33    C54     1.491   .     S
C34    O258    1.220   .     D
C34    C55     1.491   .     S
C34    H188    1.085   .     S
C35    C59     1.406   .     A
C35    Cl141   1.775   .     S
C35    C352    1.404   1_455 S
C36    O259    1.221   .     D
C36    H189    1.082   .     S
C36    C56     1.491   .     S
C37    O260    1.221   .     D
C37    H190    1.085   .     S
C37    C57     1.490   .     S
C38    C58     1.491   .     S
C38    O261    1.221   .     D
C38    H191    1.085   .     S
C39    C59     1.491   .     S
C39    O262    1.221   .     D
C39    H192    1.082   .     S
C40    O263    1.221   .     D
C40    H193    1.085   .     S
C40    C61     1.491   .     S
C41    C62     1.490   .     S
C41    H194    1.085   .     S
C41    O264    1.221   .     D
C42    O265    1.221   .     D
C42    H195    1.082   .     S
C42    C63     1.492   .     S
C43    C69     1.405   .     A
C43    C61     1.408   .     A
C43    Cl142   1.774   .     S
C44    Cl143   1.775   .     S
C44    C70     1.404   .     A
C44    C62     1.406   .     A
C45    Cl144   1.775   .     S
C45    C63     1.406   .     A
C45    C640    1.404   .     S
C46    C585    1.419   .     S
C47    C49     1.406   .     A
C48    C60     1.406   .     A
C49    C65     1.404   .     A
C49    Cl145   1.775   .     S
C50    C71     1.408   .     A
C50    C304    1.419   .     S
C51    C82     1.406   .     A
C52    C93     1.408   .     A
C52    C586    1.419   1_545 S
C53    C104    1.408   .     A
C53    C303    1.419   1_455 S
C54    C115    1.406   .     A
C55    C126    1.408   .     A
C56    C306    1.419   1_455 S
C57    C591    1.419   .     S
C58    C593    1.418   1_545 S
C59    C305    1.419   1_455 S
C60    C66     1.404   .     A
C60    Cl146   1.775   .     S
C64    C82     1.404   .     A
C64    C569    1.405   1_545 S
C64    C633    1.471   1_544 S
C65    C632    1.471   1_556 S
C65    C661    1.405   .     S
C66    C351    1.471   1_554 S
C66    C388    1.405   .     S
C67    C115    1.404   .     A
C67    C350    1.471   1_456 S
C67    C355    1.405   1_455 S
C68    C69     1.471   .     S
C68    C126    1.405   .     A
C68    C319    1.404   .     S
C69    C286    1.404   .     S
C70    C72     1.470   .     S
C70    C581    1.405   1_545 S
C71    Cl147   1.774   .     S
C71    C351    1.405   .     S
C72    C613    1.404   1_545 S
C73    O245    1.279   .     A
C73    O836    1.281   .     S
C74    O256    1.281   .     A
C74    O770    1.282   1_545 S
C75    O266    1.280   .     A
C75    C306    1.469   1_455 S
C75    O487    1.281   1_455 S
C76    O204    1.280   .     A
C76    C305    1.469   1_455 S
C76    O551    1.281   1_455 S
C77    O209    1.281   .     A
C77    O205    1.280   .     A
C78    O490    1.281   .     S
C78    O494    1.280   .     S
C79    O775    1.280   .     S
C79    O779    1.281   .     S
C80    O208    1.281   .     S
C80    O213    1.280   .     S
C81    O242    1.280   .     A
C81    O214    1.280   .     A
C81    C136    1.456   .     S
C82    Cl148   1.775   .     S
C83    O243    1.280   .     A
C83    O215    1.280   .     A
C84    O240    1.280   .     A
C84    O216    1.280   .     A
C85    O217    1.280   .     A
C85    O241    1.280   .     A
C86    O247    1.280   .     A
C86    O218    1.280   .     A
C87    O248    1.280   .     A
C87    O219    1.280   .     A
C88    O220    1.280   .     A
C88    O244    1.280   .     A
C88    C134    1.456   .     S
C89    C135    1.456   .     S
C89    O221    1.280   .     A
C89    O246    1.280   .     A
C90    O233    1.280   .     A
C90    O222    1.280   .     A
C91    O235    1.280   .     A
C91    O224    1.280   .     A
C92    O231    1.280   .     A
C92    O225    1.280   .     A
C93    Cl149   1.774   .     S
C93    C633    1.405   1_545 S
C94    O232    1.280   .     A
C94    O226    1.280   .     A
C95    O227    1.280   .     A
C95    O238    1.280   .     A
C96    O228    1.280   .     A
C96    O239    1.280   .     A
C97    O229    1.280   .     A
C97    O236    1.280   .     A
C98    O230    1.280   .     A
C98    O237    1.280   .     A
C99    C116    1.386   .     A
C99    H153    1.083   .     S
C100   C114    1.386   .     A
C100   H164    1.083   .     S
C101   C113    1.386   .     A
C101   H175    1.083   .     S
C102   H186    1.083   .     S
C102   C112    1.386   .     A
C103   C111    1.386   .     A
C103   H196    1.083   .     S
C104   Cl150   1.774   .     S
C104   C350    1.405   1_455 S
C105   C110    1.386   .     A
C105   H197    1.083   .     S
C106   H198    1.083   .     S
C106   C109    1.386   .     A
C107   H199    1.083   .     S
C107   C108    1.386   .     A
C108   H200    1.083   .     S
C109   H154    1.083   .     S
C110   H155    1.083   .     S
C111   H156    1.083   .     S
C112   H157    1.083   .     S
C113   C136    1.402   .     A
C113   H158    1.083   .     S
C114   C135    1.402   .     A
C114   H159    1.083   .     S
C115   Cl151   1.775   .     S
C116   H160    1.083   .     S
C116   C134    1.402   .     A
C117   C133    1.386   .     A
C117   C135    1.402   .     A
C117   H161    1.083   .     S
C118   H162    1.083   .     S
C118   C134    1.402   .     A
C118   C132    1.386   .     A
C119   C131    1.386   .     A
C119   H163    1.083   .     S
C120   C130    1.386   .     A
C120   H165    1.083   .     S
C120   C136    1.402   .     A
C121   H166    1.083   .     S
C121   C129    1.386   .     A
C122   H167    1.083   .     S
C122   C128    1.386   .     A
C123   C127    1.386   .     A
C123   H168    1.083   .     S
C124   H169    1.083   .     S
C124   C125    1.386   .     A
C125   H170    1.083   .     S
C126   Cl152   1.774   .     S
C127   H171    1.083   .     S
C128   H172    1.083   .     S
C129   H173    1.083   .     S
C130   H174    1.083   .     S
C131   H176    1.083   .     S
C132   H177    1.083   .     S
C133   H178    1.083   .     S
O201   Zn280   1.946   .     S
O201   Zn269   1.946   .     S
O201   Zn272   1.946   .     S
O201   Zn844   1.946   1_545 S
O202   Zn271   1.939   .     S
O202   C642    1.282   .     S
O203   Zn274   1.939   .     S
O203   C359    1.281   .     S
O204   Zn273   1.939   .     S
O205   Zn283   1.939   .     S
O206   Zn282   1.939   .     S
O206   C362    1.281   1_455 S
O207   Zn277   1.939   .     S
O207   C647    1.280   1_545 S
O208   Zn269   1.939   .     S
O209   Zn279   1.939   .     S
O210   C362    1.280   1_455 S
O210   Zn278   1.939   .     S
O211   Zn281   1.939   .     S
O211   C647    1.281   1_545 S
O212   Zn277   1.946   .     S
O212   Zn281   1.946   .     S
O212   Zn275   1.946   .     S
O212   Zn839   1.946   1_545 S
O213   Zn280   1.939   .     S
O214   Zn272   1.937   .     S
O215   Zn271   1.937   .     S
O216   Zn274   1.937   .     S
O217   Zn273   1.937   .     S
O218   Zn276   1.937   .     S
O219   Zn275   1.937   .     S
O220   Zn270   1.937   .     S
O221   Zn284   1.937   .     S
O222   Zn271   1.937   .     S
O223   Zn278   1.946   .     S
O223   Zn558   1.946   1_455 S
O223   Zn270   1.946   .     S
O223   Zn282   1.946   .     S
O224   Zn272   1.937   .     S
O225   Zn284   1.937   .     S
O226   Zn270   1.937   .     S
O227   Zn275   1.937   .     S
O228   Zn276   1.937   .     S
O229   Zn273   1.937   .     S
O230   Zn274   1.937   .     S
O231   Zn563   1.937   .     S
O232   Zn278   1.937   .     S
O233   Zn849   1.937   .     S
O234   Zn273   1.946   .     S
O234   Zn279   1.946   .     S
O234   Zn283   1.946   .     S
O234   Zn568   1.946   1_455 S
O235   Zn280   1.937   .     S
O236   Zn283   1.937   .     S
O237   Zn566   1.937   .     S
O238   Zn277   1.937   .     S
O239   Zn837   1.937   .     S
O240   Zn562   1.937   .     S
O241   Zn279   1.937   .     S
O242   Zn269   1.937   .     S
O243   Zn845   1.937   .     S
O244   Zn282   1.937   .     S
O245   Zn276   1.939   .     S
O246   Zn567   1.937   .     S
O247   Zn848   1.937   .     S
O248   Zn281   1.937   .     S
O256   Zn275   1.939   .     S
O266   Zn270   1.939   .     S
O267   Zn284   1.939   .     S
O267   C360    1.281   .     S
O268   Zn272   1.939   .     S
O268   C641    1.281   1_545 S
Zn269  O807    1.937   1_545 S
Zn271  O780    1.946   .     S
Zn274  O507    1.946   .     S
Zn276  O769    1.946   .     S
Zn277  O811    1.937   1_545 S
Zn278  O524    1.937   1_455 S
Zn279  O515    1.937   1_455 S
Zn280  O815    1.937   1_545 S
Zn281  O801    1.937   1_545 S
Zn282  O521    1.937   1_455 S
Zn283  O530    1.937   1_455 S
Zn284  O518    1.946   .     S
C285   C330    1.408   .     A
C285   Cl421   1.774   .     S
C285   C916    1.405   .     S
C286   Cl422   1.775   .     S
C286   C340    1.406   .     A
C287   C396    1.402   .     A
C287   C403    1.402   .     A
C287   C367    1.456   .     S
C288   C368    1.456   .     S
C288   C395    1.402   .     A
C288   C406    1.402   .     A
C289   C394    1.402   .     A
C289   C369    1.456   .     S
C289   C405    1.402   .     A
C290   C408    1.402   .     A
C290   C393    1.402   .     A
C290   C370    1.456   .     S
C291   C371    1.456   .     S
C291   C407    1.402   .     A
C291   C392    1.402   .     A
C292   C411    1.402   .     A
C292   C391    1.402   .     A
C292   C381    1.456   .     S
C293   C390    1.402   .     A
C293   C409    1.402   .     A
C293   C382    1.456   .     S
C294   C413    1.402   .     A
C294   C389    1.402   .     A
C294   C374    1.456   .     S
C295   C387    1.402   .     A
C295   C412    1.402   .     A
C295   C375    1.456   .     S
C296   C415    1.402   .     A
C296   C386    1.402   .     A
C296   C376    1.456   .     S
C297   Cl423   1.774   .     S
C297   C341    1.407   .     A
C297   C922    1.405   .     S
C298   C385    1.402   .     A
C298   C414    1.402   .     A
C298   C378    1.456   .     S
C299   C384    1.402   .     A
C299   C417    1.402   .     A
C299   C379    1.456   .     S
C300   C380    1.456   .     S
C300   C383    1.402   .     A
C300   C416    1.402   .     A
C301   C364    1.469   .     S
C301   C335    1.419   .     A
C301   C898    1.419   1_545 S
C302   C331    1.419   .     A
C302   C363    1.469   .     S
C302   C904    1.419   .     S
C303   C332    1.419   .     A
C303   C362    1.469   .     S
C303   C53     1.419   1_655 S
C304   C338    1.419   .     A
C304   C361    1.469   .     S
C305   C339    1.419   .     A
C305   C59     1.419   1_655 S
C305   C76     1.469   1_655 S
C306   C345    1.419   .     A
C306   C56     1.419   1_655 S
C306   C75     1.469   1_655 S
C307   C346    1.419   .     A
C307   C358    1.471   .     S
C307   C909    1.419   1_545 S
C308   Cl424   1.774   .     S
C308   C356    1.405   .     A
C308   C342    1.407   .     A
C309   C347    1.419   .     A
C309   C357    1.467   .     S
C309   C910    1.418   .     S
C310   H463    1.085   .     S
C310   O533    1.221   .     D
C310   C330    1.491   .     S
C311   O534    1.221   .     D
C311   H464    1.082   .     S
C311   C331    1.491   .     S
C312   H465    1.082   .     S
C312   C332    1.491   .     S
C312   O535    1.221   .     D
C313   C334    1.491   .     S
C313   O536    1.221   .     D
C313   H466    1.085   .     S
C314   H467    1.082   .     S
C314   C335    1.491   .     S
C314   O537    1.221   .     D
C315   H468    1.085   .     S
C315   O538    1.221   .     D
C315   C336    1.491   .     S
C316   H469    1.085   .     S
C316   C337    1.491   .     S
C316   O539    1.221   .     D
C317   H471    1.082   .     S
C317   O541    1.221   .     D
C317   C338    1.491   .     S
C318   O542    1.220   .     D
C318   C339    1.491   .     S
C318   H472    1.085   .     S
C319   C343    1.406   .     A
C319   Cl425   1.775   .     S
C320   O543    1.221   .     D
C320   H473    1.082   .     S
C320   C340    1.491   .     S
C321   O544    1.221   .     D
C321   H474    1.085   .     S
C321   C341    1.490   .     S
C322   C342    1.491   .     S
C322   O545    1.221   .     D
C322   H475    1.085   .     S
C323   C343    1.491   .     S
C323   O546    1.221   .     D
C323   H476    1.082   .     S
C324   O547    1.221   .     D
C324   H477    1.085   .     S
C324   C345    1.491   .     S
C325   C346    1.490   .     S
C325   H478    1.085   .     S
C325   O548    1.221   .     D
C326   O549    1.221   .     D
C326   H479    1.082   .     S
C326   C347    1.492   .     S
C327   C353    1.405   .     A
C327   C345    1.408   .     A
C327   Cl426   1.774   .     S
C328   Cl427   1.775   .     S
C328   C354    1.404   .     A
C328   C346    1.406   .     A
C329   Cl428   1.775   .     S
C329   C347    1.406   .     A
C329   C924    1.404   .     S
C330   C869    1.419   .     S
C331   C333    1.406   .     A
C332   C344    1.406   .     A
C333   C349    1.404   .     A
C333   Cl429   1.775   .     S
C334   C355    1.408   .     A
C334   C20     1.419   1_655 S
C335   C366    1.406   .     A
C336   C377    1.408   .     A
C336   C870    1.419   1_545 S
C337   C388    1.408   .     A
C338   C399    1.406   .     A
C339   C410    1.408   .     A
C341   C875    1.419   .     S
C342   C877    1.418   1_545 S
C344   C350    1.404   .     A
C344   Cl430   1.775   .     S
C348   C366    1.404   .     A
C348   C853    1.405   1_545 S
C348   C917    1.471   1_544 S
C349   C916    1.471   1_556 S
C349   C945    1.405   .     S
C350   C67     1.471   1_654 S
C350   C104    1.405   1_655 S
C351   C399    1.404   .     A
C351   C66     1.471   1_556 S
C352   C353    1.471   .     S
C352   C410    1.405   .     A
C352   C35     1.404   1_655 S
C353   C2      1.404   1_655 S
C354   C356    1.470   .     S
C354   C865    1.405   1_545 S
C355   Cl431   1.774   .     S
C355   C67     1.405   1_655 S
C356   C897    1.404   1_545 S
C357   O529    1.279   .     A
C357   O1120   1.281   .     S
C358   O540    1.281   .     A
C358   O1054   1.282   1_545 S
C359   O550    1.280   .     A
C360   O488    1.280   .     A
C361   O493    1.281   .     A
C361   O489    1.280   .     A
C362   O206    1.281   1_655 S
C362   O210    1.280   1_655 S
C363   O1059   1.280   .     S
C363   O1063   1.281   .     S
C364   O492    1.281   .     S
C364   O497    1.280   .     S
C365   O526    1.280   .     A
C365   O498    1.280   .     A
C365   C420    1.456   .     S
C366   Cl432   1.775   .     S
C367   O527    1.280   .     A
C367   O499    1.280   .     A
C368   O524    1.280   .     A
C368   O500    1.280   .     A
C369   O501    1.280   .     A
C369   O525    1.280   .     A
C370   O531    1.280   .     A
C370   O502    1.280   .     A
C371   O532    1.280   .     A
C371   O503    1.280   .     A
C372   O504    1.280   .     A
C372   O528    1.280   .     A
C372   C418    1.456   .     S
C373   C419    1.456   .     S
C373   O505    1.280   .     A
C373   O530    1.280   .     A
C374   O517    1.280   .     A
C374   O506    1.280   .     A
C375   O519    1.280   .     A
C375   O508    1.280   .     A
C376   O515    1.280   .     A
C376   O509    1.280   .     A
C377   Cl433   1.774   .     S
C377   C917    1.405   1_545 S
C378   O516    1.280   .     A
C378   O510    1.280   .     A
C379   O511    1.280   .     A
C379   O522    1.280   .     A
C380   O512    1.280   .     A
C380   O523    1.280   .     A
C381   O513    1.280   .     A
C381   O520    1.280   .     A
C382   O514    1.280   .     A
C382   O521    1.280   .     A
C383   C400    1.386   .     A
C383   H437    1.083   .     S
C384   C398    1.386   .     A
C384   H448    1.083   .     S
C385   C397    1.386   .     A
C385   H459    1.083   .     S
C386   H470    1.083   .     S
C386   C396    1.386   .     A
C387   C395    1.386   .     A
C387   H480    1.083   .     S
C388   Cl434   1.774   .     S
C389   C394    1.386   .     A
C389   H481    1.083   .     S
C390   H482    1.083   .     S
C390   C393    1.386   .     A
C391   H483    1.083   .     S
C391   C392    1.386   .     A
C392   H484    1.083   .     S
C393   H438    1.083   .     S
C394   H439    1.083   .     S
C395   H440    1.083   .     S
C396   H441    1.083   .     S
C397   C420    1.402   .     A
C397   H442    1.083   .     S
C398   C419    1.402   .     A
C398   H443    1.083   .     S
C399   Cl435   1.775   .     S
C400   H444    1.083   .     S
C400   C418    1.402   .     A
C401   C417    1.386   .     A
C401   C419    1.402   .     A
C401   H445    1.083   .     S
C402   H446    1.083   .     S
C402   C418    1.402   .     A
C402   C416    1.386   .     A
C403   C415    1.386   .     A
C403   H447    1.083   .     S
C404   C414    1.386   .     A
C404   H449    1.083   .     S
C404   C420    1.402   .     A
C405   H450    1.083   .     S
C405   C413    1.386   .     A
C406   H451    1.083   .     S
C406   C412    1.386   .     A
C407   C411    1.386   .     A
C407   H452    1.083   .     S
C408   H453    1.083   .     S
C408   C409    1.386   .     A
C409   H454    1.083   .     S
C410   Cl436   1.774   .     S
C411   H455    1.083   .     S
C412   H456    1.083   .     S
C413   H457    1.083   .     S
C414   H458    1.083   .     S
C415   H460    1.083   .     S
C416   H461    1.083   .     S
C417   H462    1.083   .     S
O485   Zn564   1.946   .     S
O485   Zn553   1.946   .     S
O485   Zn556   1.946   .     S
O485   Zn1128  1.946   1_545 S
O486   Zn555   1.939   .     S
O486   C926    1.282   .     S
O487   Zn558   1.939   .     S
O487   C75     1.281   1_655 S
O488   Zn557   1.939   .     S
O489   Zn567   1.939   .     S
O490   Zn566   1.939   .     S
O491   Zn561   1.939   .     S
O491   C931    1.280   1_545 S
O492   Zn553   1.939   .     S
O493   Zn563   1.939   .     S
O494   Zn562   1.939   .     S
O495   Zn565   1.939   .     S
O495   C931    1.281   1_545 S
O496   Zn561   1.946   .     S
O496   Zn565   1.946   .     S
O496   Zn559   1.946   .     S
O496   Zn1123  1.946   1_545 S
O497   Zn564   1.939   .     S
O498   Zn556   1.937   .     S
O499   Zn555   1.937   .     S
O500   Zn558   1.937   .     S
O501   Zn557   1.937   .     S
O502   Zn560   1.937   .     S
O503   Zn559   1.937   .     S
O504   Zn554   1.937   .     S
O505   Zn568   1.937   .     S
O506   Zn555   1.937   .     S
O507   Zn562   1.946   .     S
O507   Zn554   1.946   .     S
O507   Zn566   1.946   .     S
O508   Zn556   1.937   .     S
O509   Zn568   1.937   .     S
O510   Zn554   1.937   .     S
O511   Zn559   1.937   .     S
O512   Zn560   1.937   .     S
O513   Zn557   1.937   .     S
O514   Zn558   1.937   .     S
O515   Zn279   1.937   1_655 S
O516   Zn562   1.937   .     S
O517   Zn1133  1.937   .     S
O518   Zn557   1.946   .     S
O518   Zn563   1.946   .     S
O518   Zn567   1.946   .     S
O519   Zn564   1.937   .     S
O520   Zn567   1.937   .     S
O521   Zn282   1.937   1_655 S
O522   Zn561   1.937   .     S
O523   Zn1121  1.937   .     S
O524   Zn278   1.937   1_655 S
O525   Zn563   1.937   .     S
O526   Zn553   1.937   .     S
O527   Zn1129  1.937   .     S
O528   Zn566   1.937   .     S
O529   Zn560   1.939   .     S
O530   Zn283   1.937   1_655 S
O531   Zn1132  1.937   .     S
O532   Zn565   1.937   .     S
O540   Zn559   1.939   .     S
O550   Zn554   1.939   .     S
O551   Zn568   1.939   .     S
O551   C76     1.281   1_655 S
O552   Zn556   1.939   .     S
O552   C925    1.281   1_545 S
Zn553  O1091   1.937   1_545 S
Zn555  O1064   1.946   .     S
Zn558  O223    1.946   1_655 S
Zn560  O1053   1.946   .     S
Zn561  O1095   1.937   1_545 S
Zn564  O1099   1.937   1_545 S
Zn565  O1085   1.937   1_545 S
Zn568  O234    1.946   1_655 S
C569   C614    1.408   .     A
C569   Cl705   1.774   .     S
C569   C64     1.405   1_565 S
C570   Cl706   1.775   .     S
C570   C624    1.406   .     A
C570   C921    1.404   1_455 S
C571   C680    1.402   .     A
C571   C687    1.402   .     A
C571   C651    1.456   .     S
C572   C652    1.456   .     S
C572   C679    1.402   .     A
C572   C690    1.402   .     A
C573   C678    1.402   .     A
C573   C653    1.456   .     S
C573   C689    1.402   .     A
C574   C692    1.402   .     A
C574   C677    1.402   .     A
C574   C654    1.456   .     S
C575   C655    1.456   .     S
C575   C691    1.402   .     A
C575   C676    1.402   .     A
C576   C695    1.402   .     A
C576   C675    1.402   .     A
C576   C665    1.456   .     S
C577   C674    1.402   .     A
C577   C693    1.402   .     A
C577   C666    1.456   .     S
C578   C697    1.402   .     A
C578   C673    1.402   .     A
C578   C658    1.456   .     S
C579   C671    1.402   .     A
C579   C696    1.402   .     A
C579   C659    1.456   .     S
C580   C699    1.402   .     A
C580   C670    1.402   .     A
C580   C660    1.456   .     S
C581   Cl707   1.774   .     S
C581   C625    1.407   .     A
C581   C70     1.405   1_565 S
C582   C669    1.402   .     A
C582   C698    1.402   .     A
C582   C662    1.456   .     S
C583   C668    1.402   .     A
C583   C701    1.402   .     A
C583   C663    1.456   .     S
C584   C664    1.456   .     S
C584   C667    1.402   .     A
C584   C700    1.402   .     A
C585   C648    1.469   .     S
C585   C619    1.419   .     A
C586   C615    1.419   .     A
C586   C647    1.469   .     S
C586   C52     1.419   1_565 S
C587   C616    1.419   .     A
C587   C646    1.469   .     S
C587   C905    1.419   .     S
C588   C622    1.419   .     A
C588   C645    1.469   .     S
C588   C902    1.419   1_455 S
C589   C623    1.419   .     A
C589   C911    1.419   .     S
C589   C928    1.469   .     S
C590   C629    1.419   .     A
C590   C908    1.419   .     S
C590   C927    1.469   .     S
C591   C630    1.419   .     A
C591   C642    1.471   .     S
C592   Cl708   1.774   .     S
C592   C640    1.405   .     A
C592   C626    1.407   .     A
C593   C631    1.419   .     A
C593   C641    1.467   .     S
C593   C58     1.418   1_565 S
C594   H747    1.085   .     S
C594   O817    1.221   .     D
C594   C614    1.491   .     S
C595   O818    1.221   .     D
C595   H748    1.082   .     S
C595   C615    1.491   .     S
C596   H749    1.082   .     S
C596   C616    1.491   .     S
C596   O819    1.221   .     D
C597   C618    1.491   .     S
C597   O820    1.221   .     D
C597   H750    1.085   .     S
C598   H751    1.082   .     S
C598   C619    1.491   .     S
C598   O821    1.221   .     D
C599   H752    1.085   .     S
C599   O822    1.221   .     D
C599   C620    1.491   .     S
C600   H753    1.085   .     S
C600   C621    1.491   .     S
C600   O823    1.221   .     D
C601   H755    1.082   .     S
C601   O825    1.221   .     D
C601   C622    1.491   .     S
C602   O826    1.220   .     D
C602   C623    1.491   .     S
C602   H756    1.085   .     S
C603   C627    1.406   .     A
C603   Cl709   1.775   .     S
C603   C920    1.404   1_455 S
C604   O827    1.221   .     D
C604   H757    1.082   .     S
C604   C624    1.491   .     S
C605   O828    1.221   .     D
C605   H758    1.085   .     S
C605   C625    1.490   .     S
C606   C626    1.491   .     S
C606   O829    1.221   .     D
C606   H759    1.085   .     S
C607   C627    1.491   .     S
C607   O830    1.221   .     D
C607   H760    1.082   .     S
C608   O831    1.221   .     D
C608   H761    1.085   .     S
C608   C629    1.491   .     S
C609   C630    1.490   .     S
C609   H762    1.085   .     S
C609   O832    1.221   .     D
C610   O833    1.221   .     D
C610   H763    1.082   .     S
C610   C631    1.492   .     S
C611   C637    1.405   .     A
C611   C629    1.408   .     A
C611   Cl710   1.774   .     S
C612   Cl711   1.775   .     S
C612   C638    1.404   .     A
C612   C630    1.406   .     A
C613   Cl712   1.775   .     S
C613   C631    1.406   .     A
C613   C72     1.404   1_565 S
C614   C17     1.419   1_565 S
C615   C617    1.406   .     A
C616   C628    1.406   .     A
C617   C633    1.404   .     A
C617   Cl713   1.775   .     S
C618   C639    1.408   .     A
C618   C872    1.419   .     S
C619   C650    1.406   .     A
C620   C661    1.408   .     A
C621   C672    1.408   .     A
C621   C871    1.419   1_455 S
C622   C683    1.406   .     A
C623   C694    1.408   .     A
C624   C874    1.419   1_455 S
C625   C23     1.419   1_565 S
C627   C873    1.419   1_455 S
C628   C634    1.404   .     A
C628   Cl714   1.775   .     S
C632   C650    1.404   .     A
C632   C65     1.471   1_554 S
C633   C64     1.471   1_566 S
C633   C93     1.405   1_565 S
C634   C919    1.471   1_554 S
C634   C956    1.405   .     S
C635   C683    1.404   .     A
C635   C918    1.471   1_456 S
C635   C923    1.405   1_455 S
C636   C637    1.471   .     S
C636   C694    1.405   .     A
C636   C887    1.404   .     S
C637   C854    1.404   .     S
C638   C640    1.470   .     S
C639   Cl715   1.774   .     S
C639   C919    1.405   .     S
C641   O813    1.279   .     A
C641   O268    1.281   1_565 S
C642   O824    1.281   .     A
C643   O834    1.280   .     A
C643   C874    1.469   1_455 S
C643   O1055   1.281   1_455 S
C644   O772    1.280   .     A
C644   C873    1.469   1_455 S
C644   O1119   1.281   1_455 S
C645   O777    1.281   .     A
C645   O773    1.280   .     A
C646   O1058   1.281   .     S
C646   O1062   1.280   .     S
C647   O207    1.280   1_565 S
C647   O211    1.281   1_565 S
C648   O776    1.281   .     S
C648   O781    1.280   .     S
C649   O810    1.280   .     A
C649   O782    1.280   .     A
C649   C704    1.456   .     S
C650   Cl716   1.775   .     S
C651   O811    1.280   .     A
C651   O783    1.280   .     A
C652   O808    1.280   .     A
C652   O784    1.280   .     A
C653   O785    1.280   .     A
C653   O809    1.280   .     A
C654   O815    1.280   .     A
C654   O786    1.280   .     A
C655   O816    1.280   .     A
C655   O787    1.280   .     A
C656   O788    1.280   .     A
C656   O812    1.280   .     A
C656   C702    1.456   .     S
C657   C703    1.456   .     S
C657   O789    1.280   .     A
C657   O814    1.280   .     A
C658   O801    1.280   .     A
C658   O790    1.280   .     A
C659   O803    1.280   .     A
C659   O792    1.280   .     A
C660   O799    1.280   .     A
C660   O793    1.280   .     A
C661   Cl717   1.774   .     S
C662   O800    1.280   .     A
C662   O794    1.280   .     A
C663   O795    1.280   .     A
C663   O806    1.280   .     A
C664   O796    1.280   .     A
C664   O807    1.280   .     A
C665   O797    1.280   .     A
C665   O804    1.280   .     A
C666   O798    1.280   .     A
C666   O805    1.280   .     A
C667   C684    1.386   .     A
C667   H721    1.083   .     S
C668   C682    1.386   .     A
C668   H732    1.083   .     S
C669   C681    1.386   .     A
C669   H743    1.083   .     S
C670   H754    1.083   .     S
C670   C680    1.386   .     A
C671   C679    1.386   .     A
C671   H764    1.083   .     S
C672   Cl718   1.774   .     S
C672   C918    1.405   1_455 S
C673   C678    1.386   .     A
C673   H765    1.083   .     S
C674   H766    1.083   .     S
C674   C677    1.386   .     A
C675   H767    1.083   .     S
C675   C676    1.386   .     A
C676   H768    1.083   .     S
C677   H722    1.083   .     S
C678   H723    1.083   .     S
C679   H724    1.083   .     S
C680   H725    1.083   .     S
C681   C704    1.402   .     A
C681   H726    1.083   .     S
C682   C703    1.402   .     A
C682   H727    1.083   .     S
C683   Cl719   1.775   .     S
C684   H728    1.083   .     S
C684   C702    1.402   .     A
C685   C701    1.386   .     A
C685   C703    1.402   .     A
C685   H729    1.083   .     S
C686   H730    1.083   .     S
C686   C702    1.402   .     A
C686   C700    1.386   .     A
C687   C699    1.386   .     A
C687   H731    1.083   .     S
C688   C698    1.386   .     A
C688   H733    1.083   .     S
C688   C704    1.402   .     A
C689   H734    1.083   .     S
C689   C697    1.386   .     A
C690   H735    1.083   .     S
C690   C696    1.386   .     A
C691   C695    1.386   .     A
C691   H736    1.083   .     S
C692   H737    1.083   .     S
C692   C693    1.386   .     A
C693   H738    1.083   .     S
C694   Cl720   1.774   .     S
C695   H739    1.083   .     S
C696   H740    1.083   .     S
C697   H741    1.083   .     S
C698   H742    1.083   .     S
C699   H744    1.083   .     S
C700   H745    1.083   .     S
C701   H746    1.083   .     S
O769   Zn848   1.946   .     S
O769   Zn837   1.946   .     S
O769   Zn840   1.946   .     S
O770   Zn839   1.939   .     S
O770   C74     1.282   1_565 S
O771   Zn842   1.939   .     S
O771   C927    1.281   .     S
O772   Zn841   1.939   .     S
O773   Zn851   1.939   .     S
O774   Zn850   1.939   .     S
O774   C930    1.281   1_455 S
O775   Zn845   1.939   .     S
O776   Zn837   1.939   .     S
O777   Zn847   1.939   .     S
O778   C930    1.280   1_455 S
O778   Zn846   1.939   .     S
O779   Zn849   1.939   .     S
O780   Zn845   1.946   .     S
O780   Zn849   1.946   .     S
O780   Zn843   1.946   .     S
O781   Zn848   1.939   .     S
O782   Zn840   1.937   .     S
O783   Zn839   1.937   .     S
O784   Zn842   1.937   .     S
O785   Zn841   1.937   .     S
O786   Zn844   1.937   .     S
O787   Zn843   1.937   .     S
O788   Zn838   1.937   .     S
O789   Zn852   1.937   .     S
O790   Zn839   1.937   .     S
O791   Zn846   1.946   .     S
O791   Zn1126  1.946   1_455 S
O791   Zn838   1.946   .     S
O791   Zn850   1.946   .     S
O792   Zn840   1.937   .     S
O793   Zn852   1.937   .     S
O794   Zn838   1.937   .     S
O795   Zn843   1.937   .     S
O796   Zn844   1.937   .     S
O797   Zn841   1.937   .     S
O798   Zn842   1.937   .     S
O799   Zn1131  1.937   .     S
O800   Zn846   1.937   .     S
O801   Zn281   1.937   1_565 S
O802   Zn841   1.946   .     S
O802   Zn847   1.946   .     S
O802   Zn851   1.946   .     S
O802   Zn1136  1.946   1_455 S
O803   Zn848   1.937   .     S
O804   Zn851   1.937   .     S
O805   Zn1134  1.937   .     S
O806   Zn845   1.937   .     S
O807   Zn269   1.937   1_565 S
O808   Zn1130  1.937   .     S
O809   Zn847   1.937   .     S
O810   Zn837   1.937   .     S
O811   Zn277   1.937   1_565 S
O812   Zn850   1.937   .     S
O813   Zn844   1.939   .     S
O814   Zn1135  1.937   .     S
O815   Zn280   1.937   1_565 S
O816   Zn849   1.937   .     S
O824   Zn843   1.939   .     S
O834   Zn838   1.939   .     S
O835   Zn852   1.939   .     S
O835   C928    1.281   .     S
O836   Zn840   1.939   .     S
Zn839  O212    1.946   1_565 S
Zn842  O1075   1.946   .     S
Zn844  O201    1.946   1_565 S
Zn846  O1092   1.937   1_455 S
Zn847  O1083   1.937   1_455 S
Zn850  O1089   1.937   1_455 S
Zn851  O1098   1.937   1_455 S
Zn852  O1086   1.946   .     S
C853   C898    1.408   .     A
C853   Cl989   1.774   .     S
C853   C348    1.405   1_565 S
C854   Cl990   1.775   .     S
C854   C908    1.406   .     A
C855   C964    1.402   .     A
C855   C971    1.402   .     A
C855   C935    1.456   .     S
C856   C936    1.456   .     S
C856   C963    1.402   .     A
C856   C974    1.402   .     A
C857   C962    1.402   .     A
C857   C937    1.456   .     S
C857   C973    1.402   .     A
C858   C976    1.402   .     A
C858   C961    1.402   .     A
C858   C938    1.456   .     S
C859   C939    1.456   .     S
C859   C975    1.402   .     A
C859   C960    1.402   .     A
C860   C979    1.402   .     A
C860   C959    1.402   .     A
C860   C949    1.456   .     S
C861   C958    1.402   .     A
C861   C977    1.402   .     A
C861   C950    1.456   .     S
C862   C981    1.402   .     A
C862   C957    1.402   .     A
C862   C942    1.456   .     S
C863   C955    1.402   .     A
C863   C980    1.402   .     A
C863   C943    1.456   .     S
C864   C983    1.402   .     A
C864   C954    1.402   .     A
C864   C944    1.456   .     S
C865   Cl991   1.774   .     S
C865   C909    1.407   .     A
C865   C354    1.405   1_565 S
C866   C953    1.402   .     A
C866   C982    1.402   .     A
C866   C946    1.456   .     S
C867   C952    1.402   .     A
C867   C985    1.402   .     A
C867   C947    1.456   .     S
C868   C948    1.456   .     S
C868   C951    1.402   .     A
C868   C984    1.402   .     A
C869   C932    1.469   .     S
C869   C903    1.419   .     A
C870   C899    1.419   .     A
C870   C931    1.469   .     S
C870   C336    1.419   1_565 S
C871   C900    1.419   .     A
C871   C930    1.469   .     S
C871   C621    1.419   1_655 S
C872   C906    1.419   .     A
C872   C929    1.469   .     S
C873   C907    1.419   .     A
C873   C627    1.419   1_655 S
C873   C644    1.469   1_655 S
C874   C913    1.419   .     A
C874   C624    1.419   1_655 S
C874   C643    1.469   1_655 S
C875   C914    1.419   .     A
C875   C926    1.471   .     S
C876   Cl992   1.774   .     S
C876   C924    1.405   .     A
C876   C910    1.407   .     A
C877   C915    1.419   .     A
C877   C925    1.467   .     S
C877   C342    1.418   1_565 S
C878   H1031   1.085   .     S
C878   O1101   1.221   .     D
C878   C898    1.491   .     S
C879   O1102   1.221   .     D
C879   H1032   1.082   .     S
C879   C899    1.491   .     S
C880   H1033   1.082   .     S
C880   C900    1.491   .     S
C880   O1103   1.221   .     D
C881   C902    1.491   .     S
C881   O1104   1.221   .     D
C881   H1034   1.085   .     S
C882   H1035   1.082   .     S
C882   C903    1.491   .     S
C882   O1105   1.221   .     D
C883   H1036   1.085   .     S
C883   O1106   1.221   .     D
C883   C904    1.491   .     S
C884   H1037   1.085   .     S
C884   C905    1.491   .     S
C884   O1107   1.221   .     D
C885   H1039   1.082   .     S
C885   O1109   1.221   .     D
C885   C906    1.491   .     S
C886   O1110   1.220   .     D
C886   C907    1.491   .     S
C886   H1040   1.085   .     S
C887   C911    1.406   .     A
C887   Cl993   1.775   .     S
C888   O1111   1.221   .     D
C888   H1041   1.082   .     S
C888   C908    1.491   .     S
C889   O1112   1.221   .     D
C889   H1042   1.085   .     S
C889   C909    1.490   .     S
C890   C910    1.491   .     S
C890   O1113   1.221   .     D
C890   H1043   1.085   .     S
C891   C911    1.491   .     S
C891   O1114   1.221   .     D
C891   H1044   1.082   .     S
C892   O1115   1.221   .     D
C892   H1045   1.085   .     S
C892   C913    1.491   .     S
C893   C914    1.490   .     S
C893   H1046   1.085   .     S
C893   O1116   1.221   .     D
C894   O1117   1.221   .     D
C894   H1047   1.082   .     S
C894   C915    1.492   .     S
C895   C921    1.405   .     A
C895   C913    1.408   .     A
C895   Cl994   1.774   .     S
C896   Cl995   1.775   .     S
C896   C922    1.404   .     A
C896   C914    1.406   .     A
C897   Cl996   1.775   .     S
C897   C915    1.406   .     A
C897   C356    1.404   1_565 S
C898   C301    1.419   1_565 S
C899   C901    1.406   .     A
C900   C912    1.406   .     A
C901   C917    1.404   .     A
C901   Cl997   1.775   .     S
C902   C923    1.408   .     A
C902   C588    1.419   1_655 S
C903   C934    1.406   .     A
C904   C945    1.408   .     A
C905   C956    1.408   .     A
C906   C967    1.406   .     A
C907   C978    1.408   .     A
C909   C307    1.419   1_565 S
C912   C918    1.404   .     A
C912   Cl998   1.775   .     S
C916   C934    1.404   .     A
C916   C349    1.471   1_554 S
C917   C348    1.471   1_566 S
C917   C377    1.405   1_565 S
C918   C635    1.471   1_654 S
C918   C672    1.405   1_655 S
C919   C967    1.404   .     A
C919   C634    1.471   1_556 S
C920   C921    1.471   .     S
C920   C978    1.405   .     A
C920   C603    1.404   1_655 S
C921   C570    1.404   1_655 S
C922   C924    1.470   .     S
C923   Cl999   1.774   .     S
C923   C635    1.405   1_655 S
C925   O1097   1.279   .     A
C925   O552    1.281   1_565 S
C926   O1108   1.281   .     A
C927   O1118   1.280   .     A
C928   O1056   1.280   .     A
C929   O1061   1.281   .     A
C929   O1057   1.280   .     A
C930   O774    1.281   1_655 S
C930   O778    1.280   1_655 S
C931   O491    1.280   1_565 S
C931   O495    1.281   1_565 S
C932   O1060   1.281   .     S
C932   O1065   1.280   .     S
C933   O1094   1.280   .     A
C933   O1066   1.280   .     A
C933   C988    1.456   .     S
C934   Cl1000  1.775   .     S
C935   O1095   1.280   .     A
C935   O1067   1.280   .     A
C936   O1092   1.280   .     A
C936   O1068   1.280   .     A
C937   O1069   1.280   .     A
C937   O1093   1.280   .     A
C938   O1099   1.280   .     A
C938   O1070   1.280   .     A
C939   O1100   1.280   .     A
C939   O1071   1.280   .     A
C940   O1072   1.280   .     A
C940   O1096   1.280   .     A
C940   C986    1.456   .     S
C941   C987    1.456   .     S
C941   O1073   1.280   .     A
C941   O1098   1.280   .     A
C942   O1085   1.280   .     A
C942   O1074   1.280   .     A
C943   O1087   1.280   .     A
C943   O1076   1.280   .     A
C944   O1083   1.280   .     A
C944   O1077   1.280   .     A
C945   Cl1001  1.774   .     S
C946   O1084   1.280   .     A
C946   O1078   1.280   .     A
C947   O1079   1.280   .     A
C947   O1090   1.280   .     A
C948   O1080   1.280   .     A
C948   O1091   1.280   .     A
C949   O1081   1.280   .     A
C949   O1088   1.280   .     A
C950   O1082   1.280   .     A
C950   O1089   1.280   .     A
C951   C968    1.386   .     A
C951   H1005   1.083   .     S
C952   C966    1.386   .     A
C952   H1016   1.083   .     S
C953   C965    1.386   .     A
C953   H1027   1.083   .     S
C954   H1038   1.083   .     S
C954   C964    1.386   .     A
C955   C963    1.386   .     A
C955   H1048   1.083   .     S
C956   Cl1002  1.774   .     S
C957   C962    1.386   .     A
C957   H1049   1.083   .     S
C958   H1050   1.083   .     S
C958   C961    1.386   .     A
C959   H1051   1.083   .     S
C959   C960    1.386   .     A
C960   H1052   1.083   .     S
C961   H1006   1.083   .     S
C962   H1007   1.083   .     S
C963   H1008   1.083   .     S
C964   H1009   1.083   .     S
C965   C988    1.402   .     A
C965   H1010   1.083   .     S
C966   C987    1.402   .     A
C966   H1011   1.083   .     S
C967   Cl1003  1.775   .     S
C968   H1012   1.083   .     S
C968   C986    1.402   .     A
C969   C985    1.386   .     A
C969   C987    1.402   .     A
C969   H1013   1.083   .     S
C970   H1014   1.083   .     S
C970   C986    1.402   .     A
C970   C984    1.386   .     A
C971   C983    1.386   .     A
C971   H1015   1.083   .     S
C972   C982    1.386   .     A
C972   H1017   1.083   .     S
C972   C988    1.402   .     A
C973   H1018   1.083   .     S
C973   C981    1.386   .     A
C974   H1019   1.083   .     S
C974   C980    1.386   .     A
C975   C979    1.386   .     A
C975   H1020   1.083   .     S
C976   H1021   1.083   .     S
C976   C977    1.386   .     A
C977   H1022   1.083   .     S
C978   Cl1004  1.774   .     S
C979   H1023   1.083   .     S
C980   H1024   1.083   .     S
C981   H1025   1.083   .     S
C982   H1026   1.083   .     S
C983   H1028   1.083   .     S
C984   H1029   1.083   .     S
C985   H1030   1.083   .     S
O1053  Zn1132  1.946   .     S
O1053  Zn1121  1.946   .     S
O1053  Zn1124  1.946   .     S
O1054  Zn1123  1.939   .     S
O1054  C358    1.282   1_565 S
O1055  Zn1126  1.939   .     S
O1055  C643    1.281   1_655 S
O1056  Zn1125  1.939   .     S
O1057  Zn1135  1.939   .     S
O1058  Zn1134  1.939   .     S
O1059  Zn1129  1.939   .     S
O1060  Zn1121  1.939   .     S
O1061  Zn1131  1.939   .     S
O1062  Zn1130  1.939   .     S
O1063  Zn1133  1.939   .     S
O1064  Zn1129  1.946   .     S
O1064  Zn1133  1.946   .     S
O1064  Zn1127  1.946   .     S
O1065  Zn1132  1.939   .     S
O1066  Zn1124  1.937   .     S
O1067  Zn1123  1.937   .     S
O1068  Zn1126  1.937   .     S
O1069  Zn1125  1.937   .     S
O1070  Zn1128  1.937   .     S
O1071  Zn1127  1.937   .     S
O1072  Zn1122  1.937   .     S
O1073  Zn1136  1.937   .     S
O1074  Zn1123  1.937   .     S
O1075  Zn1130  1.946   .     S
O1075  Zn1122  1.946   .     S
O1075  Zn1134  1.946   .     S
O1076  Zn1124  1.937   .     S
O1077  Zn1136  1.937   .     S
O1078  Zn1122  1.937   .     S
O1079  Zn1127  1.937   .     S
O1080  Zn1128  1.937   .     S
O1081  Zn1125  1.937   .     S
O1082  Zn1126  1.937   .     S
O1083  Zn847   1.937   1_655 S
O1084  Zn1130  1.937   .     S
O1085  Zn565   1.937   1_565 S
O1086  Zn1125  1.946   .     S
O1086  Zn1131  1.946   .     S
O1086  Zn1135  1.946   .     S
O1087  Zn1132  1.937   .     S
O1088  Zn1135  1.937   .     S
O1089  Zn850   1.937   1_655 S
O1090  Zn1129  1.937   .     S
O1091  Zn553   1.937   1_565 S
O1092  Zn846   1.937   1_655 S
O1093  Zn1131  1.937   .     S
O1094  Zn1121  1.937   .     S
O1095  Zn561   1.937   1_565 S
O1096  Zn1134  1.937   .     S
O1097  Zn1128  1.939   .     S
O1098  Zn851   1.937   1_655 S
O1099  Zn564   1.937   1_565 S
O1100  Zn1133  1.937   .     S
O1108  Zn1127  1.939   .     S
O1118  Zn1122  1.939   .     S
O1119  Zn1136  1.939   .     S
O1119  C644    1.281   1_655 S
O1120  Zn1124  1.939   .     S
Zn1123 O496    1.946   1_565 S
Zn1126 O791    1.946   1_655 S
Zn1128 O485    1.946   1_565 S
Zn1136 O802    1.946   1_655 S
