data_str_m3_o2_o10_pcu_sym.49
_audit_creation_date              2020-01-03
_audit_creation_method            'Materials Studio'
_symmetry_space_group_name_H-M    'P1'
_symmetry_Int_Tables_number       1
_symmetry_cell_setting            triclinic
loop_
_symmetry_equiv_pos_as_xyz
  x,y,z
_cell_length_a                    26.1553
_cell_length_b                    29.8077
_cell_length_c                    28.5039
_cell_angle_alpha                 90.6671
_cell_angle_beta                  98.9311
_cell_angle_gamma                 91.5881
loop_
_atom_site_label
_atom_site_type_symbol
_atom_site_fract_x
_atom_site_fract_y
_atom_site_fract_z
_atom_site_U_iso_or_equiv
_atom_site_adp_type
_atom_site_occupancy
C1     C     0.17233   0.16399   0.25043   0.00000  Uiso   1.00
C2     C     0.14737   0.21080   0.44347   0.00000  Uiso   1.00
C3     C     0.16856   0.24808   0.02713   0.00000  Uiso   1.00
C4     C     0.16746   0.24753   0.47352   0.00000  Uiso   1.00
C5     C     0.06723   0.24833   0.23778   0.00000  Uiso   1.00
C6     C     0.26593   0.24821   0.26245   0.00000  Uiso   1.00
C7     C     0.01277   0.24121   0.23225   0.00000  Uiso   1.00
C8     C     0.32062   0.24864   0.26974   0.00000  Uiso   1.00
C9     C     0.20597   0.04774   0.29567   0.00000  Uiso   1.00
C10    C     0.14140   0.45816   0.23426   0.00000  Uiso   1.00
C11    C     0.20090   0.09440   0.29538   0.00000  Uiso   1.00
C12    C     0.16689   0.33602   0.25019   0.00000  Uiso   1.00
C13    C     0.13289   0.41158   0.23564   0.00000  Uiso   1.00
C14    C     0.18791   0.11663   0.25138   0.00000  Uiso   1.00
C15    C     0.17470   0.38405   0.25115   0.00000  Uiso   1.00
C16    C     0.19319   0.09336   0.20848   0.00000  Uiso   1.00
C17    C     0.22532   0.40201   0.26376   0.00000  Uiso   1.00
C18    C     0.19974   0.04712   0.20915   0.00000  Uiso   1.00
C19    C     0.23391   0.44822   0.26392   0.00000  Uiso   1.00
C20    C     0.20081   0.02444   0.25193   0.00000  Uiso   1.00
C21    C     0.19197   0.47602   0.25030   0.00000  Uiso   1.00
C22    C     0.32182   0.22190   0.18674   0.00000  Uiso   1.00
C23    C     0.12782   0.22771   0.04702   0.00000  Uiso   1.00
C24    C     0.01127   0.26161   0.31800   0.00000  Uiso   1.00
C25    C     0.21739   0.02338   0.34147   0.00000  Uiso   1.00
C26    C     0.18084   0.49326   0.35611   0.00000  Uiso   1.00
C27    C     0.19301   0.46958   0.39823   0.00000  Uiso   1.00
C28    C     0.24152   0.47589   0.42622   0.00000  Uiso   1.00
C29    C     0.27798   0.00593   0.41216   0.00000  Uiso   1.00
C30    C     0.26605   0.02958   0.37000   0.00000  Uiso   1.00
C31    C     0.09854   0.48768   0.21346   0.00000  Uiso   1.00
C32    C     0.08157   0.02275   0.24015   0.00000  Uiso   1.00
C33    C     0.04260   0.05081   0.21956   0.00000  Uiso   1.00
C34    C     0.18548   0.28536   0.45128   0.00000  Uiso   1.00
C35    C     0.01990   0.04403   0.17227   0.00000  Uiso   1.00
C36    C     0.03645   0.00940   0.14536   0.00000  Uiso   1.00
C37    C     0.07569   0.48148   0.16571   0.00000  Uiso   1.00
C38    C     0.21154   0.11870   0.34041   0.00000  Uiso   1.00
C39    C     0.08143   0.39187   0.22128   0.00000  Uiso   1.00
C40    C     0.19352   0.11579   0.16354   0.00000  Uiso   1.00
C41    C     0.26909   0.37329   0.27540   0.00000  Uiso   1.00
C42    C     0.20367   0.02226   0.16569   0.00000  Uiso   1.00
C43    C     0.28593   0.46708   0.27770   0.00000  Uiso   1.00
C44    C     0.09411   0.19624   0.11527   0.00000  Uiso   1.00
C45    C     0.12965   0.22606   0.09644   0.00000  Uiso   1.00
C46    C     0.21447   0.32210   0.38418   0.00000  Uiso   1.00
C47    C     0.24004   0.30289   0.13886   0.00000  Uiso   1.00
C48    C     0.11078   0.18264   0.36316   0.00000  Uiso   1.00
C49    C     0.25653   0.28541   0.04375   0.00000  Uiso   1.00
C50    C     0.13394   0.16811   0.46287   0.00000  Uiso   1.00
C51    C     0.18831   0.28481   0.40254   0.00000  Uiso   1.00
C52    C     0.20465   0.27343   0.10808   0.00000  Uiso   1.00
C53    C     0.14301   0.21482   0.39345   0.00000  Uiso   1.00
C54    C     0.20902   0.26969   0.05925   0.00000  Uiso   1.00
H55    H     0.09487   0.21211   0.02451   0.00000  Uiso   1.00
H56    H     0.32289   0.06565   0.15648   0.00000  Uiso   1.00
H57    H     0.01902   0.00429   0.10863   0.00000  Uiso   1.00
H58    H     0.08859   0.45520   0.14414   0.00000  Uiso   1.00
H59    H     0.19828   0.31550   0.47180   0.00000  Uiso   1.00
H60    H     0.14321   0.48761   0.33494   0.00000  Uiso   1.00
H61    H     0.16484   0.44621   0.40910   0.00000  Uiso   1.00
H62    H     0.25088   0.45746   0.45877   0.00000  Uiso   1.00
H63    H     0.31561   0.01073   0.43380   0.00000  Uiso   1.00
H64    H     0.29493   0.05232   0.35921   0.00000  Uiso   1.00
H65    H     0.09816   0.02854   0.27686   0.00000  Uiso   1.00
H66    H     0.02980   0.07768   0.24040   0.00000  Uiso   1.00
N67    N     0.16667   0.24999   0.12623   0.00000  Uiso   1.00
N68    N     0.32741   0.48184   0.28909   0.00000  Uiso   1.00
N69    N     0.06613   0.17135   0.13008   0.00000  Uiso   1.00
N70    N     0.23593   0.35256   0.37058   0.00000  Uiso   1.00
N71    N     0.26842   0.32684   0.16313   0.00000  Uiso   1.00
N72    N     0.08447   0.15680   0.33934   0.00000  Uiso   1.00
N73    N     0.29459   0.29787   0.03154   0.00000  Uiso   1.00
N74    N     0.12331   0.13391   0.47821   0.00000  Uiso   1.00
N75    N     0.16667   0.25001   0.37376   0.00000  Uiso   1.00
N76    N     0.30216   0.20653   0.15072   0.00000  Uiso   1.00
N77    N     0.02984   0.27196   0.35628   0.00000  Uiso   1.00
N78    N     0.22078   0.13767   0.37652   0.00000  Uiso   1.00
N79    N     0.04044   0.37612   0.20963   0.00000  Uiso   1.00
N80    N     0.19422   0.13326   0.12758   0.00000  Uiso   1.00
N81    N     0.30463   0.35112   0.28488   0.00000  Uiso   1.00
N82    N     0.20683   0.00244   0.13116   0.00000  Uiso   1.00
O83    O     0.16667   0.18453   0.28974   0.00000  Uiso   1.00
O84    O     0.16666   0.31546   0.21026   0.00000  Uiso   1.00
O85    O     0.16667   0.18453   0.21026   0.00000  Uiso   1.00
O86    O     0.16666   0.31547   0.28974   0.00000  Uiso   1.00
O87    O     0.09058   0.25000   0.28044   0.00000  Uiso   1.00
O88    O     0.24275   0.25000   0.21955   0.00000  Uiso   1.00
O89    O     0.09058   0.24999   0.20096   0.00000  Uiso   1.00
O90    O     0.24275   0.25000   0.29903   0.00000  Uiso   1.00
Zn91   Zn    0.16667   0.25000   0.30307   0.00000  Uiso   1.00
Zn92   Zn    0.16667   0.24999   0.19693   0.00000  Uiso   1.00
C93    C     0.50566   0.16399   0.25043   0.00000  Uiso   1.00
C94    C     0.48071   0.21080   0.44347   0.00000  Uiso   1.00
C95    C     0.50189   0.24808   0.02713   0.00000  Uiso   1.00
C96    C     0.50079   0.24753   0.47352   0.00000  Uiso   1.00
C97    C     0.40056   0.24833   0.23778   0.00000  Uiso   1.00
C98    C     0.59927   0.24821   0.26245   0.00000  Uiso   1.00
C99    C     0.34611   0.24121   0.23225   0.00000  Uiso   1.00
C100   C     0.65396   0.24864   0.26974   0.00000  Uiso   1.00
C101   C     0.53930   0.04774   0.29567   0.00000  Uiso   1.00
C102   C     0.47473   0.45816   0.23426   0.00000  Uiso   1.00
C103   C     0.53424   0.09440   0.29538   0.00000  Uiso   1.00
C104   C     0.50022   0.33602   0.25019   0.00000  Uiso   1.00
C105   C     0.46622   0.41158   0.23564   0.00000  Uiso   1.00
C106   C     0.52124   0.11663   0.25138   0.00000  Uiso   1.00
C107   C     0.50804   0.38405   0.25115   0.00000  Uiso   1.00
C108   C     0.52652   0.09336   0.20848   0.00000  Uiso   1.00
C109   C     0.55865   0.40201   0.26376   0.00000  Uiso   1.00
C110   C     0.53308   0.04712   0.20915   0.00000  Uiso   1.00
C111   C     0.56724   0.44822   0.26392   0.00000  Uiso   1.00
C112   C     0.53414   0.02444   0.25193   0.00000  Uiso   1.00
C113   C     0.52530   0.47602   0.25030   0.00000  Uiso   1.00
C114   C     0.65515   0.22190   0.18674   0.00000  Uiso   1.00
C115   C     0.46116   0.22771   0.04702   0.00000  Uiso   1.00
C116   C     0.34460   0.26161   0.31800   0.00000  Uiso   1.00
C117   C     0.55072   0.02338   0.34147   0.00000  Uiso   1.00
C118   C     0.51418   0.49326   0.35611   0.00000  Uiso   1.00
C119   C     0.52634   0.46958   0.39823   0.00000  Uiso   1.00
C120   C     0.57486   0.47589   0.42622   0.00000  Uiso   1.00
C121   C     0.61132   0.00593   0.41216   0.00000  Uiso   1.00
C122   C     0.59938   0.02958   0.37000   0.00000  Uiso   1.00
C123   C     0.43187   0.48768   0.21346   0.00000  Uiso   1.00
C124   C     0.41490   0.02275   0.24015   0.00000  Uiso   1.00
C125   C     0.37593   0.05081   0.21956   0.00000  Uiso   1.00
C126   C     0.51881   0.28536   0.45128   0.00000  Uiso   1.00
C127   C     0.35324   0.04403   0.17227   0.00000  Uiso   1.00
C128   C     0.36978   0.00940   0.14536   0.00000  Uiso   1.00
C129   C     0.40902   0.48148   0.16571   0.00000  Uiso   1.00
C130   C     0.54488   0.11870   0.34041   0.00000  Uiso   1.00
C131   C     0.41476   0.39187   0.22128   0.00000  Uiso   1.00
C132   C     0.52685   0.11579   0.16354   0.00000  Uiso   1.00
C133   C     0.60242   0.37329   0.27540   0.00000  Uiso   1.00
C134   C     0.53700   0.02226   0.16569   0.00000  Uiso   1.00
C135   C     0.61926   0.46708   0.27770   0.00000  Uiso   1.00
C136   C     0.42745   0.19624   0.11527   0.00000  Uiso   1.00
C137   C     0.46298   0.22606   0.09644   0.00000  Uiso   1.00
C138   C     0.54780   0.32210   0.38418   0.00000  Uiso   1.00
C139   C     0.57337   0.30289   0.13886   0.00000  Uiso   1.00
C140   C     0.44411   0.18264   0.36316   0.00000  Uiso   1.00
C141   C     0.58986   0.28541   0.04375   0.00000  Uiso   1.00
C142   C     0.46727   0.16811   0.46287   0.00000  Uiso   1.00
C143   C     0.52164   0.28481   0.40254   0.00000  Uiso   1.00
C144   C     0.53798   0.27343   0.10808   0.00000  Uiso   1.00
C145   C     0.47635   0.21482   0.39345   0.00000  Uiso   1.00
C146   C     0.54235   0.26969   0.05925   0.00000  Uiso   1.00
H147   H     0.42821   0.21211   0.02451   0.00000  Uiso   1.00
H148   H     0.65623   0.06565   0.15648   0.00000  Uiso   1.00
H149   H     0.35236   0.00429   0.10863   0.00000  Uiso   1.00
H150   H     0.42193   0.45520   0.14414   0.00000  Uiso   1.00
H151   H     0.53161   0.31550   0.47180   0.00000  Uiso   1.00
H152   H     0.47654   0.48761   0.33494   0.00000  Uiso   1.00
H153   H     0.49817   0.44621   0.40910   0.00000  Uiso   1.00
H154   H     0.58422   0.45746   0.45877   0.00000  Uiso   1.00
H155   H     0.64895   0.01073   0.43380   0.00000  Uiso   1.00
H156   H     0.62827   0.05232   0.35921   0.00000  Uiso   1.00
H157   H     0.43149   0.02854   0.27686   0.00000  Uiso   1.00
H158   H     0.36313   0.07768   0.24040   0.00000  Uiso   1.00
N159   N     0.50000   0.24999   0.12623   0.00000  Uiso   1.00
N160   N     0.66074   0.48184   0.28909   0.00000  Uiso   1.00
N161   N     0.39946   0.17135   0.13008   0.00000  Uiso   1.00
N162   N     0.56926   0.35256   0.37058   0.00000  Uiso   1.00
N163   N     0.60175   0.32684   0.16313   0.00000  Uiso   1.00
N164   N     0.41781   0.15680   0.33934   0.00000  Uiso   1.00
N165   N     0.62792   0.29787   0.03154   0.00000  Uiso   1.00
N166   N     0.45664   0.13391   0.47821   0.00000  Uiso   1.00
N167   N     0.50000   0.25001   0.37376   0.00000  Uiso   1.00
N168   N     0.63549   0.20653   0.15072   0.00000  Uiso   1.00
N169   N     0.36317   0.27196   0.35628   0.00000  Uiso   1.00
N170   N     0.55411   0.13767   0.37652   0.00000  Uiso   1.00
N171   N     0.37377   0.37612   0.20963   0.00000  Uiso   1.00
N172   N     0.52755   0.13326   0.12758   0.00000  Uiso   1.00
N173   N     0.63797   0.35112   0.28488   0.00000  Uiso   1.00
N174   N     0.54017   0.00244   0.13116   0.00000  Uiso   1.00
O175   O     0.50000   0.18453   0.28974   0.00000  Uiso   1.00
O176   O     0.50000   0.31546   0.21026   0.00000  Uiso   1.00
O177   O     0.50000   0.18453   0.21026   0.00000  Uiso   1.00
O178   O     0.50000   0.31547   0.28974   0.00000  Uiso   1.00
O179   O     0.42392   0.25000   0.28044   0.00000  Uiso   1.00
O180   O     0.57608   0.25000   0.21955   0.00000  Uiso   1.00
O181   O     0.42392   0.24999   0.20096   0.00000  Uiso   1.00
O182   O     0.57608   0.25000   0.29903   0.00000  Uiso   1.00
Zn183  Zn    0.50000   0.25000   0.30307   0.00000  Uiso   1.00
Zn184  Zn    0.50000   0.24999   0.19693   0.00000  Uiso   1.00
C185   C     0.83899   0.16399   0.25043   0.00000  Uiso   1.00
C186   C     0.81404   0.21080   0.44347   0.00000  Uiso   1.00
C187   C     0.83522   0.24808   0.02713   0.00000  Uiso   1.00
C188   C     0.83413   0.24753   0.47352   0.00000  Uiso   1.00
C189   C     0.73389   0.24833   0.23778   0.00000  Uiso   1.00
C190   C     0.93260   0.24821   0.26245   0.00000  Uiso   1.00
C191   C     0.67944   0.24121   0.23225   0.00000  Uiso   1.00
C192   C     0.98729   0.24864   0.26974   0.00000  Uiso   1.00
C193   C     0.87263   0.04774   0.29567   0.00000  Uiso   1.00
C194   C     0.80807   0.45816   0.23426   0.00000  Uiso   1.00
C195   C     0.86757   0.09440   0.29538   0.00000  Uiso   1.00
C196   C     0.83356   0.33602   0.25019   0.00000  Uiso   1.00
C197   C     0.79956   0.41158   0.23564   0.00000  Uiso   1.00
C198   C     0.85457   0.11663   0.25138   0.00000  Uiso   1.00
C199   C     0.84137   0.38405   0.25115   0.00000  Uiso   1.00
C200   C     0.85986   0.09336   0.20848   0.00000  Uiso   1.00
C201   C     0.89198   0.40201   0.26376   0.00000  Uiso   1.00
C202   C     0.86641   0.04712   0.20915   0.00000  Uiso   1.00
C203   C     0.90057   0.44822   0.26392   0.00000  Uiso   1.00
C204   C     0.86748   0.02444   0.25193   0.00000  Uiso   1.00
C205   C     0.85863   0.47602   0.25030   0.00000  Uiso   1.00
C206   C     0.98848   0.22190   0.18674   0.00000  Uiso   1.00
C207   C     0.79449   0.22771   0.04702   0.00000  Uiso   1.00
C208   C     0.67793   0.26161   0.31800   0.00000  Uiso   1.00
C209   C     0.88406   0.02338   0.34147   0.00000  Uiso   1.00
C210   C     0.84751   0.49326   0.35611   0.00000  Uiso   1.00
C211   C     0.85967   0.46958   0.39823   0.00000  Uiso   1.00
C212   C     0.90819   0.47589   0.42622   0.00000  Uiso   1.00
C213   C     0.94465   0.00593   0.41216   0.00000  Uiso   1.00
C214   C     0.93271   0.02958   0.37000   0.00000  Uiso   1.00
C215   C     0.76521   0.48768   0.21346   0.00000  Uiso   1.00
C216   C     0.74824   0.02275   0.24015   0.00000  Uiso   1.00
C217   C     0.70926   0.05081   0.21956   0.00000  Uiso   1.00
C218   C     0.85214   0.28536   0.45128   0.00000  Uiso   1.00
C219   C     0.68657   0.04403   0.17227   0.00000  Uiso   1.00
C220   C     0.70312   0.00940   0.14536   0.00000  Uiso   1.00
C221   C     0.74236   0.48148   0.16571   0.00000  Uiso   1.00
C222   C     0.87821   0.11870   0.34041   0.00000  Uiso   1.00
C223   C     0.74809   0.39187   0.22128   0.00000  Uiso   1.00
C224   C     0.86019   0.11579   0.16354   0.00000  Uiso   1.00
C225   C     0.93575   0.37329   0.27540   0.00000  Uiso   1.00
C226   C     0.87034   0.02226   0.16569   0.00000  Uiso   1.00
C227   C     0.95259   0.46708   0.27770   0.00000  Uiso   1.00
C228   C     0.76078   0.19624   0.11527   0.00000  Uiso   1.00
C229   C     0.79632   0.22606   0.09644   0.00000  Uiso   1.00
C230   C     0.88114   0.32210   0.38418   0.00000  Uiso   1.00
C231   C     0.90670   0.30289   0.13886   0.00000  Uiso   1.00
C232   C     0.77745   0.18264   0.36316   0.00000  Uiso   1.00
C233   C     0.92320   0.28541   0.04375   0.00000  Uiso   1.00
C234   C     0.80060   0.16811   0.46287   0.00000  Uiso   1.00
C235   C     0.85498   0.28481   0.40254   0.00000  Uiso   1.00
C236   C     0.87131   0.27343   0.10808   0.00000  Uiso   1.00
C237   C     0.80968   0.21482   0.39345   0.00000  Uiso   1.00
C238   C     0.87568   0.26969   0.05925   0.00000  Uiso   1.00
H239   H     0.76154   0.21211   0.02451   0.00000  Uiso   1.00
H240   H     0.98956   0.06565   0.15648   0.00000  Uiso   1.00
H241   H     0.68569   0.00429   0.10863   0.00000  Uiso   1.00
H242   H     0.75526   0.45520   0.14414   0.00000  Uiso   1.00
H243   H     0.86495   0.31550   0.47180   0.00000  Uiso   1.00
H244   H     0.80987   0.48761   0.33494   0.00000  Uiso   1.00
H245   H     0.83150   0.44621   0.40910   0.00000  Uiso   1.00
H246   H     0.91755   0.45746   0.45877   0.00000  Uiso   1.00
H247   H     0.98228   0.01073   0.43380   0.00000  Uiso   1.00
H248   H     0.96160   0.05232   0.35921   0.00000  Uiso   1.00
H249   H     0.76483   0.02854   0.27686   0.00000  Uiso   1.00
H250   H     0.69647   0.07768   0.24040   0.00000  Uiso   1.00
N251   N     0.83333   0.24999   0.12623   0.00000  Uiso   1.00
N252   N     0.99408   0.48184   0.28909   0.00000  Uiso   1.00
N253   N     0.73280   0.17135   0.13008   0.00000  Uiso   1.00
N254   N     0.90260   0.35256   0.37058   0.00000  Uiso   1.00
N255   N     0.93509   0.32684   0.16313   0.00000  Uiso   1.00
N256   N     0.75114   0.15680   0.33934   0.00000  Uiso   1.00
N257   N     0.96125   0.29787   0.03154   0.00000  Uiso   1.00
N258   N     0.78998   0.13391   0.47821   0.00000  Uiso   1.00
N259   N     0.83333   0.25001   0.37376   0.00000  Uiso   1.00
N260   N     0.96882   0.20653   0.15072   0.00000  Uiso   1.00
N261   N     0.69650   0.27196   0.35628   0.00000  Uiso   1.00
N262   N     0.88745   0.13767   0.37652   0.00000  Uiso   1.00
N263   N     0.70710   0.37612   0.20963   0.00000  Uiso   1.00
N264   N     0.86088   0.13326   0.12758   0.00000  Uiso   1.00
N265   N     0.97130   0.35112   0.28488   0.00000  Uiso   1.00
N266   N     0.87350   0.00244   0.13116   0.00000  Uiso   1.00
O267   O     0.83334   0.18453   0.28974   0.00000  Uiso   1.00
O268   O     0.83333   0.31546   0.21026   0.00000  Uiso   1.00
O269   O     0.83334   0.18453   0.21026   0.00000  Uiso   1.00
O270   O     0.83333   0.31547   0.28974   0.00000  Uiso   1.00
O271   O     0.75725   0.25000   0.28044   0.00000  Uiso   1.00
O272   O     0.90942   0.25000   0.21955   0.00000  Uiso   1.00
O273   O     0.75725   0.24999   0.20096   0.00000  Uiso   1.00
O274   O     0.90942   0.25000   0.29903   0.00000  Uiso   1.00
Zn275  Zn    0.83333   0.25000   0.30307   0.00000  Uiso   1.00
Zn276  Zn    0.83333   0.24999   0.19693   0.00000  Uiso   1.00
C277   C     0.17233   0.66399   0.25043   0.00000  Uiso   1.00
C278   C     0.14737   0.71080   0.44347   0.00000  Uiso   1.00
C279   C     0.16856   0.74808   0.02713   0.00000  Uiso   1.00
C280   C     0.16746   0.74753   0.47352   0.00000  Uiso   1.00
C281   C     0.06723   0.74833   0.23778   0.00000  Uiso   1.00
C282   C     0.26593   0.74821   0.26245   0.00000  Uiso   1.00
C283   C     0.01277   0.74121   0.23225   0.00000  Uiso   1.00
C284   C     0.32062   0.74864   0.26974   0.00000  Uiso   1.00
C285   C     0.20597   0.54774   0.29567   0.00000  Uiso   1.00
C286   C     0.14140   0.95816   0.23426   0.00000  Uiso   1.00
C287   C     0.20090   0.59440   0.29538   0.00000  Uiso   1.00
C288   C     0.16689   0.83602   0.25019   0.00000  Uiso   1.00
C289   C     0.13289   0.91158   0.23564   0.00000  Uiso   1.00
C290   C     0.18791   0.61663   0.25138   0.00000  Uiso   1.00
C291   C     0.17470   0.88405   0.25115   0.00000  Uiso   1.00
C292   C     0.19319   0.59336   0.20848   0.00000  Uiso   1.00
C293   C     0.22532   0.90201   0.26376   0.00000  Uiso   1.00
C294   C     0.19974   0.54712   0.20915   0.00000  Uiso   1.00
C295   C     0.23391   0.94822   0.26392   0.00000  Uiso   1.00
C296   C     0.20081   0.52444   0.25193   0.00000  Uiso   1.00
C297   C     0.19197   0.97602   0.25030   0.00000  Uiso   1.00
C298   C     0.32182   0.72190   0.18674   0.00000  Uiso   1.00
C299   C     0.12782   0.72771   0.04702   0.00000  Uiso   1.00
C300   C     0.01127   0.76161   0.31800   0.00000  Uiso   1.00
C301   C     0.21739   0.52338   0.34147   0.00000  Uiso   1.00
C302   C     0.18084   0.99326   0.35611   0.00000  Uiso   1.00
C303   C     0.19301   0.96958   0.39823   0.00000  Uiso   1.00
C304   C     0.24152   0.97589   0.42622   0.00000  Uiso   1.00
C305   C     0.27798   0.50593   0.41216   0.00000  Uiso   1.00
C306   C     0.26605   0.52958   0.37000   0.00000  Uiso   1.00
C307   C     0.09854   0.98768   0.21346   0.00000  Uiso   1.00
C308   C     0.08157   0.52275   0.24015   0.00000  Uiso   1.00
C309   C     0.04260   0.55081   0.21956   0.00000  Uiso   1.00
C310   C     0.18548   0.78536   0.45128   0.00000  Uiso   1.00
C311   C     0.01990   0.54403   0.17227   0.00000  Uiso   1.00
C312   C     0.03645   0.50940   0.14536   0.00000  Uiso   1.00
C313   C     0.07569   0.98148   0.16571   0.00000  Uiso   1.00
C314   C     0.21154   0.61870   0.34041   0.00000  Uiso   1.00
C315   C     0.08143   0.89187   0.22128   0.00000  Uiso   1.00
C316   C     0.19352   0.61579   0.16354   0.00000  Uiso   1.00
C317   C     0.26909   0.87329   0.27540   0.00000  Uiso   1.00
C318   C     0.20367   0.52226   0.16569   0.00000  Uiso   1.00
C319   C     0.28593   0.96708   0.27770   0.00000  Uiso   1.00
C320   C     0.09411   0.69624   0.11527   0.00000  Uiso   1.00
C321   C     0.12965   0.72606   0.09644   0.00000  Uiso   1.00
C322   C     0.21447   0.82210   0.38418   0.00000  Uiso   1.00
C323   C     0.24004   0.80289   0.13886   0.00000  Uiso   1.00
C324   C     0.11078   0.68264   0.36316   0.00000  Uiso   1.00
C325   C     0.25653   0.78541   0.04375   0.00000  Uiso   1.00
C326   C     0.13394   0.66811   0.46287   0.00000  Uiso   1.00
C327   C     0.18831   0.78481   0.40254   0.00000  Uiso   1.00
C328   C     0.20465   0.77343   0.10808   0.00000  Uiso   1.00
C329   C     0.14301   0.71482   0.39345   0.00000  Uiso   1.00
C330   C     0.20902   0.76969   0.05925   0.00000  Uiso   1.00
H331   H     0.09487   0.71211   0.02451   0.00000  Uiso   1.00
H332   H     0.32289   0.56565   0.15648   0.00000  Uiso   1.00
H333   H     0.01902   0.50429   0.10863   0.00000  Uiso   1.00
H334   H     0.08859   0.95520   0.14414   0.00000  Uiso   1.00
H335   H     0.19828   0.81550   0.47180   0.00000  Uiso   1.00
H336   H     0.14321   0.98761   0.33494   0.00000  Uiso   1.00
H337   H     0.16484   0.94621   0.40910   0.00000  Uiso   1.00
H338   H     0.25088   0.95746   0.45877   0.00000  Uiso   1.00
H339   H     0.31561   0.51073   0.43380   0.00000  Uiso   1.00
H340   H     0.29493   0.55232   0.35921   0.00000  Uiso   1.00
H341   H     0.09816   0.52854   0.27686   0.00000  Uiso   1.00
H342   H     0.02980   0.57768   0.24040   0.00000  Uiso   1.00
N343   N     0.16667   0.74999   0.12623   0.00000  Uiso   1.00
N344   N     0.32741   0.98184   0.28909   0.00000  Uiso   1.00
N345   N     0.06613   0.67135   0.13008   0.00000  Uiso   1.00
N346   N     0.23593   0.85256   0.37058   0.00000  Uiso   1.00
N347   N     0.26842   0.82684   0.16313   0.00000  Uiso   1.00
N348   N     0.08447   0.65680   0.33934   0.00000  Uiso   1.00
N349   N     0.29459   0.79787   0.03154   0.00000  Uiso   1.00
N350   N     0.12331   0.63391   0.47821   0.00000  Uiso   1.00
N351   N     0.16667   0.75001   0.37376   0.00000  Uiso   1.00
N352   N     0.30216   0.70653   0.15072   0.00000  Uiso   1.00
N353   N     0.02984   0.77196   0.35628   0.00000  Uiso   1.00
N354   N     0.22078   0.63767   0.37652   0.00000  Uiso   1.00
N355   N     0.04044   0.87612   0.20963   0.00000  Uiso   1.00
N356   N     0.19422   0.63326   0.12758   0.00000  Uiso   1.00
N357   N     0.30463   0.85112   0.28488   0.00000  Uiso   1.00
N358   N     0.20683   0.50244   0.13116   0.00000  Uiso   1.00
O359   O     0.16667   0.68453   0.28974   0.00000  Uiso   1.00
O360   O     0.16666   0.81546   0.21026   0.00000  Uiso   1.00
O361   O     0.16667   0.68453   0.21026   0.00000  Uiso   1.00
O362   O     0.16666   0.81547   0.28974   0.00000  Uiso   1.00
O363   O     0.09058   0.75000   0.28044   0.00000  Uiso   1.00
O364   O     0.24275   0.75000   0.21955   0.00000  Uiso   1.00
O365   O     0.09058   0.74999   0.20096   0.00000  Uiso   1.00
O366   O     0.24275   0.75000   0.29903   0.00000  Uiso   1.00
Zn367  Zn    0.16667   0.75000   0.30307   0.00000  Uiso   1.00
Zn368  Zn    0.16667   0.74999   0.19693   0.00000  Uiso   1.00
C369   C     0.50566   0.66399   0.25043   0.00000  Uiso   1.00
C370   C     0.48071   0.71080   0.44347   0.00000  Uiso   1.00
C371   C     0.50189   0.74808   0.02713   0.00000  Uiso   1.00
C372   C     0.50079   0.74753   0.47352   0.00000  Uiso   1.00
C373   C     0.40056   0.74833   0.23778   0.00000  Uiso   1.00
C374   C     0.59927   0.74821   0.26245   0.00000  Uiso   1.00
C375   C     0.34611   0.74121   0.23225   0.00000  Uiso   1.00
C376   C     0.65396   0.74864   0.26974   0.00000  Uiso   1.00
C377   C     0.53930   0.54774   0.29567   0.00000  Uiso   1.00
C378   C     0.47473   0.95816   0.23426   0.00000  Uiso   1.00
C379   C     0.53424   0.59440   0.29538   0.00000  Uiso   1.00
C380   C     0.50022   0.83602   0.25019   0.00000  Uiso   1.00
C381   C     0.46622   0.91158   0.23564   0.00000  Uiso   1.00
C382   C     0.52124   0.61663   0.25138   0.00000  Uiso   1.00
C383   C     0.50804   0.88405   0.25115   0.00000  Uiso   1.00
C384   C     0.52652   0.59336   0.20848   0.00000  Uiso   1.00
C385   C     0.55865   0.90201   0.26376   0.00000  Uiso   1.00
C386   C     0.53308   0.54712   0.20915   0.00000  Uiso   1.00
C387   C     0.56724   0.94822   0.26392   0.00000  Uiso   1.00
C388   C     0.53414   0.52444   0.25193   0.00000  Uiso   1.00
C389   C     0.52530   0.97602   0.25030   0.00000  Uiso   1.00
C390   C     0.65515   0.72190   0.18674   0.00000  Uiso   1.00
C391   C     0.46116   0.72771   0.04702   0.00000  Uiso   1.00
C392   C     0.34460   0.76161   0.31800   0.00000  Uiso   1.00
C393   C     0.55072   0.52338   0.34147   0.00000  Uiso   1.00
C394   C     0.51418   0.99326   0.35611   0.00000  Uiso   1.00
C395   C     0.52634   0.96958   0.39823   0.00000  Uiso   1.00
C396   C     0.57486   0.97589   0.42622   0.00000  Uiso   1.00
C397   C     0.61132   0.50593   0.41216   0.00000  Uiso   1.00
C398   C     0.59938   0.52958   0.37000   0.00000  Uiso   1.00
C399   C     0.43187   0.98768   0.21346   0.00000  Uiso   1.00
C400   C     0.41490   0.52275   0.24015   0.00000  Uiso   1.00
C401   C     0.37593   0.55081   0.21956   0.00000  Uiso   1.00
C402   C     0.51881   0.78536   0.45128   0.00000  Uiso   1.00
C403   C     0.35324   0.54403   0.17227   0.00000  Uiso   1.00
C404   C     0.36978   0.50940   0.14536   0.00000  Uiso   1.00
C405   C     0.40902   0.98148   0.16571   0.00000  Uiso   1.00
C406   C     0.54488   0.61870   0.34041   0.00000  Uiso   1.00
C407   C     0.41476   0.89187   0.22128   0.00000  Uiso   1.00
C408   C     0.52685   0.61579   0.16354   0.00000  Uiso   1.00
C409   C     0.60242   0.87329   0.27540   0.00000  Uiso   1.00
C410   C     0.53700   0.52226   0.16569   0.00000  Uiso   1.00
C411   C     0.61926   0.96708   0.27770   0.00000  Uiso   1.00
C412   C     0.42745   0.69624   0.11527   0.00000  Uiso   1.00
C413   C     0.46298   0.72606   0.09644   0.00000  Uiso   1.00
C414   C     0.54780   0.82210   0.38418   0.00000  Uiso   1.00
C415   C     0.57337   0.80289   0.13886   0.00000  Uiso   1.00
C416   C     0.44411   0.68264   0.36316   0.00000  Uiso   1.00
C417   C     0.58986   0.78541   0.04375   0.00000  Uiso   1.00
C418   C     0.46727   0.66811   0.46287   0.00000  Uiso   1.00
C419   C     0.52164   0.78481   0.40254   0.00000  Uiso   1.00
C420   C     0.53798   0.77343   0.10808   0.00000  Uiso   1.00
C421   C     0.47635   0.71482   0.39345   0.00000  Uiso   1.00
C422   C     0.54235   0.76969   0.05925   0.00000  Uiso   1.00
H423   H     0.42821   0.71211   0.02451   0.00000  Uiso   1.00
H424   H     0.65623   0.56565   0.15648   0.00000  Uiso   1.00
H425   H     0.35236   0.50429   0.10863   0.00000  Uiso   1.00
H426   H     0.42193   0.95520   0.14414   0.00000  Uiso   1.00
H427   H     0.53161   0.81550   0.47180   0.00000  Uiso   1.00
H428   H     0.47654   0.98761   0.33494   0.00000  Uiso   1.00
H429   H     0.49817   0.94621   0.40910   0.00000  Uiso   1.00
H430   H     0.58422   0.95746   0.45877   0.00000  Uiso   1.00
H431   H     0.64895   0.51073   0.43380   0.00000  Uiso   1.00
H432   H     0.62827   0.55232   0.35921   0.00000  Uiso   1.00
H433   H     0.43149   0.52854   0.27686   0.00000  Uiso   1.00
H434   H     0.36313   0.57768   0.24040   0.00000  Uiso   1.00
N435   N     0.50000   0.74999   0.12623   0.00000  Uiso   1.00
N436   N     0.66074   0.98184   0.28909   0.00000  Uiso   1.00
N437   N     0.39946   0.67135   0.13008   0.00000  Uiso   1.00
N438   N     0.56926   0.85256   0.37058   0.00000  Uiso   1.00
N439   N     0.60175   0.82684   0.16313   0.00000  Uiso   1.00
N440   N     0.41781   0.65680   0.33934   0.00000  Uiso   1.00
N441   N     0.62792   0.79787   0.03154   0.00000  Uiso   1.00
N442   N     0.45664   0.63391   0.47821   0.00000  Uiso   1.00
N443   N     0.50000   0.75001   0.37376   0.00000  Uiso   1.00
N444   N     0.63549   0.70653   0.15072   0.00000  Uiso   1.00
N445   N     0.36317   0.77196   0.35628   0.00000  Uiso   1.00
N446   N     0.55411   0.63767   0.37652   0.00000  Uiso   1.00
N447   N     0.37377   0.87612   0.20963   0.00000  Uiso   1.00
N448   N     0.52755   0.63326   0.12758   0.00000  Uiso   1.00
N449   N     0.63797   0.85112   0.28488   0.00000  Uiso   1.00
N450   N     0.54017   0.50244   0.13116   0.00000  Uiso   1.00
O451   O     0.50000   0.68453   0.28974   0.00000  Uiso   1.00
O452   O     0.50000   0.81546   0.21026   0.00000  Uiso   1.00
O453   O     0.50000   0.68453   0.21026   0.00000  Uiso   1.00
O454   O     0.50000   0.81547   0.28974   0.00000  Uiso   1.00
O455   O     0.42392   0.75000   0.28044   0.00000  Uiso   1.00
O456   O     0.57608   0.75000   0.21955   0.00000  Uiso   1.00
O457   O     0.42392   0.74999   0.20096   0.00000  Uiso   1.00
O458   O     0.57608   0.75000   0.29903   0.00000  Uiso   1.00
Zn459  Zn    0.50000   0.75000   0.30307   0.00000  Uiso   1.00
Zn460  Zn    0.50000   0.74999   0.19693   0.00000  Uiso   1.00
C461   C     0.83899   0.66399   0.25043   0.00000  Uiso   1.00
C462   C     0.81404   0.71080   0.44347   0.00000  Uiso   1.00
C463   C     0.83522   0.74808   0.02713   0.00000  Uiso   1.00
C464   C     0.83413   0.74753   0.47352   0.00000  Uiso   1.00
C465   C     0.73389   0.74833   0.23778   0.00000  Uiso   1.00
C466   C     0.93260   0.74821   0.26245   0.00000  Uiso   1.00
C467   C     0.67944   0.74121   0.23225   0.00000  Uiso   1.00
C468   C     0.98729   0.74864   0.26974   0.00000  Uiso   1.00
C469   C     0.87263   0.54774   0.29567   0.00000  Uiso   1.00
C470   C     0.80807   0.95816   0.23426   0.00000  Uiso   1.00
C471   C     0.86757   0.59440   0.29538   0.00000  Uiso   1.00
C472   C     0.83356   0.83602   0.25019   0.00000  Uiso   1.00
C473   C     0.79956   0.91158   0.23564   0.00000  Uiso   1.00
C474   C     0.85457   0.61663   0.25138   0.00000  Uiso   1.00
C475   C     0.84137   0.88405   0.25115   0.00000  Uiso   1.00
C476   C     0.85986   0.59336   0.20848   0.00000  Uiso   1.00
C477   C     0.89198   0.90201   0.26376   0.00000  Uiso   1.00
C478   C     0.86641   0.54712   0.20915   0.00000  Uiso   1.00
C479   C     0.90057   0.94822   0.26392   0.00000  Uiso   1.00
C480   C     0.86748   0.52444   0.25193   0.00000  Uiso   1.00
C481   C     0.85863   0.97602   0.25030   0.00000  Uiso   1.00
C482   C     0.98848   0.72190   0.18674   0.00000  Uiso   1.00
C483   C     0.79449   0.72771   0.04702   0.00000  Uiso   1.00
C484   C     0.67793   0.76161   0.31800   0.00000  Uiso   1.00
C485   C     0.88406   0.52338   0.34147   0.00000  Uiso   1.00
C486   C     0.84751   0.99326   0.35611   0.00000  Uiso   1.00
C487   C     0.85967   0.96958   0.39823   0.00000  Uiso   1.00
C488   C     0.90819   0.97589   0.42622   0.00000  Uiso   1.00
C489   C     0.94465   0.50593   0.41216   0.00000  Uiso   1.00
C490   C     0.93271   0.52958   0.37000   0.00000  Uiso   1.00
C491   C     0.76521   0.98768   0.21346   0.00000  Uiso   1.00
C492   C     0.74824   0.52275   0.24015   0.00000  Uiso   1.00
C493   C     0.70926   0.55081   0.21956   0.00000  Uiso   1.00
C494   C     0.85214   0.78536   0.45128   0.00000  Uiso   1.00
C495   C     0.68657   0.54403   0.17227   0.00000  Uiso   1.00
C496   C     0.70312   0.50940   0.14536   0.00000  Uiso   1.00
C497   C     0.74236   0.98148   0.16571   0.00000  Uiso   1.00
C498   C     0.87821   0.61870   0.34041   0.00000  Uiso   1.00
C499   C     0.74809   0.89187   0.22128   0.00000  Uiso   1.00
C500   C     0.86019   0.61579   0.16354   0.00000  Uiso   1.00
C501   C     0.93575   0.87329   0.27540   0.00000  Uiso   1.00
C502   C     0.87034   0.52226   0.16569   0.00000  Uiso   1.00
C503   C     0.95259   0.96708   0.27770   0.00000  Uiso   1.00
C504   C     0.76078   0.69624   0.11527   0.00000  Uiso   1.00
C505   C     0.79632   0.72606   0.09644   0.00000  Uiso   1.00
C506   C     0.88114   0.82210   0.38418   0.00000  Uiso   1.00
C507   C     0.90670   0.80289   0.13886   0.00000  Uiso   1.00
C508   C     0.77745   0.68264   0.36316   0.00000  Uiso   1.00
C509   C     0.92320   0.78541   0.04375   0.00000  Uiso   1.00
C510   C     0.80060   0.66811   0.46287   0.00000  Uiso   1.00
C511   C     0.85498   0.78481   0.40254   0.00000  Uiso   1.00
C512   C     0.87131   0.77343   0.10808   0.00000  Uiso   1.00
C513   C     0.80968   0.71482   0.39345   0.00000  Uiso   1.00
C514   C     0.87568   0.76969   0.05925   0.00000  Uiso   1.00
H515   H     0.76154   0.71211   0.02451   0.00000  Uiso   1.00
H516   H     0.98956   0.56565   0.15648   0.00000  Uiso   1.00
H517   H     0.68569   0.50429   0.10863   0.00000  Uiso   1.00
H518   H     0.75526   0.95520   0.14414   0.00000  Uiso   1.00
H519   H     0.86495   0.81550   0.47180   0.00000  Uiso   1.00
H520   H     0.80987   0.98761   0.33494   0.00000  Uiso   1.00
H521   H     0.83150   0.94621   0.40910   0.00000  Uiso   1.00
H522   H     0.91755   0.95746   0.45877   0.00000  Uiso   1.00
H523   H     0.98228   0.51073   0.43380   0.00000  Uiso   1.00
H524   H     0.96160   0.55232   0.35921   0.00000  Uiso   1.00
H525   H     0.76483   0.52854   0.27686   0.00000  Uiso   1.00
H526   H     0.69647   0.57768   0.24040   0.00000  Uiso   1.00
N527   N     0.83333   0.74999   0.12623   0.00000  Uiso   1.00
N528   N     0.99408   0.98184   0.28909   0.00000  Uiso   1.00
N529   N     0.73280   0.67135   0.13008   0.00000  Uiso   1.00
N530   N     0.90260   0.85256   0.37058   0.00000  Uiso   1.00
N531   N     0.93509   0.82684   0.16313   0.00000  Uiso   1.00
N532   N     0.75114   0.65680   0.33934   0.00000  Uiso   1.00
N533   N     0.96125   0.79787   0.03154   0.00000  Uiso   1.00
N534   N     0.78998   0.63391   0.47821   0.00000  Uiso   1.00
N535   N     0.83333   0.75001   0.37376   0.00000  Uiso   1.00
N536   N     0.96882   0.70653   0.15072   0.00000  Uiso   1.00
N537   N     0.69650   0.77196   0.35628   0.00000  Uiso   1.00
N538   N     0.88745   0.63767   0.37652   0.00000  Uiso   1.00
N539   N     0.70710   0.87612   0.20963   0.00000  Uiso   1.00
N540   N     0.86088   0.63326   0.12758   0.00000  Uiso   1.00
N541   N     0.97130   0.85112   0.28488   0.00000  Uiso   1.00
N542   N     0.87350   0.50244   0.13116   0.00000  Uiso   1.00
O543   O     0.83334   0.68453   0.28974   0.00000  Uiso   1.00
O544   O     0.83333   0.81546   0.21026   0.00000  Uiso   1.00
O545   O     0.83334   0.68453   0.21026   0.00000  Uiso   1.00
O546   O     0.83333   0.81547   0.28974   0.00000  Uiso   1.00
O547   O     0.75725   0.75000   0.28044   0.00000  Uiso   1.00
O548   O     0.90942   0.75000   0.21955   0.00000  Uiso   1.00
O549   O     0.75725   0.74999   0.20096   0.00000  Uiso   1.00
O550   O     0.90942   0.75000   0.29903   0.00000  Uiso   1.00
Zn551  Zn    0.83333   0.75000   0.30307   0.00000  Uiso   1.00
Zn552  Zn    0.83333   0.74999   0.19693   0.00000  Uiso   1.00
C553   C     0.17233   0.16399   0.75043   0.00000  Uiso   1.00
C554   C     0.14737   0.21080   0.94347   0.00000  Uiso   1.00
C555   C     0.16856   0.24808   0.52713   0.00000  Uiso   1.00
C556   C     0.16746   0.24753   0.97352   0.00000  Uiso   1.00
C557   C     0.06723   0.24833   0.73778   0.00000  Uiso   1.00
C558   C     0.26593   0.24821   0.76245   0.00000  Uiso   1.00
C559   C     0.01277   0.24121   0.73225   0.00000  Uiso   1.00
C560   C     0.32062   0.24864   0.76974   0.00000  Uiso   1.00
C561   C     0.20597   0.04774   0.79567   0.00000  Uiso   1.00
C562   C     0.14140   0.45816   0.73426   0.00000  Uiso   1.00
C563   C     0.20090   0.09440   0.79538   0.00000  Uiso   1.00
C564   C     0.16689   0.33602   0.75019   0.00000  Uiso   1.00
C565   C     0.13289   0.41158   0.73564   0.00000  Uiso   1.00
C566   C     0.18791   0.11663   0.75138   0.00000  Uiso   1.00
C567   C     0.17470   0.38405   0.75115   0.00000  Uiso   1.00
C568   C     0.19319   0.09336   0.70848   0.00000  Uiso   1.00
C569   C     0.22532   0.40201   0.76376   0.00000  Uiso   1.00
C570   C     0.19974   0.04712   0.70915   0.00000  Uiso   1.00
C571   C     0.23391   0.44822   0.76392   0.00000  Uiso   1.00
C572   C     0.20081   0.02444   0.75193   0.00000  Uiso   1.00
C573   C     0.19197   0.47602   0.75030   0.00000  Uiso   1.00
C574   C     0.32182   0.22190   0.68674   0.00000  Uiso   1.00
C575   C     0.12782   0.22771   0.54702   0.00000  Uiso   1.00
C576   C     0.01127   0.26161   0.81800   0.00000  Uiso   1.00
C577   C     0.21739   0.02338   0.84147   0.00000  Uiso   1.00
C578   C     0.18084   0.49326   0.85611   0.00000  Uiso   1.00
C579   C     0.19301   0.46958   0.89823   0.00000  Uiso   1.00
C580   C     0.24152   0.47589   0.92622   0.00000  Uiso   1.00
C581   C     0.27798   0.00593   0.91216   0.00000  Uiso   1.00
C582   C     0.26605   0.02958   0.87000   0.00000  Uiso   1.00
C583   C     0.09854   0.48768   0.71346   0.00000  Uiso   1.00
C584   C     0.08157   0.02275   0.74015   0.00000  Uiso   1.00
C585   C     0.04260   0.05081   0.71956   0.00000  Uiso   1.00
C586   C     0.18548   0.28536   0.95128   0.00000  Uiso   1.00
C587   C     0.01990   0.04403   0.67227   0.00000  Uiso   1.00
C588   C     0.03645   0.00940   0.64536   0.00000  Uiso   1.00
C589   C     0.07569   0.48148   0.66571   0.00000  Uiso   1.00
C590   C     0.21154   0.11870   0.84041   0.00000  Uiso   1.00
C591   C     0.08143   0.39187   0.72128   0.00000  Uiso   1.00
C592   C     0.19352   0.11579   0.66354   0.00000  Uiso   1.00
C593   C     0.26909   0.37329   0.77540   0.00000  Uiso   1.00
C594   C     0.20367   0.02226   0.66569   0.00000  Uiso   1.00
C595   C     0.28593   0.46708   0.77770   0.00000  Uiso   1.00
C596   C     0.09411   0.19624   0.61527   0.00000  Uiso   1.00
C597   C     0.12965   0.22606   0.59644   0.00000  Uiso   1.00
C598   C     0.21447   0.32210   0.88418   0.00000  Uiso   1.00
C599   C     0.24004   0.30289   0.63886   0.00000  Uiso   1.00
C600   C     0.11078   0.18264   0.86316   0.00000  Uiso   1.00
C601   C     0.25653   0.28541   0.54375   0.00000  Uiso   1.00
C602   C     0.13394   0.16811   0.96287   0.00000  Uiso   1.00
C603   C     0.18831   0.28481   0.90254   0.00000  Uiso   1.00
C604   C     0.20465   0.27343   0.60808   0.00000  Uiso   1.00
C605   C     0.14301   0.21482   0.89345   0.00000  Uiso   1.00
C606   C     0.20902   0.26969   0.55925   0.00000  Uiso   1.00
H607   H     0.09487   0.21211   0.52451   0.00000  Uiso   1.00
H608   H     0.32289   0.06565   0.65648   0.00000  Uiso   1.00
H609   H     0.01902   0.00429   0.60863   0.00000  Uiso   1.00
H610   H     0.08859   0.45520   0.64414   0.00000  Uiso   1.00
H611   H     0.19828   0.31550   0.97180   0.00000  Uiso   1.00
H612   H     0.14321   0.48761   0.83494   0.00000  Uiso   1.00
H613   H     0.16484   0.44621   0.90910   0.00000  Uiso   1.00
H614   H     0.25088   0.45746   0.95877   0.00000  Uiso   1.00
H615   H     0.31561   0.01073   0.93380   0.00000  Uiso   1.00
H616   H     0.29493   0.05232   0.85921   0.00000  Uiso   1.00
H617   H     0.09816   0.02854   0.77686   0.00000  Uiso   1.00
H618   H     0.02980   0.07768   0.74040   0.00000  Uiso   1.00
N619   N     0.16667   0.24999   0.62623   0.00000  Uiso   1.00
N620   N     0.32741   0.48184   0.78909   0.00000  Uiso   1.00
N621   N     0.06613   0.17135   0.63008   0.00000  Uiso   1.00
N622   N     0.23593   0.35256   0.87058   0.00000  Uiso   1.00
N623   N     0.26842   0.32684   0.66313   0.00000  Uiso   1.00
N624   N     0.08447   0.15680   0.83934   0.00000  Uiso   1.00
N625   N     0.29459   0.29787   0.53154   0.00000  Uiso   1.00
N626   N     0.12331   0.13391   0.97821   0.00000  Uiso   1.00
N627   N     0.16667   0.25001   0.87376   0.00000  Uiso   1.00
N628   N     0.30216   0.20653   0.65072   0.00000  Uiso   1.00
N629   N     0.02984   0.27196   0.85628   0.00000  Uiso   1.00
N630   N     0.22078   0.13767   0.87652   0.00000  Uiso   1.00
N631   N     0.04044   0.37612   0.70963   0.00000  Uiso   1.00
N632   N     0.19422   0.13326   0.62758   0.00000  Uiso   1.00
N633   N     0.30463   0.35112   0.78488   0.00000  Uiso   1.00
N634   N     0.20683   0.00244   0.63116   0.00000  Uiso   1.00
O635   O     0.16667   0.18453   0.78974   0.00000  Uiso   1.00
O636   O     0.16666   0.31546   0.71026   0.00000  Uiso   1.00
O637   O     0.16667   0.18453   0.71026   0.00000  Uiso   1.00
O638   O     0.16666   0.31547   0.78974   0.00000  Uiso   1.00
O639   O     0.09058   0.25000   0.78044   0.00000  Uiso   1.00
O640   O     0.24275   0.25000   0.71955   0.00000  Uiso   1.00
O641   O     0.09058   0.24999   0.70096   0.00000  Uiso   1.00
O642   O     0.24275   0.25000   0.79903   0.00000  Uiso   1.00
Zn643  Zn    0.16667   0.25000   0.80307   0.00000  Uiso   1.00
Zn644  Zn    0.16667   0.24999   0.69693   0.00000  Uiso   1.00
C645   C     0.50566   0.16399   0.75043   0.00000  Uiso   1.00
C646   C     0.48071   0.21080   0.94347   0.00000  Uiso   1.00
C647   C     0.50189   0.24808   0.52713   0.00000  Uiso   1.00
C648   C     0.50079   0.24753   0.97352   0.00000  Uiso   1.00
C649   C     0.40056   0.24833   0.73778   0.00000  Uiso   1.00
C650   C     0.59927   0.24821   0.76245   0.00000  Uiso   1.00
C651   C     0.34611   0.24121   0.73225   0.00000  Uiso   1.00
C652   C     0.65396   0.24864   0.76974   0.00000  Uiso   1.00
C653   C     0.53930   0.04774   0.79567   0.00000  Uiso   1.00
C654   C     0.47473   0.45816   0.73426   0.00000  Uiso   1.00
C655   C     0.53424   0.09440   0.79538   0.00000  Uiso   1.00
C656   C     0.50022   0.33602   0.75019   0.00000  Uiso   1.00
C657   C     0.46622   0.41158   0.73564   0.00000  Uiso   1.00
C658   C     0.52124   0.11663   0.75138   0.00000  Uiso   1.00
C659   C     0.50804   0.38405   0.75115   0.00000  Uiso   1.00
C660   C     0.52652   0.09336   0.70848   0.00000  Uiso   1.00
C661   C     0.55865   0.40201   0.76376   0.00000  Uiso   1.00
C662   C     0.53308   0.04712   0.70915   0.00000  Uiso   1.00
C663   C     0.56724   0.44822   0.76392   0.00000  Uiso   1.00
C664   C     0.53414   0.02444   0.75193   0.00000  Uiso   1.00
C665   C     0.52530   0.47602   0.75030   0.00000  Uiso   1.00
C666   C     0.65515   0.22190   0.68674   0.00000  Uiso   1.00
C667   C     0.46116   0.22771   0.54702   0.00000  Uiso   1.00
C668   C     0.34460   0.26161   0.81800   0.00000  Uiso   1.00
C669   C     0.55072   0.02338   0.84147   0.00000  Uiso   1.00
C670   C     0.51418   0.49326   0.85611   0.00000  Uiso   1.00
C671   C     0.52634   0.46958   0.89823   0.00000  Uiso   1.00
C672   C     0.57486   0.47589   0.92622   0.00000  Uiso   1.00
C673   C     0.61132   0.00593   0.91216   0.00000  Uiso   1.00
C674   C     0.59938   0.02958   0.87000   0.00000  Uiso   1.00
C675   C     0.43187   0.48768   0.71346   0.00000  Uiso   1.00
C676   C     0.41490   0.02275   0.74015   0.00000  Uiso   1.00
C677   C     0.37593   0.05081   0.71956   0.00000  Uiso   1.00
C678   C     0.51881   0.28536   0.95128   0.00000  Uiso   1.00
C679   C     0.35324   0.04403   0.67227   0.00000  Uiso   1.00
C680   C     0.36978   0.00940   0.64536   0.00000  Uiso   1.00
C681   C     0.40902   0.48148   0.66571   0.00000  Uiso   1.00
C682   C     0.54488   0.11870   0.84041   0.00000  Uiso   1.00
C683   C     0.41476   0.39187   0.72128   0.00000  Uiso   1.00
C684   C     0.52685   0.11579   0.66354   0.00000  Uiso   1.00
C685   C     0.60242   0.37329   0.77540   0.00000  Uiso   1.00
C686   C     0.53700   0.02226   0.66569   0.00000  Uiso   1.00
C687   C     0.61926   0.46708   0.77770   0.00000  Uiso   1.00
C688   C     0.42745   0.19624   0.61527   0.00000  Uiso   1.00
C689   C     0.46298   0.22606   0.59644   0.00000  Uiso   1.00
C690   C     0.54780   0.32210   0.88418   0.00000  Uiso   1.00
C691   C     0.57337   0.30289   0.63886   0.00000  Uiso   1.00
C692   C     0.44411   0.18264   0.86316   0.00000  Uiso   1.00
C693   C     0.58986   0.28541   0.54375   0.00000  Uiso   1.00
C694   C     0.46727   0.16811   0.96287   0.00000  Uiso   1.00
C695   C     0.52164   0.28481   0.90254   0.00000  Uiso   1.00
C696   C     0.53798   0.27343   0.60808   0.00000  Uiso   1.00
C697   C     0.47635   0.21482   0.89345   0.00000  Uiso   1.00
C698   C     0.54235   0.26969   0.55925   0.00000  Uiso   1.00
H699   H     0.42821   0.21211   0.52451   0.00000  Uiso   1.00
H700   H     0.65623   0.06565   0.65648   0.00000  Uiso   1.00
H701   H     0.35236   0.00429   0.60863   0.00000  Uiso   1.00
H702   H     0.42193   0.45520   0.64414   0.00000  Uiso   1.00
H703   H     0.53161   0.31550   0.97180   0.00000  Uiso   1.00
H704   H     0.47654   0.48761   0.83494   0.00000  Uiso   1.00
H705   H     0.49817   0.44621   0.90910   0.00000  Uiso   1.00
H706   H     0.58422   0.45746   0.95877   0.00000  Uiso   1.00
H707   H     0.64895   0.01073   0.93380   0.00000  Uiso   1.00
H708   H     0.62827   0.05232   0.85921   0.00000  Uiso   1.00
H709   H     0.43149   0.02854   0.77686   0.00000  Uiso   1.00
H710   H     0.36313   0.07768   0.74040   0.00000  Uiso   1.00
N711   N     0.50000   0.24999   0.62623   0.00000  Uiso   1.00
N712   N     0.66074   0.48184   0.78909   0.00000  Uiso   1.00
N713   N     0.39946   0.17135   0.63008   0.00000  Uiso   1.00
N714   N     0.56926   0.35256   0.87058   0.00000  Uiso   1.00
N715   N     0.60175   0.32684   0.66313   0.00000  Uiso   1.00
N716   N     0.41781   0.15680   0.83934   0.00000  Uiso   1.00
N717   N     0.62792   0.29787   0.53154   0.00000  Uiso   1.00
N718   N     0.45664   0.13391   0.97821   0.00000  Uiso   1.00
N719   N     0.50000   0.25001   0.87376   0.00000  Uiso   1.00
N720   N     0.63549   0.20653   0.65072   0.00000  Uiso   1.00
N721   N     0.36317   0.27196   0.85628   0.00000  Uiso   1.00
N722   N     0.55411   0.13767   0.87652   0.00000  Uiso   1.00
N723   N     0.37377   0.37612   0.70963   0.00000  Uiso   1.00
N724   N     0.52755   0.13326   0.62758   0.00000  Uiso   1.00
N725   N     0.63797   0.35112   0.78488   0.00000  Uiso   1.00
N726   N     0.54017   0.00244   0.63116   0.00000  Uiso   1.00
O727   O     0.50000   0.18453   0.78974   0.00000  Uiso   1.00
O728   O     0.50000   0.31546   0.71026   0.00000  Uiso   1.00
O729   O     0.50000   0.18453   0.71026   0.00000  Uiso   1.00
O730   O     0.50000   0.31547   0.78974   0.00000  Uiso   1.00
O731   O     0.42392   0.25000   0.78044   0.00000  Uiso   1.00
O732   O     0.57608   0.25000   0.71955   0.00000  Uiso   1.00
O733   O     0.42392   0.24999   0.70096   0.00000  Uiso   1.00
O734   O     0.57608   0.25000   0.79903   0.00000  Uiso   1.00
Zn735  Zn    0.50000   0.25000   0.80307   0.00000  Uiso   1.00
Zn736  Zn    0.50000   0.24999   0.69693   0.00000  Uiso   1.00
C737   C     0.83899   0.16399   0.75043   0.00000  Uiso   1.00
C738   C     0.81404   0.21080   0.94347   0.00000  Uiso   1.00
C739   C     0.83522   0.24808   0.52713   0.00000  Uiso   1.00
C740   C     0.83413   0.24753   0.97352   0.00000  Uiso   1.00
C741   C     0.73389   0.24833   0.73778   0.00000  Uiso   1.00
C742   C     0.93260   0.24821   0.76245   0.00000  Uiso   1.00
C743   C     0.67944   0.24121   0.73225   0.00000  Uiso   1.00
C744   C     0.98729   0.24864   0.76974   0.00000  Uiso   1.00
C745   C     0.87263   0.04774   0.79567   0.00000  Uiso   1.00
C746   C     0.80807   0.45816   0.73426   0.00000  Uiso   1.00
C747   C     0.86757   0.09440   0.79538   0.00000  Uiso   1.00
C748   C     0.83356   0.33602   0.75019   0.00000  Uiso   1.00
C749   C     0.79956   0.41158   0.73564   0.00000  Uiso   1.00
C750   C     0.85457   0.11663   0.75138   0.00000  Uiso   1.00
C751   C     0.84137   0.38405   0.75115   0.00000  Uiso   1.00
C752   C     0.85986   0.09336   0.70848   0.00000  Uiso   1.00
C753   C     0.89198   0.40201   0.76376   0.00000  Uiso   1.00
C754   C     0.86641   0.04712   0.70915   0.00000  Uiso   1.00
C755   C     0.90057   0.44822   0.76392   0.00000  Uiso   1.00
C756   C     0.86748   0.02444   0.75193   0.00000  Uiso   1.00
C757   C     0.85863   0.47602   0.75030   0.00000  Uiso   1.00
C758   C     0.98848   0.22190   0.68674   0.00000  Uiso   1.00
C759   C     0.79449   0.22771   0.54702   0.00000  Uiso   1.00
C760   C     0.67793   0.26161   0.81800   0.00000  Uiso   1.00
C761   C     0.88406   0.02338   0.84147   0.00000  Uiso   1.00
C762   C     0.84751   0.49326   0.85611   0.00000  Uiso   1.00
C763   C     0.85967   0.46958   0.89823   0.00000  Uiso   1.00
C764   C     0.90819   0.47589   0.92622   0.00000  Uiso   1.00
C765   C     0.94465   0.00593   0.91216   0.00000  Uiso   1.00
C766   C     0.93271   0.02958   0.87000   0.00000  Uiso   1.00
C767   C     0.76521   0.48768   0.71346   0.00000  Uiso   1.00
C768   C     0.74824   0.02275   0.74015   0.00000  Uiso   1.00
C769   C     0.70926   0.05081   0.71956   0.00000  Uiso   1.00
C770   C     0.85214   0.28536   0.95128   0.00000  Uiso   1.00
C771   C     0.68657   0.04403   0.67227   0.00000  Uiso   1.00
C772   C     0.70312   0.00940   0.64536   0.00000  Uiso   1.00
C773   C     0.74236   0.48148   0.66571   0.00000  Uiso   1.00
C774   C     0.87821   0.11870   0.84041   0.00000  Uiso   1.00
C775   C     0.74809   0.39187   0.72128   0.00000  Uiso   1.00
C776   C     0.86019   0.11579   0.66354   0.00000  Uiso   1.00
C777   C     0.93575   0.37329   0.77540   0.00000  Uiso   1.00
C778   C     0.87034   0.02226   0.66569   0.00000  Uiso   1.00
C779   C     0.95259   0.46708   0.77770   0.00000  Uiso   1.00
C780   C     0.76078   0.19624   0.61527   0.00000  Uiso   1.00
C781   C     0.79632   0.22606   0.59644   0.00000  Uiso   1.00
C782   C     0.88114   0.32210   0.88418   0.00000  Uiso   1.00
C783   C     0.90670   0.30289   0.63886   0.00000  Uiso   1.00
C784   C     0.77745   0.18264   0.86316   0.00000  Uiso   1.00
C785   C     0.92320   0.28541   0.54375   0.00000  Uiso   1.00
C786   C     0.80060   0.16811   0.96287   0.00000  Uiso   1.00
C787   C     0.85498   0.28481   0.90254   0.00000  Uiso   1.00
C788   C     0.87131   0.27343   0.60808   0.00000  Uiso   1.00
C789   C     0.80968   0.21482   0.89345   0.00000  Uiso   1.00
C790   C     0.87568   0.26969   0.55925   0.00000  Uiso   1.00
H791   H     0.76154   0.21211   0.52451   0.00000  Uiso   1.00
H792   H     0.98956   0.06565   0.65648   0.00000  Uiso   1.00
H793   H     0.68569   0.00429   0.60863   0.00000  Uiso   1.00
H794   H     0.75526   0.45520   0.64414   0.00000  Uiso   1.00
H795   H     0.86495   0.31550   0.97180   0.00000  Uiso   1.00
H796   H     0.80987   0.48761   0.83494   0.00000  Uiso   1.00
H797   H     0.83150   0.44621   0.90910   0.00000  Uiso   1.00
H798   H     0.91755   0.45746   0.95877   0.00000  Uiso   1.00
H799   H     0.98228   0.01073   0.93380   0.00000  Uiso   1.00
H800   H     0.96160   0.05232   0.85921   0.00000  Uiso   1.00
H801   H     0.76483   0.02854   0.77686   0.00000  Uiso   1.00
H802   H     0.69647   0.07768   0.74040   0.00000  Uiso   1.00
N803   N     0.83333   0.24999   0.62623   0.00000  Uiso   1.00
N804   N     0.99408   0.48184   0.78909   0.00000  Uiso   1.00
N805   N     0.73280   0.17135   0.63008   0.00000  Uiso   1.00
N806   N     0.90260   0.35256   0.87058   0.00000  Uiso   1.00
N807   N     0.93509   0.32684   0.66313   0.00000  Uiso   1.00
N808   N     0.75114   0.15680   0.83934   0.00000  Uiso   1.00
N809   N     0.96125   0.29787   0.53154   0.00000  Uiso   1.00
N810   N     0.78998   0.13391   0.97821   0.00000  Uiso   1.00
N811   N     0.83333   0.25001   0.87376   0.00000  Uiso   1.00
N812   N     0.96882   0.20653   0.65072   0.00000  Uiso   1.00
N813   N     0.69650   0.27196   0.85628   0.00000  Uiso   1.00
N814   N     0.88745   0.13767   0.87652   0.00000  Uiso   1.00
N815   N     0.70710   0.37612   0.70963   0.00000  Uiso   1.00
N816   N     0.86088   0.13326   0.62758   0.00000  Uiso   1.00
N817   N     0.97130   0.35112   0.78488   0.00000  Uiso   1.00
N818   N     0.87350   0.00244   0.63116   0.00000  Uiso   1.00
O819   O     0.83334   0.18453   0.78974   0.00000  Uiso   1.00
O820   O     0.83333   0.31546   0.71026   0.00000  Uiso   1.00
O821   O     0.83334   0.18453   0.71026   0.00000  Uiso   1.00
O822   O     0.83333   0.31547   0.78974   0.00000  Uiso   1.00
O823   O     0.75725   0.25000   0.78044   0.00000  Uiso   1.00
O824   O     0.90942   0.25000   0.71955   0.00000  Uiso   1.00
O825   O     0.75725   0.24999   0.70096   0.00000  Uiso   1.00
O826   O     0.90942   0.25000   0.79903   0.00000  Uiso   1.00
Zn827  Zn    0.83333   0.25000   0.80307   0.00000  Uiso   1.00
Zn828  Zn    0.83333   0.24999   0.69693   0.00000  Uiso   1.00
C829   C     0.17233   0.66399   0.75043   0.00000  Uiso   1.00
C830   C     0.14737   0.71080   0.94347   0.00000  Uiso   1.00
C831   C     0.16856   0.74808   0.52713   0.00000  Uiso   1.00
C832   C     0.16746   0.74753   0.97352   0.00000  Uiso   1.00
C833   C     0.06723   0.74833   0.73778   0.00000  Uiso   1.00
C834   C     0.26593   0.74821   0.76245   0.00000  Uiso   1.00
C835   C     0.01277   0.74121   0.73225   0.00000  Uiso   1.00
C836   C     0.32062   0.74864   0.76974   0.00000  Uiso   1.00
C837   C     0.20597   0.54774   0.79567   0.00000  Uiso   1.00
C838   C     0.14140   0.95816   0.73426   0.00000  Uiso   1.00
C839   C     0.20090   0.59440   0.79538   0.00000  Uiso   1.00
C840   C     0.16689   0.83602   0.75019   0.00000  Uiso   1.00
C841   C     0.13289   0.91158   0.73564   0.00000  Uiso   1.00
C842   C     0.18791   0.61663   0.75138   0.00000  Uiso   1.00
C843   C     0.17470   0.88405   0.75115   0.00000  Uiso   1.00
C844   C     0.19319   0.59336   0.70848   0.00000  Uiso   1.00
C845   C     0.22532   0.90201   0.76376   0.00000  Uiso   1.00
C846   C     0.19974   0.54712   0.70915   0.00000  Uiso   1.00
C847   C     0.23391   0.94822   0.76392   0.00000  Uiso   1.00
C848   C     0.20081   0.52444   0.75193   0.00000  Uiso   1.00
C849   C     0.19197   0.97602   0.75030   0.00000  Uiso   1.00
C850   C     0.32182   0.72190   0.68674   0.00000  Uiso   1.00
C851   C     0.12782   0.72771   0.54702   0.00000  Uiso   1.00
C852   C     0.01127   0.76161   0.81800   0.00000  Uiso   1.00
C853   C     0.21739   0.52338   0.84147   0.00000  Uiso   1.00
C854   C     0.18084   0.99326   0.85611   0.00000  Uiso   1.00
C855   C     0.19301   0.96958   0.89823   0.00000  Uiso   1.00
C856   C     0.24152   0.97589   0.92622   0.00000  Uiso   1.00
C857   C     0.27798   0.50593   0.91216   0.00000  Uiso   1.00
C858   C     0.26605   0.52958   0.87000   0.00000  Uiso   1.00
C859   C     0.09854   0.98768   0.71346   0.00000  Uiso   1.00
C860   C     0.08157   0.52275   0.74015   0.00000  Uiso   1.00
C861   C     0.04260   0.55081   0.71956   0.00000  Uiso   1.00
C862   C     0.18548   0.78536   0.95128   0.00000  Uiso   1.00
C863   C     0.01990   0.54403   0.67227   0.00000  Uiso   1.00
C864   C     0.03645   0.50940   0.64536   0.00000  Uiso   1.00
C865   C     0.07569   0.98148   0.66571   0.00000  Uiso   1.00
C866   C     0.21154   0.61870   0.84041   0.00000  Uiso   1.00
C867   C     0.08143   0.89187   0.72128   0.00000  Uiso   1.00
C868   C     0.19352   0.61579   0.66354   0.00000  Uiso   1.00
C869   C     0.26909   0.87329   0.77540   0.00000  Uiso   1.00
C870   C     0.20367   0.52226   0.66569   0.00000  Uiso   1.00
C871   C     0.28593   0.96708   0.77770   0.00000  Uiso   1.00
C872   C     0.09411   0.69624   0.61527   0.00000  Uiso   1.00
C873   C     0.12965   0.72606   0.59644   0.00000  Uiso   1.00
C874   C     0.21447   0.82210   0.88418   0.00000  Uiso   1.00
C875   C     0.24004   0.80289   0.63886   0.00000  Uiso   1.00
C876   C     0.11078   0.68264   0.86316   0.00000  Uiso   1.00
C877   C     0.25653   0.78541   0.54375   0.00000  Uiso   1.00
C878   C     0.13394   0.66811   0.96287   0.00000  Uiso   1.00
C879   C     0.18831   0.78481   0.90254   0.00000  Uiso   1.00
C880   C     0.20465   0.77343   0.60808   0.00000  Uiso   1.00
C881   C     0.14301   0.71482   0.89345   0.00000  Uiso   1.00
C882   C     0.20902   0.76969   0.55925   0.00000  Uiso   1.00
H883   H     0.09487   0.71211   0.52451   0.00000  Uiso   1.00
H884   H     0.32289   0.56565   0.65648   0.00000  Uiso   1.00
H885   H     0.01902   0.50429   0.60863   0.00000  Uiso   1.00
H886   H     0.08859   0.95520   0.64414   0.00000  Uiso   1.00
H887   H     0.19828   0.81550   0.97180   0.00000  Uiso   1.00
H888   H     0.14321   0.98761   0.83494   0.00000  Uiso   1.00
H889   H     0.16484   0.94621   0.90910   0.00000  Uiso   1.00
H890   H     0.25088   0.95746   0.95877   0.00000  Uiso   1.00
H891   H     0.31561   0.51073   0.93380   0.00000  Uiso   1.00
H892   H     0.29493   0.55232   0.85921   0.00000  Uiso   1.00
H893   H     0.09816   0.52854   0.77686   0.00000  Uiso   1.00
H894   H     0.02980   0.57768   0.74040   0.00000  Uiso   1.00
N895   N     0.16667   0.74999   0.62623   0.00000  Uiso   1.00
N896   N     0.32741   0.98184   0.78909   0.00000  Uiso   1.00
N897   N     0.06613   0.67135   0.63008   0.00000  Uiso   1.00
N898   N     0.23593   0.85256   0.87058   0.00000  Uiso   1.00
N899   N     0.26842   0.82684   0.66313   0.00000  Uiso   1.00
N900   N     0.08447   0.65680   0.83934   0.00000  Uiso   1.00
N901   N     0.29459   0.79787   0.53154   0.00000  Uiso   1.00
N902   N     0.12331   0.63391   0.97821   0.00000  Uiso   1.00
N903   N     0.16667   0.75001   0.87376   0.00000  Uiso   1.00
N904   N     0.30216   0.70653   0.65072   0.00000  Uiso   1.00
N905   N     0.02984   0.77196   0.85628   0.00000  Uiso   1.00
N906   N     0.22078   0.63767   0.87652   0.00000  Uiso   1.00
N907   N     0.04044   0.87612   0.70963   0.00000  Uiso   1.00
N908   N     0.19422   0.63326   0.62758   0.00000  Uiso   1.00
N909   N     0.30463   0.85112   0.78488   0.00000  Uiso   1.00
N910   N     0.20683   0.50244   0.63116   0.00000  Uiso   1.00
O911   O     0.16667   0.68453   0.78974   0.00000  Uiso   1.00
O912   O     0.16666   0.81546   0.71026   0.00000  Uiso   1.00
O913   O     0.16667   0.68453   0.71026   0.00000  Uiso   1.00
O914   O     0.16666   0.81547   0.78974   0.00000  Uiso   1.00
O915   O     0.09058   0.75000   0.78044   0.00000  Uiso   1.00
O916   O     0.24275   0.75000   0.71955   0.00000  Uiso   1.00
O917   O     0.09058   0.74999   0.70096   0.00000  Uiso   1.00
O918   O     0.24275   0.75000   0.79903   0.00000  Uiso   1.00
Zn919  Zn    0.16667   0.75000   0.80307   0.00000  Uiso   1.00
Zn920  Zn    0.16667   0.74999   0.69693   0.00000  Uiso   1.00
C921   C     0.50566   0.66399   0.75043   0.00000  Uiso   1.00
C922   C     0.48071   0.71080   0.94347   0.00000  Uiso   1.00
C923   C     0.50189   0.74808   0.52713   0.00000  Uiso   1.00
C924   C     0.50079   0.74753   0.97352   0.00000  Uiso   1.00
C925   C     0.40056   0.74833   0.73778   0.00000  Uiso   1.00
C926   C     0.59927   0.74821   0.76245   0.00000  Uiso   1.00
C927   C     0.34611   0.74121   0.73225   0.00000  Uiso   1.00
C928   C     0.65396   0.74864   0.76974   0.00000  Uiso   1.00
C929   C     0.53930   0.54774   0.79567   0.00000  Uiso   1.00
C930   C     0.47473   0.95816   0.73426   0.00000  Uiso   1.00
C931   C     0.53424   0.59440   0.79538   0.00000  Uiso   1.00
C932   C     0.50022   0.83602   0.75019   0.00000  Uiso   1.00
C933   C     0.46622   0.91158   0.73564   0.00000  Uiso   1.00
C934   C     0.52124   0.61663   0.75138   0.00000  Uiso   1.00
C935   C     0.50804   0.88405   0.75115   0.00000  Uiso   1.00
C936   C     0.52652   0.59336   0.70848   0.00000  Uiso   1.00
C937   C     0.55865   0.90201   0.76376   0.00000  Uiso   1.00
C938   C     0.53308   0.54712   0.70915   0.00000  Uiso   1.00
C939   C     0.56724   0.94822   0.76392   0.00000  Uiso   1.00
C940   C     0.53414   0.52444   0.75193   0.00000  Uiso   1.00
C941   C     0.52530   0.97602   0.75030   0.00000  Uiso   1.00
C942   C     0.65515   0.72190   0.68674   0.00000  Uiso   1.00
C943   C     0.46116   0.72771   0.54702   0.00000  Uiso   1.00
C944   C     0.34460   0.76161   0.81800   0.00000  Uiso   1.00
C945   C     0.55072   0.52338   0.84147   0.00000  Uiso   1.00
C946   C     0.51418   0.99326   0.85611   0.00000  Uiso   1.00
C947   C     0.52634   0.96958   0.89823   0.00000  Uiso   1.00
C948   C     0.57486   0.97589   0.92622   0.00000  Uiso   1.00
C949   C     0.61132   0.50593   0.91216   0.00000  Uiso   1.00
C950   C     0.59938   0.52958   0.87000   0.00000  Uiso   1.00
C951   C     0.43187   0.98768   0.71346   0.00000  Uiso   1.00
C952   C     0.41490   0.52275   0.74015   0.00000  Uiso   1.00
C953   C     0.37593   0.55081   0.71956   0.00000  Uiso   1.00
C954   C     0.51881   0.78536   0.95128   0.00000  Uiso   1.00
C955   C     0.35324   0.54403   0.67227   0.00000  Uiso   1.00
C956   C     0.36978   0.50940   0.64536   0.00000  Uiso   1.00
C957   C     0.40902   0.98148   0.66571   0.00000  Uiso   1.00
C958   C     0.54488   0.61870   0.84041   0.00000  Uiso   1.00
C959   C     0.41476   0.89187   0.72128   0.00000  Uiso   1.00
C960   C     0.52685   0.61579   0.66354   0.00000  Uiso   1.00
C961   C     0.60242   0.87329   0.77540   0.00000  Uiso   1.00
C962   C     0.53700   0.52226   0.66569   0.00000  Uiso   1.00
C963   C     0.61926   0.96708   0.77770   0.00000  Uiso   1.00
C964   C     0.42745   0.69624   0.61527   0.00000  Uiso   1.00
C965   C     0.46298   0.72606   0.59644   0.00000  Uiso   1.00
C966   C     0.54780   0.82210   0.88418   0.00000  Uiso   1.00
C967   C     0.57337   0.80289   0.63886   0.00000  Uiso   1.00
C968   C     0.44411   0.68264   0.86316   0.00000  Uiso   1.00
C969   C     0.58986   0.78541   0.54375   0.00000  Uiso   1.00
C970   C     0.46727   0.66811   0.96287   0.00000  Uiso   1.00
C971   C     0.52164   0.78481   0.90254   0.00000  Uiso   1.00
C972   C     0.53798   0.77343   0.60808   0.00000  Uiso   1.00
C973   C     0.47635   0.71482   0.89345   0.00000  Uiso   1.00
C974   C     0.54235   0.76969   0.55925   0.00000  Uiso   1.00
H975   H     0.42821   0.71211   0.52451   0.00000  Uiso   1.00
H976   H     0.65623   0.56565   0.65648   0.00000  Uiso   1.00
H977   H     0.35236   0.50429   0.60863   0.00000  Uiso   1.00
H978   H     0.42193   0.95520   0.64414   0.00000  Uiso   1.00
H979   H     0.53161   0.81550   0.97180   0.00000  Uiso   1.00
H980   H     0.47654   0.98761   0.83494   0.00000  Uiso   1.00
H981   H     0.49817   0.94621   0.90910   0.00000  Uiso   1.00
H982   H     0.58422   0.95746   0.95877   0.00000  Uiso   1.00
H983   H     0.64895   0.51073   0.93380   0.00000  Uiso   1.00
H984   H     0.62827   0.55232   0.85921   0.00000  Uiso   1.00
H985   H     0.43149   0.52854   0.77686   0.00000  Uiso   1.00
H986   H     0.36313   0.57768   0.74040   0.00000  Uiso   1.00
N987   N     0.50000   0.74999   0.62623   0.00000  Uiso   1.00
N988   N     0.66074   0.98184   0.78909   0.00000  Uiso   1.00
N989   N     0.39946   0.67135   0.63008   0.00000  Uiso   1.00
N990   N     0.56926   0.85256   0.87058   0.00000  Uiso   1.00
N991   N     0.60175   0.82684   0.66313   0.00000  Uiso   1.00
N992   N     0.41781   0.65680   0.83934   0.00000  Uiso   1.00
N993   N     0.62792   0.79787   0.53154   0.00000  Uiso   1.00
N994   N     0.45664   0.63391   0.97821   0.00000  Uiso   1.00
N995   N     0.50000   0.75001   0.87376   0.00000  Uiso   1.00
N996   N     0.63549   0.70653   0.65072   0.00000  Uiso   1.00
N997   N     0.36317   0.77196   0.85628   0.00000  Uiso   1.00
N998   N     0.55411   0.63767   0.87652   0.00000  Uiso   1.00
N999   N     0.37377   0.87612   0.70963   0.00000  Uiso   1.00
N1000  N     0.52755   0.63326   0.62758   0.00000  Uiso   1.00
N1001  N     0.63797   0.85112   0.78488   0.00000  Uiso   1.00
N1002  N     0.54017   0.50244   0.63116   0.00000  Uiso   1.00
O1003  O     0.50000   0.68453   0.78974   0.00000  Uiso   1.00
O1004  O     0.50000   0.81546   0.71026   0.00000  Uiso   1.00
O1005  O     0.50000   0.68453   0.71026   0.00000  Uiso   1.00
O1006  O     0.50000   0.81547   0.78974   0.00000  Uiso   1.00
O1007  O     0.42392   0.75000   0.78044   0.00000  Uiso   1.00
O1008  O     0.57608   0.75000   0.71955   0.00000  Uiso   1.00
O1009  O     0.42392   0.74999   0.70096   0.00000  Uiso   1.00
O1010  O     0.57608   0.75000   0.79903   0.00000  Uiso   1.00
Zn1011 Zn    0.50000   0.75000   0.80307   0.00000  Uiso   1.00
Zn1012 Zn    0.50000   0.74999   0.69693   0.00000  Uiso   1.00
C1013  C     0.83899   0.66399   0.75043   0.00000  Uiso   1.00
C1014  C     0.81404   0.71080   0.94347   0.00000  Uiso   1.00
C1015  C     0.83522   0.74808   0.52713   0.00000  Uiso   1.00
C1016  C     0.83413   0.74753   0.97352   0.00000  Uiso   1.00
C1017  C     0.73389   0.74833   0.73778   0.00000  Uiso   1.00
C1018  C     0.93260   0.74821   0.76245   0.00000  Uiso   1.00
C1019  C     0.67944   0.74121   0.73225   0.00000  Uiso   1.00
C1020  C     0.98729   0.74864   0.76974   0.00000  Uiso   1.00
C1021  C     0.87263   0.54774   0.79567   0.00000  Uiso   1.00
C1022  C     0.80807   0.95816   0.73426   0.00000  Uiso   1.00
C1023  C     0.86757   0.59440   0.79538   0.00000  Uiso   1.00
C1024  C     0.83356   0.83602   0.75019   0.00000  Uiso   1.00
C1025  C     0.79956   0.91158   0.73564   0.00000  Uiso   1.00
C1026  C     0.85457   0.61663   0.75138   0.00000  Uiso   1.00
C1027  C     0.84137   0.88405   0.75115   0.00000  Uiso   1.00
C1028  C     0.85986   0.59336   0.70848   0.00000  Uiso   1.00
C1029  C     0.89198   0.90201   0.76376   0.00000  Uiso   1.00
C1030  C     0.86641   0.54712   0.70915   0.00000  Uiso   1.00
C1031  C     0.90057   0.94822   0.76392   0.00000  Uiso   1.00
C1032  C     0.86748   0.52444   0.75193   0.00000  Uiso   1.00
C1033  C     0.85863   0.97602   0.75030   0.00000  Uiso   1.00
C1034  C     0.98848   0.72190   0.68674   0.00000  Uiso   1.00
C1035  C     0.79449   0.72771   0.54702   0.00000  Uiso   1.00
C1036  C     0.67793   0.76161   0.81800   0.00000  Uiso   1.00
C1037  C     0.88406   0.52338   0.84147   0.00000  Uiso   1.00
C1038  C     0.84751   0.99326   0.85611   0.00000  Uiso   1.00
C1039  C     0.85967   0.96958   0.89823   0.00000  Uiso   1.00
C1040  C     0.90819   0.97589   0.92622   0.00000  Uiso   1.00
C1041  C     0.94465   0.50593   0.91216   0.00000  Uiso   1.00
C1042  C     0.93271   0.52958   0.87000   0.00000  Uiso   1.00
C1043  C     0.76521   0.98768   0.71346   0.00000  Uiso   1.00
C1044  C     0.74824   0.52275   0.74015   0.00000  Uiso   1.00
C1045  C     0.70926   0.55081   0.71956   0.00000  Uiso   1.00
C1046  C     0.85214   0.78536   0.95128   0.00000  Uiso   1.00
C1047  C     0.68657   0.54403   0.67227   0.00000  Uiso   1.00
C1048  C     0.70312   0.50940   0.64536   0.00000  Uiso   1.00
C1049  C     0.74236   0.98148   0.66571   0.00000  Uiso   1.00
C1050  C     0.87821   0.61870   0.84041   0.00000  Uiso   1.00
C1051  C     0.74809   0.89187   0.72128   0.00000  Uiso   1.00
C1052  C     0.86019   0.61579   0.66354   0.00000  Uiso   1.00
C1053  C     0.93575   0.87329   0.77540   0.00000  Uiso   1.00
C1054  C     0.87034   0.52226   0.66569   0.00000  Uiso   1.00
C1055  C     0.95259   0.96708   0.77770   0.00000  Uiso   1.00
C1056  C     0.76078   0.69624   0.61527   0.00000  Uiso   1.00
C1057  C     0.79632   0.72606   0.59644   0.00000  Uiso   1.00
C1058  C     0.88114   0.82210   0.88418   0.00000  Uiso   1.00
C1059  C     0.90670   0.80289   0.63886   0.00000  Uiso   1.00
C1060  C     0.77745   0.68264   0.86316   0.00000  Uiso   1.00
C1061  C     0.92320   0.78541   0.54375   0.00000  Uiso   1.00
C1062  C     0.80060   0.66811   0.96287   0.00000  Uiso   1.00
C1063  C     0.85498   0.78481   0.90254   0.00000  Uiso   1.00
C1064  C     0.87131   0.77343   0.60808   0.00000  Uiso   1.00
C1065  C     0.80968   0.71482   0.89345   0.00000  Uiso   1.00
C1066  C     0.87568   0.76969   0.55925   0.00000  Uiso   1.00
H1067  H     0.76154   0.71211   0.52451   0.00000  Uiso   1.00
H1068  H     0.98956   0.56565   0.65648   0.00000  Uiso   1.00
H1069  H     0.68569   0.50429   0.60863   0.00000  Uiso   1.00
H1070  H     0.75526   0.95520   0.64414   0.00000  Uiso   1.00
H1071  H     0.86495   0.81550   0.97180   0.00000  Uiso   1.00
H1072  H     0.80987   0.98761   0.83494   0.00000  Uiso   1.00
H1073  H     0.83150   0.94621   0.90910   0.00000  Uiso   1.00
H1074  H     0.91755   0.95746   0.95877   0.00000  Uiso   1.00
H1075  H     0.98228   0.51073   0.93380   0.00000  Uiso   1.00
H1076  H     0.96160   0.55232   0.85921   0.00000  Uiso   1.00
H1077  H     0.76483   0.52854   0.77686   0.00000  Uiso   1.00
H1078  H     0.69647   0.57768   0.74040   0.00000  Uiso   1.00
N1079  N     0.83333   0.74999   0.62623   0.00000  Uiso   1.00
N1080  N     0.99408   0.98184   0.78909   0.00000  Uiso   1.00
N1081  N     0.73280   0.67135   0.63008   0.00000  Uiso   1.00
N1082  N     0.90260   0.85256   0.87058   0.00000  Uiso   1.00
N1083  N     0.93509   0.82684   0.66313   0.00000  Uiso   1.00
N1084  N     0.75114   0.65680   0.83934   0.00000  Uiso   1.00
N1085  N     0.96125   0.79787   0.53154   0.00000  Uiso   1.00
N1086  N     0.78998   0.63391   0.97821   0.00000  Uiso   1.00
N1087  N     0.83333   0.75001   0.87376   0.00000  Uiso   1.00
N1088  N     0.96882   0.70653   0.65072   0.00000  Uiso   1.00
N1089  N     0.69650   0.77196   0.85628   0.00000  Uiso   1.00
N1090  N     0.88745   0.63767   0.87652   0.00000  Uiso   1.00
N1091  N     0.70710   0.87612   0.70963   0.00000  Uiso   1.00
N1092  N     0.86088   0.63326   0.62758   0.00000  Uiso   1.00
N1093  N     0.97130   0.85112   0.78488   0.00000  Uiso   1.00
N1094  N     0.87350   0.50244   0.63116   0.00000  Uiso   1.00
O1095  O     0.83334   0.68453   0.78974   0.00000  Uiso   1.00
O1096  O     0.83333   0.81546   0.71026   0.00000  Uiso   1.00
O1097  O     0.83334   0.68453   0.71026   0.00000  Uiso   1.00
O1098  O     0.83333   0.81547   0.78974   0.00000  Uiso   1.00
O1099  O     0.75725   0.75000   0.78044   0.00000  Uiso   1.00
O1100  O     0.90942   0.75000   0.71955   0.00000  Uiso   1.00
O1101  O     0.75725   0.74999   0.70096   0.00000  Uiso   1.00
O1102  O     0.90942   0.75000   0.79903   0.00000  Uiso   1.00
Zn1103 Zn    0.83333   0.75000   0.80307   0.00000  Uiso   1.00
Zn1104 Zn    0.83333   0.74999   0.69693   0.00000  Uiso   1.00
loop_
_geom_bond_atom_site_label_1
_geom_bond_atom_site_label_2
_geom_bond_distance
_geom_bond_site_symmetry_2
_ccdc_geom_bond_type
C1     O85     1.295   .     A
C1     O83     1.301   .     A
C1     C14     1.479   .     S
C2     C50     1.450   .     S
C2     C4      1.419   .     A
C2     C53     1.419   .     A
C3     C23     1.409   .     A
C3     C54     1.421   .     A
C3     C556    1.524   1_554 S
C4     C34     1.405   .     A
C4     C555    1.524   .     S
C5     C7      1.418   .     S
C5     O87     1.273   .     A
C5     O89     1.294   .     A
C6     O88     1.280   .     A
C6     C8      1.413   .     S
C6     O90     1.287   .     A
C7     C192    1.363   1_455 S
C7     C206    1.458   1_455 S
C8     C99     1.363   .     S
C8     C116    1.464   .     S
C9     C25     1.494   .     S
C9     C20     1.406   .     A
C9     C11     1.401   .     A
C10    C31     1.498   .     S
C10    C21     1.418   .     A
C10    C13     1.402   .     A
C11    C38     1.451   .     S
C11    C14     1.424   .     A
C12    O84     1.285   .     A
C12    C15     1.440   .     S
C12    O86     1.290   .     A
C13    C15     1.405   .     A
C13    C39     1.451   .     S
C14    C16     1.426   .     A
C15    C17     1.406   .     A
C16    C40     1.453   .     S
C16    C18     1.393   .     A
C17    C19     1.389   .     A
C17    C41     1.448   .     S
C18    C20     1.398   .     A
C18    C42     1.455   .     S
C19    C21     1.402   .     A
C19    C43     1.452   .     S
C20    C297    1.454   1_545 S
C21    C296    1.454   .     S
C22    N76     1.158   .     T
C22    C99     1.458   .     S
C23    C45     1.403   .     A
C23    H55     1.081   .     S
C24    N77     1.158   .     T
C24    C192    1.464   1_455 S
C25    C30     1.406   .     A
C25    C302    1.407   1_545 S
C26    C27     1.398   .     A
C26    H60     1.080   .     S
C26    C301    1.407   .     S
C27    H61     1.082   .     S
C27    C28     1.397   .     A
C28    H62     1.082   .     S
C28    C305    1.397   .     S
C29    H63     1.082   .     S
C29    C30     1.398   .     A
C29    C304    1.397   1_545 S
C30    H64     1.083   .     S
C31    C37     1.407   .     A
C31    C308    1.407   .     S
C32    C33     1.399   .     A
C32    H65     1.079   .     S
C32    C307    1.407   1_545 S
C33    C35     1.396   .     A
C33    H66     1.083   .     S
C34    C51     1.403   .     A
C34    H59     1.082   .     S
C35    C36     1.397   .     A
C35    H240    1.083   1_455 S
C36    H57     1.082   .     S
C36    C313    1.399   1_545 S
C37    H58     1.083   .     S
C37    C312    1.399   .     S
C38    N78     1.157   .     T
C39    N79     1.157   .     T
C40    N80     1.157   .     T
C41    N81     1.155   .     T
C42    N82     1.157   .     T
C43    N68     1.156   .     T
C44    N69     1.157   .     T
C44    C45     1.436   .     S
C45    N67     1.364   .     A
C46    N70     1.156   .     T
C46    C51     1.435   .     S
C47    N71     1.157   .     T
C47    C52     1.443   .     S
C48    N72     1.158   .     T
C48    C53     1.444   .     S
C49    C54     1.450   .     S
C49    N73     1.158   .     T
C50    N74     1.158   .     T
C51    N75     1.369   .     A
C52    C54     1.417   .     A
C52    N67     1.368   .     A
C53    N75     1.372   .     A
H56    C127    1.083   .     S
N67    Zn92    2.015   .     S
N75    Zn91    2.015   .     S
O83    Zn91    1.984   .     S
O84    Zn92    1.984   .     S
O85    Zn92    1.992   .     S
O86    Zn91    1.992   .     S
O87    Zn91    1.994   .     S
O88    Zn92    1.994   .     S
O89    Zn92    2.011   .     S
O90    Zn91    2.011   .     S
C93    O177    1.295   .     A
C93    O175    1.301   .     A
C93    C106    1.479   .     S
C94    C142    1.450   .     S
C94    C96     1.419   .     A
C94    C145    1.419   .     A
C95    C115    1.409   .     A
C95    C146    1.421   .     A
C95    C648    1.524   1_554 S
C96    C126    1.405   .     A
C96    C647    1.524   .     S
C97    C99     1.418   .     S
C97    O179    1.273   .     A
C97    O181    1.294   .     A
C98    O180    1.280   .     A
C98    C100    1.413   .     S
C98    O182    1.287   .     A
C100   C191    1.363   .     S
C100   C208    1.464   .     S
C101   C117    1.494   .     S
C101   C112    1.406   .     A
C101   C103    1.401   .     A
C102   C123    1.498   .     S
C102   C113    1.418   .     A
C102   C105    1.402   .     A
C103   C130    1.451   .     S
C103   C106    1.424   .     A
C104   O176    1.285   .     A
C104   C107    1.440   .     S
C104   O178    1.290   .     A
C105   C107    1.405   .     A
C105   C131    1.451   .     S
C106   C108    1.426   .     A
C107   C109    1.406   .     A
C108   C132    1.453   .     S
C108   C110    1.393   .     A
C109   C111    1.389   .     A
C109   C133    1.448   .     S
C110   C112    1.398   .     A
C110   C134    1.455   .     S
C111   C113    1.402   .     A
C111   C135    1.452   .     S
C112   C389    1.454   1_545 S
C113   C388    1.454   .     S
C114   N168    1.158   .     T
C114   C191    1.458   .     S
C115   C137    1.403   .     A
C115   H147    1.081   .     S
C116   N169    1.158   .     T
C117   C122    1.406   .     A
C117   C394    1.407   1_545 S
C118   C119    1.398   .     A
C118   H152    1.080   .     S
C118   C393    1.407   .     S
C119   H153    1.082   .     S
C119   C120    1.397   .     A
C120   H154    1.082   .     S
C120   C397    1.397   .     S
C121   H155    1.082   .     S
C121   C122    1.398   .     A
C121   C396    1.397   1_545 S
C122   H156    1.083   .     S
C123   C129    1.407   .     A
C123   C400    1.407   .     S
C124   C125    1.399   .     A
C124   H157    1.079   .     S
C124   C399    1.407   1_545 S
C125   C127    1.396   .     A
C125   H158    1.083   .     S
C126   C143    1.403   .     A
C126   H151    1.082   .     S
C127   C128    1.397   .     A
C128   H149    1.082   .     S
C128   C405    1.399   1_545 S
C129   H150    1.083   .     S
C129   C404    1.399   .     S
C130   N170    1.157   .     T
C131   N171    1.157   .     T
C132   N172    1.157   .     T
C133   N173    1.155   .     T
C134   N174    1.157   .     T
C135   N160    1.156   .     T
C136   N161    1.157   .     T
C136   C137    1.436   .     S
C137   N159    1.364   .     A
C138   N162    1.156   .     T
C138   C143    1.435   .     S
C139   N163    1.157   .     T
C139   C144    1.443   .     S
C140   N164    1.158   .     T
C140   C145    1.444   .     S
C141   C146    1.450   .     S
C141   N165    1.158   .     T
C142   N166    1.158   .     T
C143   N167    1.369   .     A
C144   C146    1.417   .     A
C144   N159    1.368   .     A
C145   N167    1.372   .     A
H148   C219    1.083   .     S
N159   Zn184   2.015   .     S
N167   Zn183   2.015   .     S
O175   Zn183   1.984   .     S
O176   Zn184   1.984   .     S
O177   Zn184   1.992   .     S
O178   Zn183   1.992   .     S
O179   Zn183   1.994   .     S
O180   Zn184   1.994   .     S
O181   Zn184   2.011   .     S
O182   Zn183   2.011   .     S
C185   O269    1.295   .     A
C185   O267    1.301   .     A
C185   C198    1.479   .     S
C186   C234    1.450   .     S
C186   C188    1.419   .     A
C186   C237    1.419   .     A
C187   C207    1.409   .     A
C187   C238    1.421   .     A
C187   C740    1.524   1_554 S
C188   C218    1.405   .     A
C188   C739    1.524   .     S
C189   C191    1.418   .     S
C189   O271    1.273   .     A
C189   O273    1.294   .     A
C190   O272    1.280   .     A
C190   C192    1.413   .     S
C190   O274    1.287   .     A
C192   C7      1.363   1_655 S
C192   C24     1.464   1_655 S
C193   C209    1.494   .     S
C193   C204    1.406   .     A
C193   C195    1.401   .     A
C194   C215    1.498   .     S
C194   C205    1.418   .     A
C194   C197    1.402   .     A
C195   C222    1.451   .     S
C195   C198    1.424   .     A
C196   O268    1.285   .     A
C196   C199    1.440   .     S
C196   O270    1.290   .     A
C197   C199    1.405   .     A
C197   C223    1.451   .     S
C198   C200    1.426   .     A
C199   C201    1.406   .     A
C200   C224    1.453   .     S
C200   C202    1.393   .     A
C201   C203    1.389   .     A
C201   C225    1.448   .     S
C202   C204    1.398   .     A
C202   C226    1.455   .     S
C203   C205    1.402   .     A
C203   C227    1.452   .     S
C204   C481    1.454   1_545 S
C205   C480    1.454   .     S
C206   N260    1.158   .     T
C206   C7      1.458   1_655 S
C207   C229    1.403   .     A
C207   H239    1.081   .     S
C208   N261    1.158   .     T
C209   C214    1.406   .     A
C209   C486    1.407   1_545 S
C210   C211    1.398   .     A
C210   H244    1.080   .     S
C210   C485    1.407   .     S
C211   H245    1.082   .     S
C211   C212    1.397   .     A
C212   H246    1.082   .     S
C212   C489    1.397   .     S
C213   H247    1.082   .     S
C213   C214    1.398   .     A
C213   C488    1.397   1_545 S
C214   H248    1.083   .     S
C215   C221    1.407   .     A
C215   C492    1.407   .     S
C216   C217    1.399   .     A
C216   H249    1.079   .     S
C216   C491    1.407   1_545 S
C217   C219    1.396   .     A
C217   H250    1.083   .     S
C218   C235    1.403   .     A
C218   H243    1.082   .     S
C219   C220    1.397   .     A
C220   H241    1.082   .     S
C220   C497    1.399   1_545 S
C221   H242    1.083   .     S
C221   C496    1.399   .     S
C222   N262    1.157   .     T
C223   N263    1.157   .     T
C224   N264    1.157   .     T
C225   N265    1.155   .     T
C226   N266    1.157   .     T
C227   N252    1.156   .     T
C228   N253    1.157   .     T
C228   C229    1.436   .     S
C229   N251    1.364   .     A
C230   N254    1.156   .     T
C230   C235    1.435   .     S
C231   N255    1.157   .     T
C231   C236    1.443   .     S
C232   N256    1.158   .     T
C232   C237    1.444   .     S
C233   C238    1.450   .     S
C233   N257    1.158   .     T
C234   N258    1.158   .     T
C235   N259    1.369   .     A
C236   C238    1.417   .     A
C236   N251    1.368   .     A
C237   N259    1.372   .     A
H240   C35     1.083   1_655 S
N251   Zn276   2.015   .     S
N259   Zn275   2.015   .     S
O267   Zn275   1.984   .     S
O268   Zn276   1.984   .     S
O269   Zn276   1.992   .     S
O270   Zn275   1.992   .     S
O271   Zn275   1.994   .     S
O272   Zn276   1.994   .     S
O273   Zn276   2.011   .     S
O274   Zn275   2.011   .     S
C277   O361    1.295   .     A
C277   O359    1.301   .     A
C277   C290    1.479   .     S
C278   C326    1.450   .     S
C278   C280    1.419   .     A
C278   C329    1.419   .     A
C279   C299    1.409   .     A
C279   C330    1.421   .     A
C279   C832    1.524   1_554 S
C280   C310    1.405   .     A
C280   C831    1.524   .     S
C281   C283    1.418   .     S
C281   O363    1.273   .     A
C281   O365    1.294   .     A
C282   O364    1.280   .     A
C282   C284    1.413   .     S
C282   O366    1.287   .     A
C283   C468    1.363   1_455 S
C283   C482    1.458   1_455 S
C284   C375    1.363   .     S
C284   C392    1.464   .     S
C285   C301    1.494   .     S
C285   C296    1.406   .     A
C285   C287    1.401   .     A
C286   C307    1.498   .     S
C286   C297    1.418   .     A
C286   C289    1.402   .     A
C287   C314    1.451   .     S
C287   C290    1.424   .     A
C288   O360    1.285   .     A
C288   C291    1.440   .     S
C288   O362    1.290   .     A
C289   C291    1.405   .     A
C289   C315    1.451   .     S
C290   C292    1.426   .     A
C291   C293    1.406   .     A
C292   C316    1.453   .     S
C292   C294    1.393   .     A
C293   C295    1.389   .     A
C293   C317    1.448   .     S
C294   C296    1.398   .     A
C294   C318    1.455   .     S
C295   C297    1.402   .     A
C295   C319    1.452   .     S
C297   C20     1.454   1_565 S
C298   N352    1.158   .     T
C298   C375    1.458   .     S
C299   C321    1.403   .     A
C299   H331    1.081   .     S
C300   N353    1.158   .     T
C300   C468    1.464   1_455 S
C301   C306    1.406   .     A
C302   C303    1.398   .     A
C302   H336    1.080   .     S
C302   C25     1.407   1_565 S
C303   H337    1.082   .     S
C303   C304    1.397   .     A
C304   H338    1.082   .     S
C304   C29     1.397   1_565 S
C305   H339    1.082   .     S
C305   C306    1.398   .     A
C306   H340    1.083   .     S
C307   C313    1.407   .     A
C307   C32     1.407   1_565 S
C308   C309    1.399   .     A
C308   H341    1.079   .     S
C309   C311    1.396   .     A
C309   H342    1.083   .     S
C310   C327    1.403   .     A
C310   H335    1.082   .     S
C311   C312    1.397   .     A
C311   H516    1.083   1_455 S
C312   H333    1.082   .     S
C313   H334    1.083   .     S
C313   C36     1.399   1_565 S
C314   N354    1.157   .     T
C315   N355    1.157   .     T
C316   N356    1.157   .     T
C317   N357    1.155   .     T
C318   N358    1.157   .     T
C319   N344    1.156   .     T
C320   N345    1.157   .     T
C320   C321    1.436   .     S
C321   N343    1.364   .     A
C322   N346    1.156   .     T
C322   C327    1.435   .     S
C323   N347    1.157   .     T
C323   C328    1.443   .     S
C324   N348    1.158   .     T
C324   C329    1.444   .     S
C325   C330    1.450   .     S
C325   N349    1.158   .     T
C326   N350    1.158   .     T
C327   N351    1.369   .     A
C328   C330    1.417   .     A
C328   N343    1.368   .     A
C329   N351    1.372   .     A
H332   C403    1.083   .     S
N343   Zn368   2.015   .     S
N351   Zn367   2.015   .     S
O359   Zn367   1.984   .     S
O360   Zn368   1.984   .     S
O361   Zn368   1.992   .     S
O362   Zn367   1.992   .     S
O363   Zn367   1.994   .     S
O364   Zn368   1.994   .     S
O365   Zn368   2.011   .     S
O366   Zn367   2.011   .     S
C369   O453    1.295   .     A
C369   O451    1.301   .     A
C369   C382    1.479   .     S
C370   C418    1.450   .     S
C370   C372    1.419   .     A
C370   C421    1.419   .     A
C371   C391    1.409   .     A
C371   C422    1.421   .     A
C371   C924    1.524   1_554 S
C372   C402    1.405   .     A
C372   C923    1.524   .     S
C373   C375    1.418   .     S
C373   O455    1.273   .     A
C373   O457    1.294   .     A
C374   O456    1.280   .     A
C374   C376    1.413   .     S
C374   O458    1.287   .     A
C376   C467    1.363   .     S
C376   C484    1.464   .     S
C377   C393    1.494   .     S
C377   C388    1.406   .     A
C377   C379    1.401   .     A
C378   C399    1.498   .     S
C378   C389    1.418   .     A
C378   C381    1.402   .     A
C379   C406    1.451   .     S
C379   C382    1.424   .     A
C380   O452    1.285   .     A
C380   C383    1.440   .     S
C380   O454    1.290   .     A
C381   C383    1.405   .     A
C381   C407    1.451   .     S
C382   C384    1.426   .     A
C383   C385    1.406   .     A
C384   C408    1.453   .     S
C384   C386    1.393   .     A
C385   C387    1.389   .     A
C385   C409    1.448   .     S
C386   C388    1.398   .     A
C386   C410    1.455   .     S
C387   C389    1.402   .     A
C387   C411    1.452   .     S
C389   C112    1.454   1_565 S
C390   N444    1.158   .     T
C390   C467    1.458   .     S
C391   C413    1.403   .     A
C391   H423    1.081   .     S
C392   N445    1.158   .     T
C393   C398    1.406   .     A
C394   C395    1.398   .     A
C394   H428    1.080   .     S
C394   C117    1.407   1_565 S
C395   H429    1.082   .     S
C395   C396    1.397   .     A
C396   H430    1.082   .     S
C396   C121    1.397   1_565 S
C397   H431    1.082   .     S
C397   C398    1.398   .     A
C398   H432    1.083   .     S
C399   C405    1.407   .     A
C399   C124    1.407   1_565 S
C400   C401    1.399   .     A
C400   H433    1.079   .     S
C401   C403    1.396   .     A
C401   H434    1.083   .     S
C402   C419    1.403   .     A
C402   H427    1.082   .     S
C403   C404    1.397   .     A
C404   H425    1.082   .     S
C405   H426    1.083   .     S
C405   C128    1.399   1_565 S
C406   N446    1.157   .     T
C407   N447    1.157   .     T
C408   N448    1.157   .     T
C409   N449    1.155   .     T
C410   N450    1.157   .     T
C411   N436    1.156   .     T
C412   N437    1.157   .     T
C412   C413    1.436   .     S
C413   N435    1.364   .     A
C414   N438    1.156   .     T
C414   C419    1.435   .     S
C415   N439    1.157   .     T
C415   C420    1.443   .     S
C416   N440    1.158   .     T
C416   C421    1.444   .     S
C417   C422    1.450   .     S
C417   N441    1.158   .     T
C418   N442    1.158   .     T
C419   N443    1.369   .     A
C420   C422    1.417   .     A
C420   N435    1.368   .     A
C421   N443    1.372   .     A
H424   C495    1.083   .     S
N435   Zn460   2.015   .     S
N443   Zn459   2.015   .     S
O451   Zn459   1.984   .     S
O452   Zn460   1.984   .     S
O453   Zn460   1.992   .     S
O454   Zn459   1.992   .     S
O455   Zn459   1.994   .     S
O456   Zn460   1.994   .     S
O457   Zn460   2.011   .     S
O458   Zn459   2.011   .     S
C461   O545    1.295   .     A
C461   O543    1.301   .     A
C461   C474    1.479   .     S
C462   C510    1.450   .     S
C462   C464    1.419   .     A
C462   C513    1.419   .     A
C463   C483    1.409   .     A
C463   C514    1.421   .     A
C463   C1016   1.524   1_554 S
C464   C494    1.405   .     A
C464   C1015   1.524   .     S
C465   C467    1.418   .     S
C465   O547    1.273   .     A
C465   O549    1.294   .     A
C466   O548    1.280   .     A
C466   C468    1.413   .     S
C466   O550    1.287   .     A
C468   C283    1.363   1_655 S
C468   C300    1.464   1_655 S
C469   C485    1.494   .     S
C469   C480    1.406   .     A
C469   C471    1.401   .     A
C470   C491    1.498   .     S
C470   C481    1.418   .     A
C470   C473    1.402   .     A
C471   C498    1.451   .     S
C471   C474    1.424   .     A
C472   O544    1.285   .     A
C472   C475    1.440   .     S
C472   O546    1.290   .     A
C473   C475    1.405   .     A
C473   C499    1.451   .     S
C474   C476    1.426   .     A
C475   C477    1.406   .     A
C476   C500    1.453   .     S
C476   C478    1.393   .     A
C477   C479    1.389   .     A
C477   C501    1.448   .     S
C478   C480    1.398   .     A
C478   C502    1.455   .     S
C479   C481    1.402   .     A
C479   C503    1.452   .     S
C481   C204    1.454   1_565 S
C482   N536    1.158   .     T
C482   C283    1.458   1_655 S
C483   C505    1.403   .     A
C483   H515    1.081   .     S
C484   N537    1.158   .     T
C485   C490    1.406   .     A
C486   C487    1.398   .     A
C486   H520    1.080   .     S
C486   C209    1.407   1_565 S
C487   H521    1.082   .     S
C487   C488    1.397   .     A
C488   H522    1.082   .     S
C488   C213    1.397   1_565 S
C489   H523    1.082   .     S
C489   C490    1.398   .     A
C490   H524    1.083   .     S
C491   C497    1.407   .     A
C491   C216    1.407   1_565 S
C492   C493    1.399   .     A
C492   H525    1.079   .     S
C493   C495    1.396   .     A
C493   H526    1.083   .     S
C494   C511    1.403   .     A
C494   H519    1.082   .     S
C495   C496    1.397   .     A
C496   H517    1.082   .     S
C497   H518    1.083   .     S
C497   C220    1.399   1_565 S
C498   N538    1.157   .     T
C499   N539    1.157   .     T
C500   N540    1.157   .     T
C501   N541    1.155   .     T
C502   N542    1.157   .     T
C503   N528    1.156   .     T
C504   N529    1.157   .     T
C504   C505    1.436   .     S
C505   N527    1.364   .     A
C506   N530    1.156   .     T
C506   C511    1.435   .     S
C507   N531    1.157   .     T
C507   C512    1.443   .     S
C508   N532    1.158   .     T
C508   C513    1.444   .     S
C509   C514    1.450   .     S
C509   N533    1.158   .     T
C510   N534    1.158   .     T
C511   N535    1.369   .     A
C512   C514    1.417   .     A
C512   N527    1.368   .     A
C513   N535    1.372   .     A
H516   C311    1.083   1_655 S
N527   Zn552   2.015   .     S
N535   Zn551   2.015   .     S
O543   Zn551   1.984   .     S
O544   Zn552   1.984   .     S
O545   Zn552   1.992   .     S
O546   Zn551   1.992   .     S
O547   Zn551   1.994   .     S
O548   Zn552   1.994   .     S
O549   Zn552   2.011   .     S
O550   Zn551   2.011   .     S
C553   O637    1.295   .     A
C553   O635    1.301   .     A
C553   C566    1.479   .     S
C554   C602    1.450   .     S
C554   C556    1.419   .     A
C554   C605    1.419   .     A
C555   C575    1.409   .     A
C555   C606    1.421   .     A
C556   C586    1.405   .     A
C556   C3      1.524   1_556 S
C557   C559    1.418   .     S
C557   O639    1.273   .     A
C557   O641    1.294   .     A
C558   O640    1.280   .     A
C558   C560    1.413   .     S
C558   O642    1.287   .     A
C559   C744    1.363   1_455 S
C559   C758    1.458   1_455 S
C560   C651    1.363   .     S
C560   C668    1.464   .     S
C561   C577    1.494   .     S
C561   C572    1.406   .     A
C561   C563    1.401   .     A
C562   C583    1.498   .     S
C562   C573    1.418   .     A
C562   C565    1.402   .     A
C563   C590    1.451   .     S
C563   C566    1.424   .     A
C564   O636    1.285   .     A
C564   C567    1.440   .     S
C564   O638    1.290   .     A
C565   C567    1.405   .     A
C565   C591    1.451   .     S
C566   C568    1.426   .     A
C567   C569    1.406   .     A
C568   C592    1.453   .     S
C568   C570    1.393   .     A
C569   C571    1.389   .     A
C569   C593    1.448   .     S
C570   C572    1.398   .     A
C570   C594    1.455   .     S
C571   C573    1.402   .     A
C571   C595    1.452   .     S
C572   C849    1.454   1_545 S
C573   C848    1.454   .     S
C574   N628    1.158   .     T
C574   C651    1.458   .     S
C575   C597    1.403   .     A
C575   H607    1.081   .     S
C576   N629    1.158   .     T
C576   C744    1.464   1_455 S
C577   C582    1.406   .     A
C577   C854    1.407   1_545 S
C578   C579    1.398   .     A
C578   H612    1.080   .     S
C578   C853    1.407   .     S
C579   H613    1.082   .     S
C579   C580    1.397   .     A
C580   H614    1.082   .     S
C580   C857    1.397   .     S
C581   H615    1.082   .     S
C581   C582    1.398   .     A
C581   C856    1.397   1_545 S
C582   H616    1.083   .     S
C583   C589    1.407   .     A
C583   C860    1.407   .     S
C584   C585    1.399   .     A
C584   H617    1.079   .     S
C584   C859    1.407   1_545 S
C585   C587    1.396   .     A
C585   H618    1.083   .     S
C586   C603    1.403   .     A
C586   H611    1.082   .     S
C587   C588    1.397   .     A
C587   H792    1.083   1_455 S
C588   H609    1.082   .     S
C588   C865    1.399   1_545 S
C589   H610    1.083   .     S
C589   C864    1.399   .     S
C590   N630    1.157   .     T
C591   N631    1.157   .     T
C592   N632    1.157   .     T
C593   N633    1.155   .     T
C594   N634    1.157   .     T
C595   N620    1.156   .     T
C596   N621    1.157   .     T
C596   C597    1.436   .     S
C597   N619    1.364   .     A
C598   N622    1.156   .     T
C598   C603    1.435   .     S
C599   N623    1.157   .     T
C599   C604    1.443   .     S
C600   N624    1.158   .     T
C600   C605    1.444   .     S
C601   C606    1.450   .     S
C601   N625    1.158   .     T
C602   N626    1.158   .     T
C603   N627    1.369   .     A
C604   C606    1.417   .     A
C604   N619    1.368   .     A
C605   N627    1.372   .     A
H608   C679    1.083   .     S
N619   Zn644   2.015   .     S
N627   Zn643   2.015   .     S
O635   Zn643   1.984   .     S
O636   Zn644   1.984   .     S
O637   Zn644   1.992   .     S
O638   Zn643   1.992   .     S
O639   Zn643   1.994   .     S
O640   Zn644   1.994   .     S
O641   Zn644   2.011   .     S
O642   Zn643   2.011   .     S
C645   O729    1.295   .     A
C645   O727    1.301   .     A
C645   C658    1.479   .     S
C646   C694    1.450   .     S
C646   C648    1.419   .     A
C646   C697    1.419   .     A
C647   C667    1.409   .     A
C647   C698    1.421   .     A
C648   C678    1.405   .     A
C648   C95     1.524   1_556 S
C649   C651    1.418   .     S
C649   O731    1.273   .     A
C649   O733    1.294   .     A
C650   O732    1.280   .     A
C650   C652    1.413   .     S
C650   O734    1.287   .     A
C652   C743    1.363   .     S
C652   C760    1.464   .     S
C653   C669    1.494   .     S
C653   C664    1.406   .     A
C653   C655    1.401   .     A
C654   C675    1.498   .     S
C654   C665    1.418   .     A
C654   C657    1.402   .     A
C655   C682    1.451   .     S
C655   C658    1.424   .     A
C656   O728    1.285   .     A
C656   C659    1.440   .     S
C656   O730    1.290   .     A
C657   C659    1.405   .     A
C657   C683    1.451   .     S
C658   C660    1.426   .     A
C659   C661    1.406   .     A
C660   C684    1.453   .     S
C660   C662    1.393   .     A
C661   C663    1.389   .     A
C661   C685    1.448   .     S
C662   C664    1.398   .     A
C662   C686    1.455   .     S
C663   C665    1.402   .     A
C663   C687    1.452   .     S
C664   C941    1.454   1_545 S
C665   C940    1.454   .     S
C666   N720    1.158   .     T
C666   C743    1.458   .     S
C667   C689    1.403   .     A
C667   H699    1.081   .     S
C668   N721    1.158   .     T
C669   C674    1.406   .     A
C669   C946    1.407   1_545 S
C670   C671    1.398   .     A
C670   H704    1.080   .     S
C670   C945    1.407   .     S
C671   H705    1.082   .     S
C671   C672    1.397   .     A
C672   H706    1.082   .     S
C672   C949    1.397   .     S
C673   H707    1.082   .     S
C673   C674    1.398   .     A
C673   C948    1.397   1_545 S
C674   H708    1.083   .     S
C675   C681    1.407   .     A
C675   C952    1.407   .     S
C676   C677    1.399   .     A
C676   H709    1.079   .     S
C676   C951    1.407   1_545 S
C677   C679    1.396   .     A
C677   H710    1.083   .     S
C678   C695    1.403   .     A
C678   H703    1.082   .     S
C679   C680    1.397   .     A
C680   H701    1.082   .     S
C680   C957    1.399   1_545 S
C681   H702    1.083   .     S
C681   C956    1.399   .     S
C682   N722    1.157   .     T
C683   N723    1.157   .     T
C684   N724    1.157   .     T
C685   N725    1.155   .     T
C686   N726    1.157   .     T
C687   N712    1.156   .     T
C688   N713    1.157   .     T
C688   C689    1.436   .     S
C689   N711    1.364   .     A
C690   N714    1.156   .     T
C690   C695    1.435   .     S
C691   N715    1.157   .     T
C691   C696    1.443   .     S
C692   N716    1.158   .     T
C692   C697    1.444   .     S
C693   C698    1.450   .     S
C693   N717    1.158   .     T
C694   N718    1.158   .     T
C695   N719    1.369   .     A
C696   C698    1.417   .     A
C696   N711    1.368   .     A
C697   N719    1.372   .     A
H700   C771    1.083   .     S
N711   Zn736   2.015   .     S
N719   Zn735   2.015   .     S
O727   Zn735   1.984   .     S
O728   Zn736   1.984   .     S
O729   Zn736   1.992   .     S
O730   Zn735   1.992   .     S
O731   Zn735   1.994   .     S
O732   Zn736   1.994   .     S
O733   Zn736   2.011   .     S
O734   Zn735   2.011   .     S
C737   O821    1.295   .     A
C737   O819    1.301   .     A
C737   C750    1.479   .     S
C738   C786    1.450   .     S
C738   C740    1.419   .     A
C738   C789    1.419   .     A
C739   C759    1.409   .     A
C739   C790    1.421   .     A
C740   C770    1.405   .     A
C740   C187    1.524   1_556 S
C741   C743    1.418   .     S
C741   O823    1.273   .     A
C741   O825    1.294   .     A
C742   O824    1.280   .     A
C742   C744    1.413   .     S
C742   O826    1.287   .     A
C744   C559    1.363   1_655 S
C744   C576    1.464   1_655 S
C745   C761    1.494   .     S
C745   C756    1.406   .     A
C745   C747    1.401   .     A
C746   C767    1.498   .     S
C746   C757    1.418   .     A
C746   C749    1.402   .     A
C747   C774    1.451   .     S
C747   C750    1.424   .     A
C748   O820    1.285   .     A
C748   C751    1.440   .     S
C748   O822    1.290   .     A
C749   C751    1.405   .     A
C749   C775    1.451   .     S
C750   C752    1.426   .     A
C751   C753    1.406   .     A
C752   C776    1.453   .     S
C752   C754    1.393   .     A
C753   C755    1.389   .     A
C753   C777    1.448   .     S
C754   C756    1.398   .     A
C754   C778    1.455   .     S
C755   C757    1.402   .     A
C755   C779    1.452   .     S
C756   C1033   1.454   1_545 S
C757   C1032   1.454   .     S
C758   N812    1.158   .     T
C758   C559    1.458   1_655 S
C759   C781    1.403   .     A
C759   H791    1.081   .     S
C760   N813    1.158   .     T
C761   C766    1.406   .     A
C761   C1038   1.407   1_545 S
C762   C763    1.398   .     A
C762   H796    1.080   .     S
C762   C1037   1.407   .     S
C763   H797    1.082   .     S
C763   C764    1.397   .     A
C764   H798    1.082   .     S
C764   C1041   1.397   .     S
C765   H799    1.082   .     S
C765   C766    1.398   .     A
C765   C1040   1.397   1_545 S
C766   H800    1.083   .     S
C767   C773    1.407   .     A
C767   C1044   1.407   .     S
C768   C769    1.399   .     A
C768   H801    1.079   .     S
C768   C1043   1.407   1_545 S
C769   C771    1.396   .     A
C769   H802    1.083   .     S
C770   C787    1.403   .     A
C770   H795    1.082   .     S
C771   C772    1.397   .     A
C772   H793    1.082   .     S
C772   C1049   1.399   1_545 S
C773   H794    1.083   .     S
C773   C1048   1.399   .     S
C774   N814    1.157   .     T
C775   N815    1.157   .     T
C776   N816    1.157   .     T
C777   N817    1.155   .     T
C778   N818    1.157   .     T
C779   N804    1.156   .     T
C780   N805    1.157   .     T
C780   C781    1.436   .     S
C781   N803    1.364   .     A
C782   N806    1.156   .     T
C782   C787    1.435   .     S
C783   N807    1.157   .     T
C783   C788    1.443   .     S
C784   N808    1.158   .     T
C784   C789    1.444   .     S
C785   C790    1.450   .     S
C785   N809    1.158   .     T
C786   N810    1.158   .     T
C787   N811    1.369   .     A
C788   C790    1.417   .     A
C788   N803    1.368   .     A
C789   N811    1.372   .     A
H792   C587    1.083   1_655 S
N803   Zn828   2.015   .     S
N811   Zn827   2.015   .     S
O819   Zn827   1.984   .     S
O820   Zn828   1.984   .     S
O821   Zn828   1.992   .     S
O822   Zn827   1.992   .     S
O823   Zn827   1.994   .     S
O824   Zn828   1.994   .     S
O825   Zn828   2.011   .     S
O826   Zn827   2.011   .     S
C829   O913    1.295   .     A
C829   O911    1.301   .     A
C829   C842    1.479   .     S
C830   C878    1.450   .     S
C830   C832    1.419   .     A
C830   C881    1.419   .     A
C831   C851    1.409   .     A
C831   C882    1.421   .     A
C832   C862    1.405   .     A
C832   C279    1.524   1_556 S
C833   C835    1.418   .     S
C833   O915    1.273   .     A
C833   O917    1.294   .     A
C834   O916    1.280   .     A
C834   C836    1.413   .     S
C834   O918    1.287   .     A
C835   C1020   1.363   1_455 S
C835   C1034   1.458   1_455 S
C836   C927    1.363   .     S
C836   C944    1.464   .     S
C837   C853    1.494   .     S
C837   C848    1.406   .     A
C837   C839    1.401   .     A
C838   C859    1.498   .     S
C838   C849    1.418   .     A
C838   C841    1.402   .     A
C839   C866    1.451   .     S
C839   C842    1.424   .     A
C840   O912    1.285   .     A
C840   C843    1.440   .     S
C840   O914    1.290   .     A
C841   C843    1.405   .     A
C841   C867    1.451   .     S
C842   C844    1.426   .     A
C843   C845    1.406   .     A
C844   C868    1.453   .     S
C844   C846    1.393   .     A
C845   C847    1.389   .     A
C845   C869    1.448   .     S
C846   C848    1.398   .     A
C846   C870    1.455   .     S
C847   C849    1.402   .     A
C847   C871    1.452   .     S
C849   C572    1.454   1_565 S
C850   N904    1.158   .     T
C850   C927    1.458   .     S
C851   C873    1.403   .     A
C851   H883    1.081   .     S
C852   N905    1.158   .     T
C852   C1020   1.464   1_455 S
C853   C858    1.406   .     A
C854   C855    1.398   .     A
C854   H888    1.080   .     S
C854   C577    1.407   1_565 S
C855   H889    1.082   .     S
C855   C856    1.397   .     A
C856   H890    1.082   .     S
C856   C581    1.397   1_565 S
C857   H891    1.082   .     S
C857   C858    1.398   .     A
C858   H892    1.083   .     S
C859   C865    1.407   .     A
C859   C584    1.407   1_565 S
C860   C861    1.399   .     A
C860   H893    1.079   .     S
C861   C863    1.396   .     A
C861   H894    1.083   .     S
C862   C879    1.403   .     A
C862   H887    1.082   .     S
C863   C864    1.397   .     A
C863   H1068   1.083   1_455 S
C864   H885    1.082   .     S
C865   H886    1.083   .     S
C865   C588    1.399   1_565 S
C866   N906    1.157   .     T
C867   N907    1.157   .     T
C868   N908    1.157   .     T
C869   N909    1.155   .     T
C870   N910    1.157   .     T
C871   N896    1.156   .     T
C872   N897    1.157   .     T
C872   C873    1.436   .     S
C873   N895    1.364   .     A
C874   N898    1.156   .     T
C874   C879    1.435   .     S
C875   N899    1.157   .     T
C875   C880    1.443   .     S
C876   N900    1.158   .     T
C876   C881    1.444   .     S
C877   C882    1.450   .     S
C877   N901    1.158   .     T
C878   N902    1.158   .     T
C879   N903    1.369   .     A
C880   C882    1.417   .     A
C880   N895    1.368   .     A
C881   N903    1.372   .     A
H884   C955    1.083   .     S
N895   Zn920   2.015   .     S
N903   Zn919   2.015   .     S
O911   Zn919   1.984   .     S
O912   Zn920   1.984   .     S
O913   Zn920   1.992   .     S
O914   Zn919   1.992   .     S
O915   Zn919   1.994   .     S
O916   Zn920   1.994   .     S
O917   Zn920   2.011   .     S
O918   Zn919   2.011   .     S
C921   O1005   1.295   .     A
C921   O1003   1.301   .     A
C921   C934    1.479   .     S
C922   C970    1.450   .     S
C922   C924    1.419   .     A
C922   C973    1.419   .     A
C923   C943    1.409   .     A
C923   C974    1.421   .     A
C924   C954    1.405   .     A
C924   C371    1.524   1_556 S
C925   C927    1.418   .     S
C925   O1007   1.273   .     A
C925   O1009   1.294   .     A
C926   O1008   1.280   .     A
C926   C928    1.413   .     S
C926   O1010   1.287   .     A
C928   C1019   1.363   .     S
C928   C1036   1.464   .     S
C929   C945    1.494   .     S
C929   C940    1.406   .     A
C929   C931    1.401   .     A
C930   C951    1.498   .     S
C930   C941    1.418   .     A
C930   C933    1.402   .     A
C931   C958    1.451   .     S
C931   C934    1.424   .     A
C932   O1004   1.285   .     A
C932   C935    1.440   .     S
C932   O1006   1.290   .     A
C933   C935    1.405   .     A
C933   C959    1.451   .     S
C934   C936    1.426   .     A
C935   C937    1.406   .     A
C936   C960    1.453   .     S
C936   C938    1.393   .     A
C937   C939    1.389   .     A
C937   C961    1.448   .     S
C938   C940    1.398   .     A
C938   C962    1.455   .     S
C939   C941    1.402   .     A
C939   C963    1.452   .     S
C941   C664    1.454   1_565 S
C942   N996    1.158   .     T
C942   C1019   1.458   .     S
C943   C965    1.403   .     A
C943   H975    1.081   .     S
C944   N997    1.158   .     T
C945   C950    1.406   .     A
C946   C947    1.398   .     A
C946   H980    1.080   .     S
C946   C669    1.407   1_565 S
C947   H981    1.082   .     S
C947   C948    1.397   .     A
C948   H982    1.082   .     S
C948   C673    1.397   1_565 S
C949   H983    1.082   .     S
C949   C950    1.398   .     A
C950   H984    1.083   .     S
C951   C957    1.407   .     A
C951   C676    1.407   1_565 S
C952   C953    1.399   .     A
C952   H985    1.079   .     S
C953   C955    1.396   .     A
C953   H986    1.083   .     S
C954   C971    1.403   .     A
C954   H979    1.082   .     S
C955   C956    1.397   .     A
C956   H977    1.082   .     S
C957   H978    1.083   .     S
C957   C680    1.399   1_565 S
C958   N998    1.157   .     T
C959   N999    1.157   .     T
C960   N1000   1.157   .     T
C961   N1001   1.155   .     T
C962   N1002   1.157   .     T
C963   N988    1.156   .     T
C964   N989    1.157   .     T
C964   C965    1.436   .     S
C965   N987    1.364   .     A
C966   N990    1.156   .     T
C966   C971    1.435   .     S
C967   N991    1.157   .     T
C967   C972    1.443   .     S
C968   N992    1.158   .     T
C968   C973    1.444   .     S
C969   C974    1.450   .     S
C969   N993    1.158   .     T
C970   N994    1.158   .     T
C971   N995    1.369   .     A
C972   C974    1.417   .     A
C972   N987    1.368   .     A
C973   N995    1.372   .     A
H976   C1047   1.083   .     S
N987   Zn1012  2.015   .     S
N995   Zn1011  2.015   .     S
O1003  Zn1011  1.984   .     S
O1004  Zn1012  1.984   .     S
O1005  Zn1012  1.992   .     S
O1006  Zn1011  1.992   .     S
O1007  Zn1011  1.994   .     S
O1008  Zn1012  1.994   .     S
O1009  Zn1012  2.011   .     S
O1010  Zn1011  2.011   .     S
C1013  O1097   1.295   .     A
C1013  O1095   1.301   .     A
C1013  C1026   1.479   .     S
C1014  C1062   1.450   .     S
C1014  C1016   1.419   .     A
C1014  C1065   1.419   .     A
C1015  C1035   1.409   .     A
C1015  C1066   1.421   .     A
C1016  C1046   1.405   .     A
C1016  C463    1.524   1_556 S
C1017  C1019   1.418   .     S
C1017  O1099   1.273   .     A
C1017  O1101   1.294   .     A
C1018  O1100   1.280   .     A
C1018  C1020   1.413   .     S
C1018  O1102   1.287   .     A
C1020  C835    1.363   1_655 S
C1020  C852    1.464   1_655 S
C1021  C1037   1.494   .     S
C1021  C1032   1.406   .     A
C1021  C1023   1.401   .     A
C1022  C1043   1.498   .     S
C1022  C1033   1.418   .     A
C1022  C1025   1.402   .     A
C1023  C1050   1.451   .     S
C1023  C1026   1.424   .     A
C1024  O1096   1.285   .     A
C1024  C1027   1.440   .     S
C1024  O1098   1.290   .     A
C1025  C1027   1.405   .     A
C1025  C1051   1.451   .     S
C1026  C1028   1.426   .     A
C1027  C1029   1.406   .     A
C1028  C1052   1.453   .     S
C1028  C1030   1.393   .     A
C1029  C1031   1.389   .     A
C1029  C1053   1.448   .     S
C1030  C1032   1.398   .     A
C1030  C1054   1.455   .     S
C1031  C1033   1.402   .     A
C1031  C1055   1.452   .     S
C1033  C756    1.454   1_565 S
C1034  N1088   1.158   .     T
C1034  C835    1.458   1_655 S
C1035  C1057   1.403   .     A
C1035  H1067   1.081   .     S
C1036  N1089   1.158   .     T
C1037  C1042   1.406   .     A
C1038  C1039   1.398   .     A
C1038  H1072   1.080   .     S
C1038  C761    1.407   1_565 S
C1039  H1073   1.082   .     S
C1039  C1040   1.397   .     A
C1040  H1074   1.082   .     S
C1040  C765    1.397   1_565 S
C1041  H1075   1.082   .     S
C1041  C1042   1.398   .     A
C1042  H1076   1.083   .     S
C1043  C1049   1.407   .     A
C1043  C768    1.407   1_565 S
C1044  C1045   1.399   .     A
C1044  H1077   1.079   .     S
C1045  C1047   1.396   .     A
C1045  H1078   1.083   .     S
C1046  C1063   1.403   .     A
C1046  H1071   1.082   .     S
C1047  C1048   1.397   .     A
C1048  H1069   1.082   .     S
C1049  H1070   1.083   .     S
C1049  C772    1.399   1_565 S
C1050  N1090   1.157   .     T
C1051  N1091   1.157   .     T
C1052  N1092   1.157   .     T
C1053  N1093   1.155   .     T
C1054  N1094   1.157   .     T
C1055  N1080   1.156   .     T
C1056  N1081   1.157   .     T
C1056  C1057   1.436   .     S
C1057  N1079   1.364   .     A
C1058  N1082   1.156   .     T
C1058  C1063   1.435   .     S
C1059  N1083   1.157   .     T
C1059  C1064   1.443   .     S
C1060  N1084   1.158   .     T
C1060  C1065   1.444   .     S
C1061  C1066   1.450   .     S
C1061  N1085   1.158   .     T
C1062  N1086   1.158   .     T
C1063  N1087   1.369   .     A
C1064  C1066   1.417   .     A
C1064  N1079   1.368   .     A
C1065  N1087   1.372   .     A
H1068  C863    1.083   1_655 S
N1079  Zn1104  2.015   .     S
N1087  Zn1103  2.015   .     S
O1095  Zn1103  1.984   .     S
O1096  Zn1104  1.984   .     S
O1097  Zn1104  1.992   .     S
O1098  Zn1103  1.992   .     S
O1099  Zn1103  1.994   .     S
O1100  Zn1104  1.994   .     S
O1101  Zn1104  2.011   .     S
O1102  Zn1103  2.011   .     S
