data_str_m3_o10_o16_pcu_sym.30
_audit_creation_date              2020-01-03
_audit_creation_method            'Materials Studio'
_symmetry_space_group_name_H-M    'P1'
_symmetry_Int_Tables_number       1
_symmetry_cell_setting            triclinic
loop_
_symmetry_equiv_pos_as_xyz
  x,y,z
_cell_length_a                    23.6402
_cell_length_b                    25.7443
_cell_length_c                    24.7844
_cell_angle_alpha                 92.4890
_cell_angle_beta                  103.4207
_cell_angle_gamma                 93.5233
loop_
_atom_site_label
_atom_site_type_symbol
_atom_site_fract_x
_atom_site_fract_y
_atom_site_fract_z
_atom_site_U_iso_or_equiv
_atom_site_adp_type
_atom_site_occupancy
C1     C     0.01358   0.26454   0.24643   0.00000  Uiso   1.00
C2     C     0.06172   0.19859   0.41194   0.00000  Uiso   1.00
C3     C     0.02013   0.31908   0.24591   0.00000  Uiso   1.00
C4     C     0.03796   0.17884   0.35358   0.00000  Uiso   1.00
C5     C     0.30676   0.01422   0.23973   0.00000  Uiso   1.00
C6     C     0.31784   0.06859   0.24885   0.00000  Uiso   1.00
C7     C     0.29532   0.15713   0.14584   0.00000  Uiso   1.00
C8     C     0.28103   0.13449   0.49233   0.00000  Uiso   1.00
C9     C     0.27051   0.14565   0.08644   0.00000  Uiso   1.00
C10    C     0.02704   0.21907   0.44528   0.00000  Uiso   1.00
C11    C     0.04870   0.22536   0.00288   0.00000  Uiso   1.00
C12    C     0.13843   0.18860   0.49291   0.00000  Uiso   1.00
C13    C     0.10306   0.20762   0.02709   0.00000  Uiso   1.00
C14    C     0.12072   0.19519   0.43610   0.00000  Uiso   1.00
C15    C     0.19263   0.16725   0.01210   0.00000  Uiso   1.00
C16    C     0.22917   0.15884   0.47472   0.00000  Uiso   1.00
C17    C     0.21431   0.17720   0.42158   0.00000  Uiso   1.00
C18    C     0.16320   0.20174   0.40584   0.00000  Uiso   1.00
C19    C     0.21153   0.15265   0.06627   0.00000  Uiso   1.00
C20    C     0.30241   0.12847   0.04883   0.00000  Uiso   1.00
Cl21   Cl    0.02884   0.09128   0.06977   0.00000  Uiso   1.00
Cl22   Cl    0.23230   0.32408   0.21476   0.00000  Uiso   1.00
Cl23   Cl    0.16173   0.12432   0.10160   0.00000  Uiso   1.00
Cl24   Cl    0.16147   0.25650   0.36570   0.00000  Uiso   1.00
H25    H     0.15681   0.11932   0.21708   0.00000  Uiso   1.00
H26    H     0.17661   0.21615   0.27735   0.00000  Uiso   1.00
H27    H     0.02234   0.24167   0.02880   0.00000  Uiso   1.00
H28    H     0.24330   0.17553   0.39397   0.00000  Uiso   1.00
H29    H     0.30601   0.12261   0.46297   0.00000  Uiso   1.00
H30    H     0.31769   0.23115   0.42703   0.00000  Uiso   1.00
H31    H     0.11800   0.21184   0.07177   0.00000  Uiso   1.00
H32    H     0.06477   0.00300   0.25628   0.00000  Uiso   1.00
N33    N     0.14493   0.15223   0.23542   0.00000  Uiso   1.00
N34    N     0.18840   0.18110   0.26457   0.00000  Uiso   1.00
O35    O     0.29769   0.24629   0.25357   0.00000  Uiso   1.00
O36    O     0.05742   0.23704   0.24423   0.00000  Uiso   1.00
O37    O     0.31490   0.17358   0.33380   0.00000  Uiso   1.00
O38    O     0.07463   0.16433   0.32446   0.00000  Uiso   1.00
O39    O     0.27592   0.09629   0.25577   0.00000  Uiso   1.00
O40    O     0.03565   0.08704   0.24642   0.00000  Uiso   1.00
O41    O     0.25870   0.16901   0.17554   0.00000  Uiso   1.00
O42    O     0.01843   0.15976   0.16620   0.00000  Uiso   1.00
Zn43   Zn    0.27119   0.17284   0.25623   0.00000  Uiso   1.00
Zn44   Zn    0.06214   0.16049   0.24376   0.00000  Uiso   1.00
C45    C     0.34691   0.26454   0.24643   0.00000  Uiso   1.00
C46    C     0.39505   0.19859   0.41194   0.00000  Uiso   1.00
C47    C     0.35346   0.31908   0.24591   0.00000  Uiso   1.00
C48    C     0.37129   0.17884   0.35358   0.00000  Uiso   1.00
C49    C     0.64009   0.01422   0.23973   0.00000  Uiso   1.00
C50    C     0.65117   0.06859   0.24885   0.00000  Uiso   1.00
C51    C     0.62865   0.15713   0.14584   0.00000  Uiso   1.00
C52    C     0.61437   0.13449   0.49233   0.00000  Uiso   1.00
C53    C     0.60384   0.14565   0.08644   0.00000  Uiso   1.00
C54    C     0.36038   0.21907   0.44528   0.00000  Uiso   1.00
C55    C     0.38204   0.22536   0.00288   0.00000  Uiso   1.00
C56    C     0.47177   0.18860   0.49291   0.00000  Uiso   1.00
C57    C     0.43640   0.20762   0.02709   0.00000  Uiso   1.00
C58    C     0.45405   0.19519   0.43610   0.00000  Uiso   1.00
C59    C     0.52597   0.16725   0.01210   0.00000  Uiso   1.00
C60    C     0.56250   0.15884   0.47472   0.00000  Uiso   1.00
C61    C     0.54765   0.17720   0.42158   0.00000  Uiso   1.00
C62    C     0.49654   0.20174   0.40584   0.00000  Uiso   1.00
C63    C     0.54486   0.15265   0.06627   0.00000  Uiso   1.00
C64    C     0.63575   0.12847   0.04883   0.00000  Uiso   1.00
Cl65   Cl    0.36217   0.09128   0.06977   0.00000  Uiso   1.00
Cl66   Cl    0.56563   0.32408   0.21476   0.00000  Uiso   1.00
Cl67   Cl    0.49507   0.12432   0.10160   0.00000  Uiso   1.00
Cl68   Cl    0.49480   0.25650   0.36570   0.00000  Uiso   1.00
H69    H     0.49014   0.11932   0.21708   0.00000  Uiso   1.00
H70    H     0.50994   0.21615   0.27735   0.00000  Uiso   1.00
H71    H     0.35568   0.24167   0.02880   0.00000  Uiso   1.00
H72    H     0.57664   0.17553   0.39397   0.00000  Uiso   1.00
H73    H     0.63935   0.12261   0.46297   0.00000  Uiso   1.00
H74    H     0.65103   0.23115   0.42703   0.00000  Uiso   1.00
H75    H     0.45133   0.21184   0.07177   0.00000  Uiso   1.00
H76    H     0.39811   0.00300   0.25628   0.00000  Uiso   1.00
N77    N     0.47827   0.15223   0.23542   0.00000  Uiso   1.00
N78    N     0.52173   0.18110   0.26457   0.00000  Uiso   1.00
O79    O     0.63102   0.24629   0.25357   0.00000  Uiso   1.00
O80    O     0.39075   0.23704   0.24423   0.00000  Uiso   1.00
O81    O     0.64823   0.17358   0.33380   0.00000  Uiso   1.00
O82    O     0.40796   0.16433   0.32446   0.00000  Uiso   1.00
O83    O     0.60925   0.09629   0.25577   0.00000  Uiso   1.00
O84    O     0.36898   0.08704   0.24642   0.00000  Uiso   1.00
O85    O     0.59204   0.16901   0.17554   0.00000  Uiso   1.00
O86    O     0.35177   0.15976   0.16620   0.00000  Uiso   1.00
Zn87   Zn    0.60453   0.17284   0.25623   0.00000  Uiso   1.00
Zn88   Zn    0.39547   0.16049   0.24376   0.00000  Uiso   1.00
C89    C     0.68025   0.26454   0.24643   0.00000  Uiso   1.00
C90    C     0.72839   0.19859   0.41194   0.00000  Uiso   1.00
C91    C     0.68679   0.31908   0.24591   0.00000  Uiso   1.00
C92    C     0.70462   0.17884   0.35358   0.00000  Uiso   1.00
C93    C     0.97343   0.01422   0.23973   0.00000  Uiso   1.00
C94    C     0.98451   0.06859   0.24885   0.00000  Uiso   1.00
C95    C     0.96199   0.15713   0.14584   0.00000  Uiso   1.00
C96    C     0.94770   0.13449   0.49233   0.00000  Uiso   1.00
C97    C     0.93717   0.14565   0.08644   0.00000  Uiso   1.00
C98    C     0.69371   0.21907   0.44528   0.00000  Uiso   1.00
C99    C     0.71537   0.22536   0.00288   0.00000  Uiso   1.00
C100   C     0.80510   0.18860   0.49291   0.00000  Uiso   1.00
C101   C     0.76973   0.20762   0.02709   0.00000  Uiso   1.00
C102   C     0.78738   0.19519   0.43610   0.00000  Uiso   1.00
C103   C     0.85930   0.16725   0.01210   0.00000  Uiso   1.00
C104   C     0.89583   0.15884   0.47472   0.00000  Uiso   1.00
C105   C     0.88098   0.17720   0.42158   0.00000  Uiso   1.00
C106   C     0.82987   0.20174   0.40584   0.00000  Uiso   1.00
C107   C     0.87820   0.15265   0.06627   0.00000  Uiso   1.00
C108   C     0.96908   0.12847   0.04883   0.00000  Uiso   1.00
Cl109  Cl    0.69550   0.09128   0.06977   0.00000  Uiso   1.00
Cl110  Cl    0.89896   0.32408   0.21476   0.00000  Uiso   1.00
Cl111  Cl    0.82840   0.12432   0.10160   0.00000  Uiso   1.00
Cl112  Cl    0.82814   0.25650   0.36570   0.00000  Uiso   1.00
H113   H     0.82348   0.11932   0.21708   0.00000  Uiso   1.00
H114   H     0.84328   0.21615   0.27735   0.00000  Uiso   1.00
H115   H     0.68901   0.24167   0.02880   0.00000  Uiso   1.00
H116   H     0.90997   0.17553   0.39397   0.00000  Uiso   1.00
H117   H     0.97268   0.12261   0.46297   0.00000  Uiso   1.00
H118   H     0.98436   0.23115   0.42703   0.00000  Uiso   1.00
H119   H     0.78467   0.21184   0.07177   0.00000  Uiso   1.00
H120   H     0.73144   0.00300   0.25628   0.00000  Uiso   1.00
N121   N     0.81160   0.15223   0.23542   0.00000  Uiso   1.00
N122   N     0.85507   0.18110   0.26457   0.00000  Uiso   1.00
O123   O     0.96435   0.24629   0.25357   0.00000  Uiso   1.00
O124   O     0.72408   0.23704   0.24423   0.00000  Uiso   1.00
O125   O     0.98157   0.17358   0.33380   0.00000  Uiso   1.00
O126   O     0.74130   0.16433   0.32446   0.00000  Uiso   1.00
O127   O     0.94258   0.09629   0.25577   0.00000  Uiso   1.00
O128   O     0.70231   0.08704   0.24642   0.00000  Uiso   1.00
O129   O     0.92537   0.16901   0.17554   0.00000  Uiso   1.00
O130   O     0.68510   0.15976   0.16620   0.00000  Uiso   1.00
Zn131  Zn    0.93786   0.17284   0.25623   0.00000  Uiso   1.00
Zn132  Zn    0.72881   0.16049   0.24376   0.00000  Uiso   1.00
C133   C     0.01358   0.59787   0.24643   0.00000  Uiso   1.00
C134   C     0.06172   0.53193   0.41194   0.00000  Uiso   1.00
C135   C     0.02013   0.65242   0.24591   0.00000  Uiso   1.00
C136   C     0.03796   0.51218   0.35358   0.00000  Uiso   1.00
C137   C     0.30676   0.34755   0.23973   0.00000  Uiso   1.00
C138   C     0.31784   0.40193   0.24885   0.00000  Uiso   1.00
C139   C     0.29532   0.49047   0.14584   0.00000  Uiso   1.00
C140   C     0.28103   0.46783   0.49233   0.00000  Uiso   1.00
C141   C     0.27051   0.47898   0.08644   0.00000  Uiso   1.00
C142   C     0.02704   0.55240   0.44528   0.00000  Uiso   1.00
C143   C     0.04870   0.55869   0.00288   0.00000  Uiso   1.00
C144   C     0.13843   0.52193   0.49291   0.00000  Uiso   1.00
C145   C     0.10306   0.54095   0.02709   0.00000  Uiso   1.00
C146   C     0.12072   0.52853   0.43610   0.00000  Uiso   1.00
C147   C     0.19263   0.50059   0.01210   0.00000  Uiso   1.00
C148   C     0.22917   0.49217   0.47472   0.00000  Uiso   1.00
C149   C     0.21431   0.51054   0.42158   0.00000  Uiso   1.00
C150   C     0.16320   0.53507   0.40584   0.00000  Uiso   1.00
C151   C     0.21153   0.48599   0.06627   0.00000  Uiso   1.00
C152   C     0.30241   0.46180   0.04883   0.00000  Uiso   1.00
Cl153  Cl    0.02884   0.42461   0.06977   0.00000  Uiso   1.00
Cl154  Cl    0.23230   0.65741   0.21476   0.00000  Uiso   1.00
Cl155  Cl    0.16173   0.45765   0.10160   0.00000  Uiso   1.00
Cl156  Cl    0.16147   0.58983   0.36570   0.00000  Uiso   1.00
H157   H     0.15681   0.45266   0.21708   0.00000  Uiso   1.00
H158   H     0.17661   0.54948   0.27735   0.00000  Uiso   1.00
H159   H     0.02234   0.57500   0.02880   0.00000  Uiso   1.00
H160   H     0.24330   0.50887   0.39397   0.00000  Uiso   1.00
H161   H     0.30601   0.45594   0.46297   0.00000  Uiso   1.00
H162   H     0.31769   0.56449   0.42703   0.00000  Uiso   1.00
H163   H     0.11800   0.54517   0.07177   0.00000  Uiso   1.00
H164   H     0.06477   0.33633   0.25628   0.00000  Uiso   1.00
N165   N     0.14493   0.48556   0.23542   0.00000  Uiso   1.00
N166   N     0.18840   0.51444   0.26457   0.00000  Uiso   1.00
O167   O     0.29769   0.57963   0.25357   0.00000  Uiso   1.00
O168   O     0.05742   0.57038   0.24423   0.00000  Uiso   1.00
O169   O     0.31490   0.50691   0.33380   0.00000  Uiso   1.00
O170   O     0.07463   0.49766   0.32446   0.00000  Uiso   1.00
O171   O     0.27592   0.42962   0.25577   0.00000  Uiso   1.00
O172   O     0.03565   0.42037   0.24642   0.00000  Uiso   1.00
O173   O     0.25870   0.50234   0.17554   0.00000  Uiso   1.00
O174   O     0.01843   0.49309   0.16620   0.00000  Uiso   1.00
Zn175  Zn    0.27119   0.50618   0.25623   0.00000  Uiso   1.00
Zn176  Zn    0.06214   0.49382   0.24376   0.00000  Uiso   1.00
C177   C     0.34691   0.59787   0.24643   0.00000  Uiso   1.00
C178   C     0.39505   0.53193   0.41194   0.00000  Uiso   1.00
C179   C     0.35346   0.65242   0.24591   0.00000  Uiso   1.00
C180   C     0.37129   0.51218   0.35358   0.00000  Uiso   1.00
C181   C     0.64009   0.34755   0.23973   0.00000  Uiso   1.00
C182   C     0.65117   0.40193   0.24885   0.00000  Uiso   1.00
C183   C     0.62865   0.49047   0.14584   0.00000  Uiso   1.00
C184   C     0.61437   0.46783   0.49233   0.00000  Uiso   1.00
C185   C     0.60384   0.47898   0.08644   0.00000  Uiso   1.00
C186   C     0.36038   0.55240   0.44528   0.00000  Uiso   1.00
C187   C     0.38204   0.55869   0.00288   0.00000  Uiso   1.00
C188   C     0.47177   0.52193   0.49291   0.00000  Uiso   1.00
C189   C     0.43640   0.54095   0.02709   0.00000  Uiso   1.00
C190   C     0.45405   0.52853   0.43610   0.00000  Uiso   1.00
C191   C     0.52597   0.50059   0.01210   0.00000  Uiso   1.00
C192   C     0.56250   0.49217   0.47472   0.00000  Uiso   1.00
C193   C     0.54765   0.51054   0.42158   0.00000  Uiso   1.00
C194   C     0.49654   0.53507   0.40584   0.00000  Uiso   1.00
C195   C     0.54486   0.48599   0.06627   0.00000  Uiso   1.00
C196   C     0.63575   0.46180   0.04883   0.00000  Uiso   1.00
Cl197  Cl    0.36217   0.42461   0.06977   0.00000  Uiso   1.00
Cl198  Cl    0.56563   0.65741   0.21476   0.00000  Uiso   1.00
Cl199  Cl    0.49507   0.45765   0.10160   0.00000  Uiso   1.00
Cl200  Cl    0.49480   0.58983   0.36570   0.00000  Uiso   1.00
H201   H     0.49014   0.45266   0.21708   0.00000  Uiso   1.00
H202   H     0.50994   0.54948   0.27735   0.00000  Uiso   1.00
H203   H     0.35568   0.57500   0.02880   0.00000  Uiso   1.00
H204   H     0.57664   0.50887   0.39397   0.00000  Uiso   1.00
H205   H     0.63935   0.45594   0.46297   0.00000  Uiso   1.00
H206   H     0.65103   0.56449   0.42703   0.00000  Uiso   1.00
H207   H     0.45133   0.54517   0.07177   0.00000  Uiso   1.00
H208   H     0.39811   0.33633   0.25628   0.00000  Uiso   1.00
N209   N     0.47827   0.48556   0.23542   0.00000  Uiso   1.00
N210   N     0.52173   0.51444   0.26457   0.00000  Uiso   1.00
O211   O     0.63102   0.57963   0.25357   0.00000  Uiso   1.00
O212   O     0.39075   0.57038   0.24423   0.00000  Uiso   1.00
O213   O     0.64823   0.50691   0.33380   0.00000  Uiso   1.00
O214   O     0.40796   0.49766   0.32446   0.00000  Uiso   1.00
O215   O     0.60925   0.42962   0.25577   0.00000  Uiso   1.00
O216   O     0.36898   0.42037   0.24642   0.00000  Uiso   1.00
O217   O     0.59204   0.50234   0.17554   0.00000  Uiso   1.00
O218   O     0.35177   0.49309   0.16620   0.00000  Uiso   1.00
Zn219  Zn    0.60453   0.50618   0.25623   0.00000  Uiso   1.00
Zn220  Zn    0.39547   0.49382   0.24376   0.00000  Uiso   1.00
C221   C     0.68025   0.59787   0.24643   0.00000  Uiso   1.00
C222   C     0.72839   0.53193   0.41194   0.00000  Uiso   1.00
C223   C     0.68679   0.65242   0.24591   0.00000  Uiso   1.00
C224   C     0.70462   0.51218   0.35358   0.00000  Uiso   1.00
C225   C     0.97343   0.34755   0.23973   0.00000  Uiso   1.00
C226   C     0.98451   0.40193   0.24885   0.00000  Uiso   1.00
C227   C     0.96199   0.49047   0.14584   0.00000  Uiso   1.00
C228   C     0.94770   0.46783   0.49233   0.00000  Uiso   1.00
C229   C     0.93717   0.47898   0.08644   0.00000  Uiso   1.00
C230   C     0.69371   0.55240   0.44528   0.00000  Uiso   1.00
C231   C     0.71537   0.55869   0.00288   0.00000  Uiso   1.00
C232   C     0.80510   0.52193   0.49291   0.00000  Uiso   1.00
C233   C     0.76973   0.54095   0.02709   0.00000  Uiso   1.00
C234   C     0.78738   0.52853   0.43610   0.00000  Uiso   1.00
C235   C     0.85930   0.50059   0.01210   0.00000  Uiso   1.00
C236   C     0.89583   0.49217   0.47472   0.00000  Uiso   1.00
C237   C     0.88098   0.51054   0.42158   0.00000  Uiso   1.00
C238   C     0.82987   0.53507   0.40584   0.00000  Uiso   1.00
C239   C     0.87820   0.48599   0.06627   0.00000  Uiso   1.00
C240   C     0.96908   0.46180   0.04883   0.00000  Uiso   1.00
Cl241  Cl    0.69550   0.42461   0.06977   0.00000  Uiso   1.00
Cl242  Cl    0.89896   0.65741   0.21476   0.00000  Uiso   1.00
Cl243  Cl    0.82840   0.45765   0.10160   0.00000  Uiso   1.00
Cl244  Cl    0.82814   0.58983   0.36570   0.00000  Uiso   1.00
H245   H     0.82348   0.45266   0.21708   0.00000  Uiso   1.00
H246   H     0.84328   0.54948   0.27735   0.00000  Uiso   1.00
H247   H     0.68901   0.57500   0.02880   0.00000  Uiso   1.00
H248   H     0.90997   0.50887   0.39397   0.00000  Uiso   1.00
H249   H     0.97268   0.45594   0.46297   0.00000  Uiso   1.00
H250   H     0.98436   0.56449   0.42703   0.00000  Uiso   1.00
H251   H     0.78467   0.54517   0.07177   0.00000  Uiso   1.00
H252   H     0.73144   0.33633   0.25628   0.00000  Uiso   1.00
N253   N     0.81160   0.48556   0.23542   0.00000  Uiso   1.00
N254   N     0.85507   0.51444   0.26457   0.00000  Uiso   1.00
O255   O     0.96435   0.57963   0.25357   0.00000  Uiso   1.00
O256   O     0.72408   0.57038   0.24423   0.00000  Uiso   1.00
O257   O     0.98157   0.50691   0.33380   0.00000  Uiso   1.00
O258   O     0.74130   0.49766   0.32446   0.00000  Uiso   1.00
O259   O     0.94258   0.42962   0.25577   0.00000  Uiso   1.00
O260   O     0.70231   0.42037   0.24642   0.00000  Uiso   1.00
O261   O     0.92537   0.50234   0.17554   0.00000  Uiso   1.00
O262   O     0.68510   0.49309   0.16620   0.00000  Uiso   1.00
Zn263  Zn    0.93786   0.50618   0.25623   0.00000  Uiso   1.00
Zn264  Zn    0.72881   0.49382   0.24376   0.00000  Uiso   1.00
C265   C     0.01358   0.93120   0.24643   0.00000  Uiso   1.00
C266   C     0.06172   0.86526   0.41194   0.00000  Uiso   1.00
C267   C     0.02013   0.98575   0.24591   0.00000  Uiso   1.00
C268   C     0.03796   0.84551   0.35358   0.00000  Uiso   1.00
C269   C     0.30676   0.68089   0.23973   0.00000  Uiso   1.00
C270   C     0.31784   0.73526   0.24885   0.00000  Uiso   1.00
C271   C     0.29532   0.82380   0.14584   0.00000  Uiso   1.00
C272   C     0.28103   0.80116   0.49233   0.00000  Uiso   1.00
C273   C     0.27051   0.81231   0.08644   0.00000  Uiso   1.00
C274   C     0.02704   0.88573   0.44528   0.00000  Uiso   1.00
C275   C     0.04870   0.89203   0.00288   0.00000  Uiso   1.00
C276   C     0.13843   0.85526   0.49291   0.00000  Uiso   1.00
C277   C     0.10306   0.87429   0.02709   0.00000  Uiso   1.00
C278   C     0.12072   0.86186   0.43610   0.00000  Uiso   1.00
C279   C     0.19263   0.83392   0.01210   0.00000  Uiso   1.00
C280   C     0.22917   0.82551   0.47472   0.00000  Uiso   1.00
C281   C     0.21431   0.84387   0.42158   0.00000  Uiso   1.00
C282   C     0.16320   0.86840   0.40584   0.00000  Uiso   1.00
C283   C     0.21153   0.81932   0.06627   0.00000  Uiso   1.00
C284   C     0.30241   0.79513   0.04883   0.00000  Uiso   1.00
Cl285  Cl    0.02884   0.75795   0.06977   0.00000  Uiso   1.00
Cl286  Cl    0.23230   0.99074   0.21476   0.00000  Uiso   1.00
Cl287  Cl    0.16173   0.79098   0.10160   0.00000  Uiso   1.00
Cl288  Cl    0.16147   0.92316   0.36570   0.00000  Uiso   1.00
H289   H     0.15681   0.78599   0.21708   0.00000  Uiso   1.00
H290   H     0.17661   0.88281   0.27735   0.00000  Uiso   1.00
H291   H     0.02234   0.90833   0.02880   0.00000  Uiso   1.00
H292   H     0.24330   0.84220   0.39397   0.00000  Uiso   1.00
H293   H     0.30601   0.78928   0.46297   0.00000  Uiso   1.00
H294   H     0.31769   0.89782   0.42703   0.00000  Uiso   1.00
H295   H     0.11800   0.87850   0.07177   0.00000  Uiso   1.00
H296   H     0.06477   0.66966   0.25628   0.00000  Uiso   1.00
N297   N     0.14493   0.81890   0.23542   0.00000  Uiso   1.00
N298   N     0.18840   0.84777   0.26457   0.00000  Uiso   1.00
O299   O     0.29769   0.91296   0.25357   0.00000  Uiso   1.00
O300   O     0.05742   0.90371   0.24423   0.00000  Uiso   1.00
O301   O     0.31490   0.84024   0.33380   0.00000  Uiso   1.00
O302   O     0.07463   0.83099   0.32446   0.00000  Uiso   1.00
O303   O     0.27592   0.76296   0.25577   0.00000  Uiso   1.00
O304   O     0.03565   0.75371   0.24642   0.00000  Uiso   1.00
O305   O     0.25870   0.83567   0.17554   0.00000  Uiso   1.00
O306   O     0.01843   0.82642   0.16620   0.00000  Uiso   1.00
Zn307  Zn    0.27119   0.83951   0.25623   0.00000  Uiso   1.00
Zn308  Zn    0.06214   0.82716   0.24376   0.00000  Uiso   1.00
C309   C     0.34691   0.93120   0.24643   0.00000  Uiso   1.00
C310   C     0.39505   0.86526   0.41194   0.00000  Uiso   1.00
C311   C     0.35346   0.98575   0.24591   0.00000  Uiso   1.00
C312   C     0.37129   0.84551   0.35358   0.00000  Uiso   1.00
C313   C     0.64009   0.68089   0.23973   0.00000  Uiso   1.00
C314   C     0.65117   0.73526   0.24885   0.00000  Uiso   1.00
C315   C     0.62865   0.82380   0.14584   0.00000  Uiso   1.00
C316   C     0.61437   0.80116   0.49233   0.00000  Uiso   1.00
C317   C     0.60384   0.81231   0.08644   0.00000  Uiso   1.00
C318   C     0.36038   0.88573   0.44528   0.00000  Uiso   1.00
C319   C     0.38204   0.89203   0.00288   0.00000  Uiso   1.00
C320   C     0.47177   0.85526   0.49291   0.00000  Uiso   1.00
C321   C     0.43640   0.87429   0.02709   0.00000  Uiso   1.00
C322   C     0.45405   0.86186   0.43610   0.00000  Uiso   1.00
C323   C     0.52597   0.83392   0.01210   0.00000  Uiso   1.00
C324   C     0.56250   0.82551   0.47472   0.00000  Uiso   1.00
C325   C     0.54765   0.84387   0.42158   0.00000  Uiso   1.00
C326   C     0.49654   0.86840   0.40584   0.00000  Uiso   1.00
C327   C     0.54486   0.81932   0.06627   0.00000  Uiso   1.00
C328   C     0.63575   0.79513   0.04883   0.00000  Uiso   1.00
Cl329  Cl    0.36217   0.75795   0.06977   0.00000  Uiso   1.00
Cl330  Cl    0.56563   0.99074   0.21476   0.00000  Uiso   1.00
Cl331  Cl    0.49507   0.79098   0.10160   0.00000  Uiso   1.00
Cl332  Cl    0.49480   0.92316   0.36570   0.00000  Uiso   1.00
H333   H     0.49014   0.78599   0.21708   0.00000  Uiso   1.00
H334   H     0.50994   0.88281   0.27735   0.00000  Uiso   1.00
H335   H     0.35568   0.90833   0.02880   0.00000  Uiso   1.00
H336   H     0.57664   0.84220   0.39397   0.00000  Uiso   1.00
H337   H     0.63935   0.78928   0.46297   0.00000  Uiso   1.00
H338   H     0.65103   0.89782   0.42703   0.00000  Uiso   1.00
H339   H     0.45133   0.87850   0.07177   0.00000  Uiso   1.00
H340   H     0.39811   0.66966   0.25628   0.00000  Uiso   1.00
N341   N     0.47827   0.81890   0.23542   0.00000  Uiso   1.00
N342   N     0.52173   0.84777   0.26457   0.00000  Uiso   1.00
O343   O     0.63102   0.91296   0.25357   0.00000  Uiso   1.00
O344   O     0.39075   0.90371   0.24423   0.00000  Uiso   1.00
O345   O     0.64823   0.84024   0.33380   0.00000  Uiso   1.00
O346   O     0.40796   0.83099   0.32446   0.00000  Uiso   1.00
O347   O     0.60925   0.76296   0.25577   0.00000  Uiso   1.00
O348   O     0.36898   0.75371   0.24642   0.00000  Uiso   1.00
O349   O     0.59204   0.83567   0.17554   0.00000  Uiso   1.00
O350   O     0.35177   0.82642   0.16620   0.00000  Uiso   1.00
Zn351  Zn    0.60453   0.83951   0.25623   0.00000  Uiso   1.00
Zn352  Zn    0.39547   0.82716   0.24376   0.00000  Uiso   1.00
C353   C     0.68025   0.93120   0.24643   0.00000  Uiso   1.00
C354   C     0.72839   0.86526   0.41194   0.00000  Uiso   1.00
C355   C     0.68679   0.98575   0.24591   0.00000  Uiso   1.00
C356   C     0.70462   0.84551   0.35358   0.00000  Uiso   1.00
C357   C     0.97343   0.68089   0.23973   0.00000  Uiso   1.00
C358   C     0.98451   0.73526   0.24885   0.00000  Uiso   1.00
C359   C     0.96199   0.82380   0.14584   0.00000  Uiso   1.00
C360   C     0.94770   0.80116   0.49233   0.00000  Uiso   1.00
C361   C     0.93717   0.81231   0.08644   0.00000  Uiso   1.00
C362   C     0.69371   0.88573   0.44528   0.00000  Uiso   1.00
C363   C     0.71537   0.89203   0.00288   0.00000  Uiso   1.00
C364   C     0.80510   0.85526   0.49291   0.00000  Uiso   1.00
C365   C     0.76973   0.87429   0.02709   0.00000  Uiso   1.00
C366   C     0.78738   0.86186   0.43610   0.00000  Uiso   1.00
C367   C     0.85930   0.83392   0.01210   0.00000  Uiso   1.00
C368   C     0.89583   0.82551   0.47472   0.00000  Uiso   1.00
C369   C     0.88098   0.84387   0.42158   0.00000  Uiso   1.00
C370   C     0.82987   0.86840   0.40584   0.00000  Uiso   1.00
C371   C     0.87820   0.81932   0.06627   0.00000  Uiso   1.00
C372   C     0.96908   0.79513   0.04883   0.00000  Uiso   1.00
Cl373  Cl    0.69550   0.75795   0.06977   0.00000  Uiso   1.00
Cl374  Cl    0.89896   0.99074   0.21476   0.00000  Uiso   1.00
Cl375  Cl    0.82840   0.79098   0.10160   0.00000  Uiso   1.00
Cl376  Cl    0.82814   0.92316   0.36570   0.00000  Uiso   1.00
H377   H     0.82348   0.78599   0.21708   0.00000  Uiso   1.00
H378   H     0.84328   0.88281   0.27735   0.00000  Uiso   1.00
H379   H     0.68901   0.90833   0.02880   0.00000  Uiso   1.00
H380   H     0.90997   0.84220   0.39397   0.00000  Uiso   1.00
H381   H     0.97268   0.78928   0.46297   0.00000  Uiso   1.00
H382   H     0.98436   0.89782   0.42703   0.00000  Uiso   1.00
H383   H     0.78467   0.87850   0.07177   0.00000  Uiso   1.00
H384   H     0.73144   0.66966   0.25628   0.00000  Uiso   1.00
N385   N     0.81160   0.81890   0.23542   0.00000  Uiso   1.00
N386   N     0.85507   0.84777   0.26457   0.00000  Uiso   1.00
O387   O     0.96435   0.91296   0.25357   0.00000  Uiso   1.00
O388   O     0.72408   0.90371   0.24423   0.00000  Uiso   1.00
O389   O     0.98157   0.84024   0.33380   0.00000  Uiso   1.00
O390   O     0.74130   0.83099   0.32446   0.00000  Uiso   1.00
O391   O     0.94258   0.76296   0.25577   0.00000  Uiso   1.00
O392   O     0.70231   0.75371   0.24642   0.00000  Uiso   1.00
O393   O     0.92537   0.83567   0.17554   0.00000  Uiso   1.00
O394   O     0.68510   0.82642   0.16620   0.00000  Uiso   1.00
Zn395  Zn    0.93786   0.83951   0.25623   0.00000  Uiso   1.00
Zn396  Zn    0.72881   0.82716   0.24376   0.00000  Uiso   1.00
C397   C     0.01358   0.26454   0.74643   0.00000  Uiso   1.00
C398   C     0.06172   0.19859   0.91194   0.00000  Uiso   1.00
C399   C     0.02013   0.31908   0.74591   0.00000  Uiso   1.00
C400   C     0.03796   0.17884   0.85358   0.00000  Uiso   1.00
C401   C     0.30676   0.01422   0.73973   0.00000  Uiso   1.00
C402   C     0.31784   0.06859   0.74885   0.00000  Uiso   1.00
C403   C     0.29532   0.15713   0.64584   0.00000  Uiso   1.00
C404   C     0.28103   0.13449   0.99233   0.00000  Uiso   1.00
C405   C     0.27051   0.14565   0.58644   0.00000  Uiso   1.00
C406   C     0.02704   0.21907   0.94528   0.00000  Uiso   1.00
C407   C     0.04870   0.22536   0.50288   0.00000  Uiso   1.00
C408   C     0.13843   0.18860   0.99291   0.00000  Uiso   1.00
C409   C     0.10306   0.20762   0.52709   0.00000  Uiso   1.00
C410   C     0.12072   0.19519   0.93610   0.00000  Uiso   1.00
C411   C     0.19263   0.16725   0.51210   0.00000  Uiso   1.00
C412   C     0.22917   0.15884   0.97472   0.00000  Uiso   1.00
C413   C     0.21431   0.17720   0.92158   0.00000  Uiso   1.00
C414   C     0.16320   0.20174   0.90584   0.00000  Uiso   1.00
C415   C     0.21153   0.15265   0.56627   0.00000  Uiso   1.00
C416   C     0.30241   0.12847   0.54883   0.00000  Uiso   1.00
Cl417  Cl    0.02884   0.09128   0.56977   0.00000  Uiso   1.00
Cl418  Cl    0.23230   0.32408   0.71476   0.00000  Uiso   1.00
Cl419  Cl    0.16173   0.12432   0.60160   0.00000  Uiso   1.00
Cl420  Cl    0.16147   0.25650   0.86570   0.00000  Uiso   1.00
H421   H     0.15681   0.11932   0.71708   0.00000  Uiso   1.00
H422   H     0.17661   0.21615   0.77735   0.00000  Uiso   1.00
H423   H     0.02234   0.24167   0.52880   0.00000  Uiso   1.00
H424   H     0.24330   0.17553   0.89397   0.00000  Uiso   1.00
H425   H     0.30601   0.12261   0.96297   0.00000  Uiso   1.00
H426   H     0.31769   0.23115   0.92703   0.00000  Uiso   1.00
H427   H     0.11800   0.21184   0.57177   0.00000  Uiso   1.00
H428   H     0.06477   0.00300   0.75628   0.00000  Uiso   1.00
N429   N     0.14493   0.15223   0.73542   0.00000  Uiso   1.00
N430   N     0.18840   0.18110   0.76457   0.00000  Uiso   1.00
O431   O     0.29769   0.24629   0.75357   0.00000  Uiso   1.00
O432   O     0.05742   0.23704   0.74423   0.00000  Uiso   1.00
O433   O     0.31490   0.17358   0.83380   0.00000  Uiso   1.00
O434   O     0.07463   0.16433   0.82446   0.00000  Uiso   1.00
O435   O     0.27592   0.09629   0.75577   0.00000  Uiso   1.00
O436   O     0.03565   0.08704   0.74642   0.00000  Uiso   1.00
O437   O     0.25870   0.16901   0.67554   0.00000  Uiso   1.00
O438   O     0.01843   0.15976   0.66620   0.00000  Uiso   1.00
Zn439  Zn    0.27119   0.17284   0.75623   0.00000  Uiso   1.00
Zn440  Zn    0.06214   0.16049   0.74376   0.00000  Uiso   1.00
C441   C     0.34691   0.26454   0.74643   0.00000  Uiso   1.00
C442   C     0.39505   0.19859   0.91194   0.00000  Uiso   1.00
C443   C     0.35346   0.31908   0.74591   0.00000  Uiso   1.00
C444   C     0.37129   0.17884   0.85358   0.00000  Uiso   1.00
C445   C     0.64009   0.01422   0.73973   0.00000  Uiso   1.00
C446   C     0.65117   0.06859   0.74885   0.00000  Uiso   1.00
C447   C     0.62865   0.15713   0.64584   0.00000  Uiso   1.00
C448   C     0.61437   0.13449   0.99233   0.00000  Uiso   1.00
C449   C     0.60384   0.14565   0.58644   0.00000  Uiso   1.00
C450   C     0.36038   0.21907   0.94528   0.00000  Uiso   1.00
C451   C     0.38204   0.22536   0.50288   0.00000  Uiso   1.00
C452   C     0.47177   0.18860   0.99291   0.00000  Uiso   1.00
C453   C     0.43640   0.20762   0.52709   0.00000  Uiso   1.00
C454   C     0.45405   0.19519   0.93610   0.00000  Uiso   1.00
C455   C     0.52597   0.16725   0.51210   0.00000  Uiso   1.00
C456   C     0.56250   0.15884   0.97472   0.00000  Uiso   1.00
C457   C     0.54765   0.17720   0.92158   0.00000  Uiso   1.00
C458   C     0.49654   0.20174   0.90584   0.00000  Uiso   1.00
C459   C     0.54486   0.15265   0.56627   0.00000  Uiso   1.00
C460   C     0.63575   0.12847   0.54883   0.00000  Uiso   1.00
Cl461  Cl    0.36217   0.09128   0.56977   0.00000  Uiso   1.00
Cl462  Cl    0.56563   0.32408   0.71476   0.00000  Uiso   1.00
Cl463  Cl    0.49507   0.12432   0.60160   0.00000  Uiso   1.00
Cl464  Cl    0.49480   0.25650   0.86570   0.00000  Uiso   1.00
H465   H     0.49014   0.11932   0.71708   0.00000  Uiso   1.00
H466   H     0.50994   0.21615   0.77735   0.00000  Uiso   1.00
H467   H     0.35568   0.24167   0.52880   0.00000  Uiso   1.00
H468   H     0.57664   0.17553   0.89397   0.00000  Uiso   1.00
H469   H     0.63935   0.12261   0.96297   0.00000  Uiso   1.00
H470   H     0.65103   0.23115   0.92703   0.00000  Uiso   1.00
H471   H     0.45133   0.21184   0.57177   0.00000  Uiso   1.00
H472   H     0.39811   0.00300   0.75628   0.00000  Uiso   1.00
N473   N     0.47827   0.15223   0.73542   0.00000  Uiso   1.00
N474   N     0.52173   0.18110   0.76457   0.00000  Uiso   1.00
O475   O     0.63102   0.24629   0.75357   0.00000  Uiso   1.00
O476   O     0.39075   0.23704   0.74423   0.00000  Uiso   1.00
O477   O     0.64823   0.17358   0.83380   0.00000  Uiso   1.00
O478   O     0.40796   0.16433   0.82446   0.00000  Uiso   1.00
O479   O     0.60925   0.09629   0.75577   0.00000  Uiso   1.00
O480   O     0.36898   0.08704   0.74642   0.00000  Uiso   1.00
O481   O     0.59204   0.16901   0.67554   0.00000  Uiso   1.00
O482   O     0.35177   0.15976   0.66620   0.00000  Uiso   1.00
Zn483  Zn    0.60453   0.17284   0.75623   0.00000  Uiso   1.00
Zn484  Zn    0.39547   0.16049   0.74376   0.00000  Uiso   1.00
C485   C     0.68025   0.26454   0.74643   0.00000  Uiso   1.00
C486   C     0.72839   0.19859   0.91194   0.00000  Uiso   1.00
C487   C     0.68679   0.31908   0.74591   0.00000  Uiso   1.00
C488   C     0.70462   0.17884   0.85358   0.00000  Uiso   1.00
C489   C     0.97343   0.01422   0.73973   0.00000  Uiso   1.00
C490   C     0.98451   0.06859   0.74885   0.00000  Uiso   1.00
C491   C     0.96199   0.15713   0.64584   0.00000  Uiso   1.00
C492   C     0.94770   0.13449   0.99233   0.00000  Uiso   1.00
C493   C     0.93717   0.14565   0.58644   0.00000  Uiso   1.00
C494   C     0.69371   0.21907   0.94528   0.00000  Uiso   1.00
C495   C     0.71537   0.22536   0.50288   0.00000  Uiso   1.00
C496   C     0.80510   0.18860   0.99291   0.00000  Uiso   1.00
C497   C     0.76973   0.20762   0.52709   0.00000  Uiso   1.00
C498   C     0.78738   0.19519   0.93610   0.00000  Uiso   1.00
C499   C     0.85930   0.16725   0.51210   0.00000  Uiso   1.00
C500   C     0.89583   0.15884   0.97472   0.00000  Uiso   1.00
C501   C     0.88098   0.17720   0.92158   0.00000  Uiso   1.00
C502   C     0.82987   0.20174   0.90584   0.00000  Uiso   1.00
C503   C     0.87820   0.15265   0.56627   0.00000  Uiso   1.00
C504   C     0.96908   0.12847   0.54883   0.00000  Uiso   1.00
Cl505  Cl    0.69550   0.09128   0.56977   0.00000  Uiso   1.00
Cl506  Cl    0.89896   0.32408   0.71476   0.00000  Uiso   1.00
Cl507  Cl    0.82840   0.12432   0.60160   0.00000  Uiso   1.00
Cl508  Cl    0.82814   0.25650   0.86570   0.00000  Uiso   1.00
H509   H     0.82348   0.11932   0.71708   0.00000  Uiso   1.00
H510   H     0.84328   0.21615   0.77735   0.00000  Uiso   1.00
H511   H     0.68901   0.24167   0.52880   0.00000  Uiso   1.00
H512   H     0.90997   0.17553   0.89397   0.00000  Uiso   1.00
H513   H     0.97268   0.12261   0.96297   0.00000  Uiso   1.00
H514   H     0.98436   0.23115   0.92703   0.00000  Uiso   1.00
H515   H     0.78467   0.21184   0.57177   0.00000  Uiso   1.00
H516   H     0.73144   0.00300   0.75628   0.00000  Uiso   1.00
N517   N     0.81160   0.15223   0.73542   0.00000  Uiso   1.00
N518   N     0.85507   0.18110   0.76457   0.00000  Uiso   1.00
O519   O     0.96435   0.24629   0.75357   0.00000  Uiso   1.00
O520   O     0.72408   0.23704   0.74423   0.00000  Uiso   1.00
O521   O     0.98157   0.17358   0.83380   0.00000  Uiso   1.00
O522   O     0.74130   0.16433   0.82446   0.00000  Uiso   1.00
O523   O     0.94258   0.09629   0.75577   0.00000  Uiso   1.00
O524   O     0.70231   0.08704   0.74642   0.00000  Uiso   1.00
O525   O     0.92537   0.16901   0.67554   0.00000  Uiso   1.00
O526   O     0.68510   0.15976   0.66620   0.00000  Uiso   1.00
Zn527  Zn    0.93786   0.17284   0.75623   0.00000  Uiso   1.00
Zn528  Zn    0.72881   0.16049   0.74376   0.00000  Uiso   1.00
C529   C     0.01358   0.59787   0.74643   0.00000  Uiso   1.00
C530   C     0.06172   0.53193   0.91194   0.00000  Uiso   1.00
C531   C     0.02013   0.65242   0.74591   0.00000  Uiso   1.00
C532   C     0.03796   0.51218   0.85358   0.00000  Uiso   1.00
C533   C     0.30676   0.34755   0.73973   0.00000  Uiso   1.00
C534   C     0.31784   0.40193   0.74885   0.00000  Uiso   1.00
C535   C     0.29532   0.49047   0.64584   0.00000  Uiso   1.00
C536   C     0.28103   0.46783   0.99233   0.00000  Uiso   1.00
C537   C     0.27051   0.47898   0.58644   0.00000  Uiso   1.00
C538   C     0.02704   0.55240   0.94528   0.00000  Uiso   1.00
C539   C     0.04870   0.55869   0.50288   0.00000  Uiso   1.00
C540   C     0.13843   0.52193   0.99291   0.00000  Uiso   1.00
C541   C     0.10306   0.54095   0.52709   0.00000  Uiso   1.00
C542   C     0.12072   0.52853   0.93610   0.00000  Uiso   1.00
C543   C     0.19263   0.50059   0.51210   0.00000  Uiso   1.00
C544   C     0.22917   0.49217   0.97472   0.00000  Uiso   1.00
C545   C     0.21431   0.51054   0.92158   0.00000  Uiso   1.00
C546   C     0.16320   0.53507   0.90584   0.00000  Uiso   1.00
C547   C     0.21153   0.48599   0.56627   0.00000  Uiso   1.00
C548   C     0.30241   0.46180   0.54883   0.00000  Uiso   1.00
Cl549  Cl    0.02884   0.42461   0.56977   0.00000  Uiso   1.00
Cl550  Cl    0.23230   0.65741   0.71476   0.00000  Uiso   1.00
Cl551  Cl    0.16173   0.45765   0.60160   0.00000  Uiso   1.00
Cl552  Cl    0.16147   0.58983   0.86570   0.00000  Uiso   1.00
H553   H     0.15681   0.45266   0.71708   0.00000  Uiso   1.00
H554   H     0.17661   0.54948   0.77735   0.00000  Uiso   1.00
H555   H     0.02234   0.57500   0.52880   0.00000  Uiso   1.00
H556   H     0.24330   0.50887   0.89397   0.00000  Uiso   1.00
H557   H     0.30601   0.45594   0.96297   0.00000  Uiso   1.00
H558   H     0.31769   0.56449   0.92703   0.00000  Uiso   1.00
H559   H     0.11800   0.54517   0.57177   0.00000  Uiso   1.00
H560   H     0.06477   0.33633   0.75628   0.00000  Uiso   1.00
N561   N     0.14493   0.48556   0.73542   0.00000  Uiso   1.00
N562   N     0.18840   0.51444   0.76457   0.00000  Uiso   1.00
O563   O     0.29769   0.57963   0.75357   0.00000  Uiso   1.00
O564   O     0.05742   0.57038   0.74423   0.00000  Uiso   1.00
O565   O     0.31490   0.50691   0.83380   0.00000  Uiso   1.00
O566   O     0.07463   0.49766   0.82446   0.00000  Uiso   1.00
O567   O     0.27592   0.42962   0.75577   0.00000  Uiso   1.00
O568   O     0.03565   0.42037   0.74642   0.00000  Uiso   1.00
O569   O     0.25870   0.50234   0.67554   0.00000  Uiso   1.00
O570   O     0.01843   0.49309   0.66620   0.00000  Uiso   1.00
Zn571  Zn    0.27119   0.50618   0.75623   0.00000  Uiso   1.00
Zn572  Zn    0.06214   0.49382   0.74376   0.00000  Uiso   1.00
C573   C     0.34691   0.59787   0.74643   0.00000  Uiso   1.00
C574   C     0.39505   0.53193   0.91194   0.00000  Uiso   1.00
C575   C     0.35346   0.65242   0.74591   0.00000  Uiso   1.00
C576   C     0.37129   0.51218   0.85358   0.00000  Uiso   1.00
C577   C     0.64009   0.34755   0.73973   0.00000  Uiso   1.00
C578   C     0.65117   0.40193   0.74885   0.00000  Uiso   1.00
C579   C     0.62865   0.49047   0.64584   0.00000  Uiso   1.00
C580   C     0.61437   0.46783   0.99233   0.00000  Uiso   1.00
C581   C     0.60384   0.47898   0.58644   0.00000  Uiso   1.00
C582   C     0.36038   0.55240   0.94528   0.00000  Uiso   1.00
C583   C     0.38204   0.55869   0.50288   0.00000  Uiso   1.00
C584   C     0.47177   0.52193   0.99291   0.00000  Uiso   1.00
C585   C     0.43640   0.54095   0.52709   0.00000  Uiso   1.00
C586   C     0.45405   0.52853   0.93610   0.00000  Uiso   1.00
C587   C     0.52597   0.50059   0.51210   0.00000  Uiso   1.00
C588   C     0.56250   0.49217   0.97472   0.00000  Uiso   1.00
C589   C     0.54765   0.51054   0.92158   0.00000  Uiso   1.00
C590   C     0.49654   0.53507   0.90584   0.00000  Uiso   1.00
C591   C     0.54486   0.48599   0.56627   0.00000  Uiso   1.00
C592   C     0.63575   0.46180   0.54883   0.00000  Uiso   1.00
Cl593  Cl    0.36217   0.42461   0.56977   0.00000  Uiso   1.00
Cl594  Cl    0.56563   0.65741   0.71476   0.00000  Uiso   1.00
Cl595  Cl    0.49507   0.45765   0.60160   0.00000  Uiso   1.00
Cl596  Cl    0.49480   0.58983   0.86570   0.00000  Uiso   1.00
H597   H     0.49014   0.45266   0.71708   0.00000  Uiso   1.00
H598   H     0.50994   0.54948   0.77735   0.00000  Uiso   1.00
H599   H     0.35568   0.57500   0.52880   0.00000  Uiso   1.00
H600   H     0.57664   0.50887   0.89397   0.00000  Uiso   1.00
H601   H     0.63935   0.45594   0.96297   0.00000  Uiso   1.00
H602   H     0.65103   0.56449   0.92703   0.00000  Uiso   1.00
H603   H     0.45133   0.54517   0.57177   0.00000  Uiso   1.00
H604   H     0.39811   0.33633   0.75628   0.00000  Uiso   1.00
N605   N     0.47827   0.48556   0.73542   0.00000  Uiso   1.00
N606   N     0.52173   0.51444   0.76457   0.00000  Uiso   1.00
O607   O     0.63102   0.57963   0.75357   0.00000  Uiso   1.00
O608   O     0.39075   0.57038   0.74423   0.00000  Uiso   1.00
O609   O     0.64823   0.50691   0.83380   0.00000  Uiso   1.00
O610   O     0.40796   0.49766   0.82446   0.00000  Uiso   1.00
O611   O     0.60925   0.42962   0.75577   0.00000  Uiso   1.00
O612   O     0.36898   0.42037   0.74642   0.00000  Uiso   1.00
O613   O     0.59204   0.50234   0.67554   0.00000  Uiso   1.00
O614   O     0.35177   0.49309   0.66620   0.00000  Uiso   1.00
Zn615  Zn    0.60453   0.50618   0.75623   0.00000  Uiso   1.00
Zn616  Zn    0.39547   0.49382   0.74376   0.00000  Uiso   1.00
C617   C     0.68025   0.59787   0.74643   0.00000  Uiso   1.00
C618   C     0.72839   0.53193   0.91194   0.00000  Uiso   1.00
C619   C     0.68679   0.65242   0.74591   0.00000  Uiso   1.00
C620   C     0.70462   0.51218   0.85358   0.00000  Uiso   1.00
C621   C     0.97343   0.34755   0.73973   0.00000  Uiso   1.00
C622   C     0.98451   0.40193   0.74885   0.00000  Uiso   1.00
C623   C     0.96199   0.49047   0.64584   0.00000  Uiso   1.00
C624   C     0.94770   0.46783   0.99233   0.00000  Uiso   1.00
C625   C     0.93717   0.47898   0.58644   0.00000  Uiso   1.00
C626   C     0.69371   0.55240   0.94528   0.00000  Uiso   1.00
C627   C     0.71537   0.55869   0.50288   0.00000  Uiso   1.00
C628   C     0.80510   0.52193   0.99291   0.00000  Uiso   1.00
C629   C     0.76973   0.54095   0.52709   0.00000  Uiso   1.00
C630   C     0.78738   0.52853   0.93610   0.00000  Uiso   1.00
C631   C     0.85930   0.50059   0.51210   0.00000  Uiso   1.00
C632   C     0.89583   0.49217   0.97472   0.00000  Uiso   1.00
C633   C     0.88098   0.51054   0.92158   0.00000  Uiso   1.00
C634   C     0.82987   0.53507   0.90584   0.00000  Uiso   1.00
C635   C     0.87820   0.48599   0.56627   0.00000  Uiso   1.00
C636   C     0.96908   0.46180   0.54883   0.00000  Uiso   1.00
Cl637  Cl    0.69550   0.42461   0.56977   0.00000  Uiso   1.00
Cl638  Cl    0.89896   0.65741   0.71476   0.00000  Uiso   1.00
Cl639  Cl    0.82840   0.45765   0.60160   0.00000  Uiso   1.00
Cl640  Cl    0.82814   0.58983   0.86570   0.00000  Uiso   1.00
H641   H     0.82348   0.45266   0.71708   0.00000  Uiso   1.00
H642   H     0.84328   0.54948   0.77735   0.00000  Uiso   1.00
H643   H     0.68901   0.57500   0.52880   0.00000  Uiso   1.00
H644   H     0.90997   0.50887   0.89397   0.00000  Uiso   1.00
H645   H     0.97268   0.45594   0.96297   0.00000  Uiso   1.00
H646   H     0.98436   0.56449   0.92703   0.00000  Uiso   1.00
H647   H     0.78467   0.54517   0.57177   0.00000  Uiso   1.00
H648   H     0.73144   0.33633   0.75628   0.00000  Uiso   1.00
N649   N     0.81160   0.48556   0.73542   0.00000  Uiso   1.00
N650   N     0.85507   0.51444   0.76457   0.00000  Uiso   1.00
O651   O     0.96435   0.57963   0.75357   0.00000  Uiso   1.00
O652   O     0.72408   0.57038   0.74423   0.00000  Uiso   1.00
O653   O     0.98157   0.50691   0.83380   0.00000  Uiso   1.00
O654   O     0.74130   0.49766   0.82446   0.00000  Uiso   1.00
O655   O     0.94258   0.42962   0.75577   0.00000  Uiso   1.00
O656   O     0.70231   0.42037   0.74642   0.00000  Uiso   1.00
O657   O     0.92537   0.50234   0.67554   0.00000  Uiso   1.00
O658   O     0.68510   0.49309   0.66620   0.00000  Uiso   1.00
Zn659  Zn    0.93786   0.50618   0.75623   0.00000  Uiso   1.00
Zn660  Zn    0.72881   0.49382   0.74376   0.00000  Uiso   1.00
C661   C     0.01358   0.93120   0.74643   0.00000  Uiso   1.00
C662   C     0.06172   0.86526   0.91194   0.00000  Uiso   1.00
C663   C     0.02013   0.98575   0.74591   0.00000  Uiso   1.00
C664   C     0.03796   0.84551   0.85358   0.00000  Uiso   1.00
C665   C     0.30676   0.68089   0.73973   0.00000  Uiso   1.00
C666   C     0.31784   0.73526   0.74885   0.00000  Uiso   1.00
C667   C     0.29532   0.82380   0.64584   0.00000  Uiso   1.00
C668   C     0.28103   0.80116   0.99233   0.00000  Uiso   1.00
C669   C     0.27051   0.81231   0.58644   0.00000  Uiso   1.00
C670   C     0.02704   0.88573   0.94528   0.00000  Uiso   1.00
C671   C     0.04870   0.89203   0.50288   0.00000  Uiso   1.00
C672   C     0.13843   0.85526   0.99291   0.00000  Uiso   1.00
C673   C     0.10306   0.87429   0.52709   0.00000  Uiso   1.00
C674   C     0.12072   0.86186   0.93610   0.00000  Uiso   1.00
C675   C     0.19263   0.83392   0.51210   0.00000  Uiso   1.00
C676   C     0.22917   0.82551   0.97472   0.00000  Uiso   1.00
C677   C     0.21431   0.84387   0.92158   0.00000  Uiso   1.00
C678   C     0.16320   0.86840   0.90584   0.00000  Uiso   1.00
C679   C     0.21153   0.81932   0.56627   0.00000  Uiso   1.00
C680   C     0.30241   0.79513   0.54883   0.00000  Uiso   1.00
Cl681  Cl    0.02884   0.75795   0.56977   0.00000  Uiso   1.00
Cl682  Cl    0.23230   0.99074   0.71476   0.00000  Uiso   1.00
Cl683  Cl    0.16173   0.79098   0.60160   0.00000  Uiso   1.00
Cl684  Cl    0.16147   0.92316   0.86570   0.00000  Uiso   1.00
H685   H     0.15681   0.78599   0.71708   0.00000  Uiso   1.00
H686   H     0.17661   0.88281   0.77735   0.00000  Uiso   1.00
H687   H     0.02234   0.90833   0.52880   0.00000  Uiso   1.00
H688   H     0.24330   0.84220   0.89397   0.00000  Uiso   1.00
H689   H     0.30601   0.78928   0.96297   0.00000  Uiso   1.00
H690   H     0.31769   0.89782   0.92703   0.00000  Uiso   1.00
H691   H     0.11800   0.87850   0.57177   0.00000  Uiso   1.00
H692   H     0.06477   0.66966   0.75628   0.00000  Uiso   1.00
N693   N     0.14493   0.81890   0.73542   0.00000  Uiso   1.00
N694   N     0.18840   0.84777   0.76457   0.00000  Uiso   1.00
O695   O     0.29769   0.91296   0.75357   0.00000  Uiso   1.00
O696   O     0.05742   0.90371   0.74423   0.00000  Uiso   1.00
O697   O     0.31490   0.84024   0.83380   0.00000  Uiso   1.00
O698   O     0.07463   0.83099   0.82446   0.00000  Uiso   1.00
O699   O     0.27592   0.76296   0.75577   0.00000  Uiso   1.00
O700   O     0.03565   0.75371   0.74642   0.00000  Uiso   1.00
O701   O     0.25870   0.83567   0.67554   0.00000  Uiso   1.00
O702   O     0.01843   0.82642   0.66620   0.00000  Uiso   1.00
Zn703  Zn    0.27119   0.83951   0.75623   0.00000  Uiso   1.00
Zn704  Zn    0.06214   0.82716   0.74376   0.00000  Uiso   1.00
C705   C     0.34691   0.93120   0.74643   0.00000  Uiso   1.00
C706   C     0.39505   0.86526   0.91194   0.00000  Uiso   1.00
C707   C     0.35346   0.98575   0.74591   0.00000  Uiso   1.00
C708   C     0.37129   0.84551   0.85358   0.00000  Uiso   1.00
C709   C     0.64009   0.68089   0.73973   0.00000  Uiso   1.00
C710   C     0.65117   0.73526   0.74885   0.00000  Uiso   1.00
C711   C     0.62865   0.82380   0.64584   0.00000  Uiso   1.00
C712   C     0.61437   0.80116   0.99233   0.00000  Uiso   1.00
C713   C     0.60384   0.81231   0.58644   0.00000  Uiso   1.00
C714   C     0.36038   0.88573   0.94528   0.00000  Uiso   1.00
C715   C     0.38204   0.89203   0.50288   0.00000  Uiso   1.00
C716   C     0.47177   0.85526   0.99291   0.00000  Uiso   1.00
C717   C     0.43640   0.87429   0.52709   0.00000  Uiso   1.00
C718   C     0.45405   0.86186   0.93610   0.00000  Uiso   1.00
C719   C     0.52597   0.83392   0.51210   0.00000  Uiso   1.00
C720   C     0.56250   0.82551   0.97472   0.00000  Uiso   1.00
C721   C     0.54765   0.84387   0.92158   0.00000  Uiso   1.00
C722   C     0.49654   0.86840   0.90584   0.00000  Uiso   1.00
C723   C     0.54486   0.81932   0.56627   0.00000  Uiso   1.00
C724   C     0.63575   0.79513   0.54883   0.00000  Uiso   1.00
Cl725  Cl    0.36217   0.75795   0.56977   0.00000  Uiso   1.00
Cl726  Cl    0.56563   0.99074   0.71476   0.00000  Uiso   1.00
Cl727  Cl    0.49507   0.79098   0.60160   0.00000  Uiso   1.00
Cl728  Cl    0.49480   0.92316   0.86570   0.00000  Uiso   1.00
H729   H     0.49014   0.78599   0.71708   0.00000  Uiso   1.00
H730   H     0.50994   0.88281   0.77735   0.00000  Uiso   1.00
H731   H     0.35568   0.90833   0.52880   0.00000  Uiso   1.00
H732   H     0.57664   0.84220   0.89397   0.00000  Uiso   1.00
H733   H     0.63935   0.78928   0.96297   0.00000  Uiso   1.00
H734   H     0.65103   0.89782   0.92703   0.00000  Uiso   1.00
H735   H     0.45133   0.87850   0.57177   0.00000  Uiso   1.00
H736   H     0.39811   0.66966   0.75628   0.00000  Uiso   1.00
N737   N     0.47827   0.81890   0.73542   0.00000  Uiso   1.00
N738   N     0.52173   0.84777   0.76457   0.00000  Uiso   1.00
O739   O     0.63102   0.91296   0.75357   0.00000  Uiso   1.00
O740   O     0.39075   0.90371   0.74423   0.00000  Uiso   1.00
O741   O     0.64823   0.84024   0.83380   0.00000  Uiso   1.00
O742   O     0.40796   0.83099   0.82446   0.00000  Uiso   1.00
O743   O     0.60925   0.76296   0.75577   0.00000  Uiso   1.00
O744   O     0.36898   0.75371   0.74642   0.00000  Uiso   1.00
O745   O     0.59204   0.83567   0.67554   0.00000  Uiso   1.00
O746   O     0.35177   0.82642   0.66620   0.00000  Uiso   1.00
Zn747  Zn    0.60453   0.83951   0.75623   0.00000  Uiso   1.00
Zn748  Zn    0.39547   0.82716   0.74376   0.00000  Uiso   1.00
C749   C     0.68025   0.93120   0.74643   0.00000  Uiso   1.00
C750   C     0.72839   0.86526   0.91194   0.00000  Uiso   1.00
C751   C     0.68679   0.98575   0.74591   0.00000  Uiso   1.00
C752   C     0.70462   0.84551   0.85358   0.00000  Uiso   1.00
C753   C     0.97343   0.68089   0.73973   0.00000  Uiso   1.00
C754   C     0.98451   0.73526   0.74885   0.00000  Uiso   1.00
C755   C     0.96199   0.82380   0.64584   0.00000  Uiso   1.00
C756   C     0.94770   0.80116   0.99233   0.00000  Uiso   1.00
C757   C     0.93717   0.81231   0.58644   0.00000  Uiso   1.00
C758   C     0.69371   0.88573   0.94528   0.00000  Uiso   1.00
C759   C     0.71537   0.89203   0.50288   0.00000  Uiso   1.00
C760   C     0.80510   0.85526   0.99291   0.00000  Uiso   1.00
C761   C     0.76973   0.87429   0.52709   0.00000  Uiso   1.00
C762   C     0.78738   0.86186   0.93610   0.00000  Uiso   1.00
C763   C     0.85930   0.83392   0.51210   0.00000  Uiso   1.00
C764   C     0.89583   0.82551   0.97472   0.00000  Uiso   1.00
C765   C     0.88098   0.84387   0.92158   0.00000  Uiso   1.00
C766   C     0.82987   0.86840   0.90584   0.00000  Uiso   1.00
C767   C     0.87820   0.81932   0.56627   0.00000  Uiso   1.00
C768   C     0.96908   0.79513   0.54883   0.00000  Uiso   1.00
Cl769  Cl    0.69550   0.75795   0.56977   0.00000  Uiso   1.00
Cl770  Cl    0.89896   0.99074   0.71476   0.00000  Uiso   1.00
Cl771  Cl    0.82840   0.79098   0.60160   0.00000  Uiso   1.00
Cl772  Cl    0.82814   0.92316   0.86570   0.00000  Uiso   1.00
H773   H     0.82348   0.78599   0.71708   0.00000  Uiso   1.00
H774   H     0.84328   0.88281   0.77735   0.00000  Uiso   1.00
H775   H     0.68901   0.90833   0.52880   0.00000  Uiso   1.00
H776   H     0.90997   0.84220   0.89397   0.00000  Uiso   1.00
H777   H     0.97268   0.78928   0.96297   0.00000  Uiso   1.00
H778   H     0.98436   0.89782   0.92703   0.00000  Uiso   1.00
H779   H     0.78467   0.87850   0.57177   0.00000  Uiso   1.00
H780   H     0.73144   0.66966   0.75628   0.00000  Uiso   1.00
N781   N     0.81160   0.81890   0.73542   0.00000  Uiso   1.00
N782   N     0.85507   0.84777   0.76457   0.00000  Uiso   1.00
O783   O     0.96435   0.91296   0.75357   0.00000  Uiso   1.00
O784   O     0.72408   0.90371   0.74423   0.00000  Uiso   1.00
O785   O     0.98157   0.84024   0.83380   0.00000  Uiso   1.00
O786   O     0.74130   0.83099   0.82446   0.00000  Uiso   1.00
O787   O     0.94258   0.76296   0.75577   0.00000  Uiso   1.00
O788   O     0.70231   0.75371   0.74642   0.00000  Uiso   1.00
O789   O     0.92537   0.83567   0.67554   0.00000  Uiso   1.00
O790   O     0.68510   0.82642   0.66620   0.00000  Uiso   1.00
Zn791  Zn    0.93786   0.83951   0.75623   0.00000  Uiso   1.00
Zn792  Zn    0.72881   0.82716   0.74376   0.00000  Uiso   1.00
loop_
_geom_bond_atom_site_label_1
_geom_bond_atom_site_label_2
_geom_bond_distance
_geom_bond_site_symmetry_2
_ccdc_geom_bond_type
C1     O36     1.300   .     A
C1     C3      1.404   .     S
C1     O123    1.281   1_455 S
C2     C4      1.480   .     S
C2     C14     1.394   .     A
C2     C10     1.401   .     A
C3     C225    1.345   1_455 S
C3     H164    1.088   .     S
C4     O38     1.311   .     A
C4     O125    1.306   1_455 S
C5     C6      1.407   .     S
C5     C311    1.345   1_545 S
C5     Cl286   1.783   1_545 S
C6     O39     1.294   .     A
C6     O84     1.287   .     S
C7     O41     1.301   .     A
C7     C9      1.463   .     S
C7     O86     1.309   .     S
C8     C16     1.399   .     A
C8     H29     1.084   .     S
C8     C416    1.393   .     S
C9     C20     1.402   .     A
C9     C19     1.393   .     A
C10    C407    1.399   .     S
C10    H118    1.076   1_455 S
C11    H27     1.083   .     S
C11    C13     1.399   .     A
C11    C406    1.399   1_554 S
C12    C14     1.394   .     A
C12    C409    1.414   .     S
C12    C411    1.413   .     S
C13    H31     1.080   .     S
C13    C408    1.414   1_554 S
C14    C18     1.393   .     A
C15    C19     1.389   .     A
C15    C408    1.413   1_554 S
C15    C412    1.424   1_554 S
C16    C17     1.393   .     A
C16    C411    1.424   .     S
C17    C18     1.381   .     A
C17    H28     1.076   .     S
C18    Cl24    1.758   .     S
C19    Cl23    1.764   .     S
C20    C404    1.393   1_554 S
C20    Cl65    1.747   .     S
Cl21   C108    1.747   1_455 S
Cl22   C137    1.783   .     S
H25    N33     1.029   .     S
H26    N34     1.019   .     S
H30    C54     1.076   .     S
H32    C267    1.088   1_545 S
N33    N34     1.283   .     D
N33    Zn44    2.038   .     S
N34    Zn43    2.038   .     S
O35    Zn43    1.964   .     S
O35    C45     1.281   .     S
O36    Zn44    1.980   .     S
O37    Zn43    1.959   .     S
O37    C48     1.306   .     S
O38    Zn44    1.950   .     S
O39    Zn43    1.980   .     S
O40    Zn44    1.964   .     S
O40    C94     1.287   1_455 S
O41    Zn43    1.950   .     S
O42    Zn44    1.959   .     S
O42    C95     1.309   1_455 S
C45    O80     1.300   .     A
C45    C47     1.404   .     S
C46    C48     1.480   .     S
C46    C58     1.394   .     A
C46    C54     1.401   .     A
C47    C137    1.345   .     S
C47    H208    1.088   .     S
C48    O82     1.311   .     A
C49    C50     1.407   .     S
C49    C355    1.345   1_545 S
C49    Cl330   1.783   1_545 S
C50    O83     1.294   .     A
C50    O128    1.287   .     S
C51    O85     1.301   .     A
C51    C53     1.463   .     S
C51    O130    1.309   .     S
C52    C60     1.399   .     A
C52    H73     1.084   .     S
C52    C460    1.393   .     S
C53    C64     1.402   .     A
C53    C63     1.393   .     A
C54    C451    1.399   .     S
C55    H71     1.083   .     S
C55    C57     1.399   .     A
C55    C450    1.399   1_554 S
C56    C58     1.394   .     A
C56    C453    1.414   .     S
C56    C455    1.413   .     S
C57    H75     1.080   .     S
C57    C452    1.414   1_554 S
C58    C62     1.393   .     A
C59    C63     1.389   .     A
C59    C452    1.413   1_554 S
C59    C456    1.424   1_554 S
C60    C61     1.393   .     A
C60    C455    1.424   .     S
C61    C62     1.381   .     A
C61    H72     1.076   .     S
C62    Cl68    1.758   .     S
C63    Cl67    1.764   .     S
C64    C448    1.393   1_554 S
C64    Cl109   1.747   .     S
Cl66   C181    1.783   .     S
H69    N77     1.029   .     S
H70    N78     1.019   .     S
H74    C98     1.076   .     S
H76    C311    1.088   1_545 S
N77    N78     1.283   .     D
N77    Zn88    2.038   .     S
N78    Zn87    2.038   .     S
O79    Zn87    1.964   .     S
O79    C89     1.281   .     S
O80    Zn88    1.980   .     S
O81    Zn87    1.959   .     S
O81    C92     1.306   .     S
O82    Zn88    1.950   .     S
O83    Zn87    1.980   .     S
O84    Zn88    1.964   .     S
O85    Zn87    1.950   .     S
O86    Zn88    1.959   .     S
C89    O124    1.300   .     A
C89    C91     1.404   .     S
C90    C92     1.480   .     S
C90    C102    1.394   .     A
C90    C98     1.401   .     A
C91    C181    1.345   .     S
C91    H252    1.088   .     S
C92    O126    1.311   .     A
C93    C94     1.407   .     S
C93    C267    1.345   1_645 S
C93    Cl374   1.783   1_545 S
C94    O127    1.294   .     A
C94    O40     1.287   1_655 S
C95    O129    1.301   .     A
C95    C97     1.463   .     S
C95    O42     1.309   1_655 S
C96    C104    1.399   .     A
C96    H117    1.084   .     S
C96    C504    1.393   .     S
C97    C108    1.402   .     A
C97    C107    1.393   .     A
C98    C495    1.399   .     S
C99    H115    1.083   .     S
C99    C101    1.399   .     A
C99    C494    1.399   1_554 S
C100   C102    1.394   .     A
C100   C497    1.414   .     S
C100   C499    1.413   .     S
C101   H119    1.080   .     S
C101   C496    1.414   1_554 S
C102   C106    1.393   .     A
C103   C107    1.389   .     A
C103   C496    1.413   1_554 S
C103   C500    1.424   1_554 S
C104   C105    1.393   .     A
C104   C499    1.424   .     S
C105   C106    1.381   .     A
C105   H116    1.076   .     S
C106   Cl112   1.758   .     S
C107   Cl111   1.764   .     S
C108   C492    1.393   1_554 S
C108   Cl21    1.747   1_655 S
Cl110  C225    1.783   .     S
H113   N121    1.029   .     S
H114   N122    1.019   .     S
H118   C10     1.076   1_655 S
H120   C355    1.088   1_545 S
N121   N122    1.283   .     D
N121   Zn132   2.038   .     S
N122   Zn131   2.038   .     S
O123   Zn131   1.964   .     S
O123   C1      1.281   1_655 S
O124   Zn132   1.980   .     S
O125   Zn131   1.959   .     S
O125   C4      1.306   1_655 S
O126   Zn132   1.950   .     S
O127   Zn131   1.980   .     S
O128   Zn132   1.964   .     S
O129   Zn131   1.950   .     S
O130   Zn132   1.959   .     S
C133   O168    1.300   .     A
C133   C135    1.404   .     S
C133   O255    1.281   1_455 S
C134   C136    1.480   .     S
C134   C146    1.394   .     A
C134   C142    1.401   .     A
C135   C357    1.345   1_455 S
C135   H296    1.088   .     S
C136   O170    1.311   .     A
C136   O257    1.306   1_455 S
C137   C138    1.407   .     S
C138   O171    1.294   .     A
C138   O216    1.287   .     S
C139   O173    1.301   .     A
C139   C141    1.463   .     S
C139   O218    1.309   .     S
C140   C148    1.399   .     A
C140   H161    1.084   .     S
C140   C548    1.393   .     S
C141   C152    1.402   .     A
C141   C151    1.393   .     A
C142   C539    1.399   .     S
C142   H250    1.076   1_455 S
C143   H159    1.083   .     S
C143   C145    1.399   .     A
C143   C538    1.399   1_554 S
C144   C146    1.394   .     A
C144   C541    1.414   .     S
C144   C543    1.413   .     S
C145   H163    1.080   .     S
C145   C540    1.414   1_554 S
C146   C150    1.393   .     A
C147   C151    1.389   .     A
C147   C540    1.413   1_554 S
C147   C544    1.424   1_554 S
C148   C149    1.393   .     A
C148   C543    1.424   .     S
C149   C150    1.381   .     A
C149   H160    1.076   .     S
C150   Cl156   1.758   .     S
C151   Cl155   1.764   .     S
C152   C536    1.393   1_554 S
C152   Cl197   1.747   .     S
Cl153  C240    1.747   1_455 S
Cl154  C269    1.783   .     S
H157   N165    1.029   .     S
H158   N166    1.019   .     S
H162   C186    1.076   .     S
N165   N166    1.283   .     D
N165   Zn176   2.038   .     S
N166   Zn175   2.038   .     S
O167   Zn175   1.964   .     S
O167   C177    1.281   .     S
O168   Zn176   1.980   .     S
O169   Zn175   1.959   .     S
O169   C180    1.306   .     S
O170   Zn176   1.950   .     S
O171   Zn175   1.980   .     S
O172   Zn176   1.964   .     S
O172   C226    1.287   1_455 S
O173   Zn175   1.950   .     S
O174   Zn176   1.959   .     S
O174   C227    1.309   1_455 S
C177   O212    1.300   .     A
C177   C179    1.404   .     S
C178   C180    1.480   .     S
C178   C190    1.394   .     A
C178   C186    1.401   .     A
C179   C269    1.345   .     S
C179   H340    1.088   .     S
C180   O214    1.311   .     A
C181   C182    1.407   .     S
C182   O215    1.294   .     A
C182   O260    1.287   .     S
C183   O217    1.301   .     A
C183   C185    1.463   .     S
C183   O262    1.309   .     S
C184   C192    1.399   .     A
C184   H205    1.084   .     S
C184   C592    1.393   .     S
C185   C196    1.402   .     A
C185   C195    1.393   .     A
C186   C583    1.399   .     S
C187   H203    1.083   .     S
C187   C189    1.399   .     A
C187   C582    1.399   1_554 S
C188   C190    1.394   .     A
C188   C585    1.414   .     S
C188   C587    1.413   .     S
C189   H207    1.080   .     S
C189   C584    1.414   1_554 S
C190   C194    1.393   .     A
C191   C195    1.389   .     A
C191   C584    1.413   1_554 S
C191   C588    1.424   1_554 S
C192   C193    1.393   .     A
C192   C587    1.424   .     S
C193   C194    1.381   .     A
C193   H204    1.076   .     S
C194   Cl200   1.758   .     S
C195   Cl199   1.764   .     S
C196   C580    1.393   1_554 S
C196   Cl241   1.747   .     S
Cl198  C313    1.783   .     S
H201   N209    1.029   .     S
H202   N210    1.019   .     S
H206   C230    1.076   .     S
N209   N210    1.283   .     D
N209   Zn220   2.038   .     S
N210   Zn219   2.038   .     S
O211   Zn219   1.964   .     S
O211   C221    1.281   .     S
O212   Zn220   1.980   .     S
O213   Zn219   1.959   .     S
O213   C224    1.306   .     S
O214   Zn220   1.950   .     S
O215   Zn219   1.980   .     S
O216   Zn220   1.964   .     S
O217   Zn219   1.950   .     S
O218   Zn220   1.959   .     S
C221   O256    1.300   .     A
C221   C223    1.404   .     S
C222   C224    1.480   .     S
C222   C234    1.394   .     A
C222   C230    1.401   .     A
C223   C313    1.345   .     S
C223   H384    1.088   .     S
C224   O258    1.311   .     A
C225   C226    1.407   .     S
C225   C3      1.345   1_655 S
C226   O259    1.294   .     A
C226   O172    1.287   1_655 S
C227   O261    1.301   .     A
C227   C229    1.463   .     S
C227   O174    1.309   1_655 S
C228   C236    1.399   .     A
C228   H249    1.084   .     S
C228   C636    1.393   .     S
C229   C240    1.402   .     A
C229   C239    1.393   .     A
C230   C627    1.399   .     S
C231   H247    1.083   .     S
C231   C233    1.399   .     A
C231   C626    1.399   1_554 S
C232   C234    1.394   .     A
C232   C629    1.414   .     S
C232   C631    1.413   .     S
C233   H251    1.080   .     S
C233   C628    1.414   1_554 S
C234   C238    1.393   .     A
C235   C239    1.389   .     A
C235   C628    1.413   1_554 S
C235   C632    1.424   1_554 S
C236   C237    1.393   .     A
C236   C631    1.424   .     S
C237   C238    1.381   .     A
C237   H248    1.076   .     S
C238   Cl244   1.758   .     S
C239   Cl243   1.764   .     S
C240   C624    1.393   1_554 S
C240   Cl153   1.747   1_655 S
Cl242  C357    1.783   .     S
H245   N253    1.029   .     S
H246   N254    1.019   .     S
H250   C142    1.076   1_655 S
N253   N254    1.283   .     D
N253   Zn264   2.038   .     S
N254   Zn263   2.038   .     S
O255   Zn263   1.964   .     S
O255   C133    1.281   1_655 S
O256   Zn264   1.980   .     S
O257   Zn263   1.959   .     S
O257   C136    1.306   1_655 S
O258   Zn264   1.950   .     S
O259   Zn263   1.980   .     S
O260   Zn264   1.964   .     S
O261   Zn263   1.950   .     S
O262   Zn264   1.959   .     S
C265   O300    1.300   .     A
C265   C267    1.404   .     S
C265   O387    1.281   1_455 S
C266   C268    1.480   .     S
C266   C278    1.394   .     A
C266   C274    1.401   .     A
C267   C93     1.345   1_465 S
C267   H32     1.088   1_565 S
C268   O302    1.311   .     A
C268   O389    1.306   1_455 S
C269   C270    1.407   .     S
C270   O303    1.294   .     A
C270   O348    1.287   .     S
C271   O305    1.301   .     A
C271   C273    1.463   .     S
C271   O350    1.309   .     S
C272   C280    1.399   .     A
C272   H293    1.084   .     S
C272   C680    1.393   .     S
C273   C284    1.402   .     A
C273   C283    1.393   .     A
C274   C671    1.399   .     S
C274   H382    1.076   1_455 S
C275   H291    1.083   .     S
C275   C277    1.399   .     A
C275   C670    1.399   1_554 S
C276   C278    1.394   .     A
C276   C673    1.414   .     S
C276   C675    1.413   .     S
C277   H295    1.080   .     S
C277   C672    1.414   1_554 S
C278   C282    1.393   .     A
C279   C283    1.389   .     A
C279   C672    1.413   1_554 S
C279   C676    1.424   1_554 S
C280   C281    1.393   .     A
C280   C675    1.424   .     S
C281   C282    1.381   .     A
C281   H292    1.076   .     S
C282   Cl288   1.758   .     S
C283   Cl287   1.764   .     S
C284   C668    1.393   1_554 S
C284   Cl329   1.747   .     S
Cl285  C372    1.747   1_455 S
Cl286  C5      1.783   1_565 S
H289   N297    1.029   .     S
H290   N298    1.019   .     S
H294   C318    1.076   .     S
N297   N298    1.283   .     D
N297   Zn308   2.038   .     S
N298   Zn307   2.038   .     S
O299   Zn307   1.964   .     S
O299   C309    1.281   .     S
O300   Zn308   1.980   .     S
O301   Zn307   1.959   .     S
O301   C312    1.306   .     S
O302   Zn308   1.950   .     S
O303   Zn307   1.980   .     S
O304   Zn308   1.964   .     S
O304   C358    1.287   1_455 S
O305   Zn307   1.950   .     S
O306   Zn308   1.959   .     S
O306   C359    1.309   1_455 S
C309   O344    1.300   .     A
C309   C311    1.404   .     S
C310   C312    1.480   .     S
C310   C322    1.394   .     A
C310   C318    1.401   .     A
C311   C5      1.345   1_565 S
C311   H76     1.088   1_565 S
C312   O346    1.311   .     A
C313   C314    1.407   .     S
C314   O347    1.294   .     A
C314   O392    1.287   .     S
C315   O349    1.301   .     A
C315   C317    1.463   .     S
C315   O394    1.309   .     S
C316   C324    1.399   .     A
C316   H337    1.084   .     S
C316   C724    1.393   .     S
C317   C328    1.402   .     A
C317   C327    1.393   .     A
C318   C715    1.399   .     S
C319   H335    1.083   .     S
C319   C321    1.399   .     A
C319   C714    1.399   1_554 S
C320   C322    1.394   .     A
C320   C717    1.414   .     S
C320   C719    1.413   .     S
C321   H339    1.080   .     S
C321   C716    1.414   1_554 S
C322   C326    1.393   .     A
C323   C327    1.389   .     A
C323   C716    1.413   1_554 S
C323   C720    1.424   1_554 S
C324   C325    1.393   .     A
C324   C719    1.424   .     S
C325   C326    1.381   .     A
C325   H336    1.076   .     S
C326   Cl332   1.758   .     S
C327   Cl331   1.764   .     S
C328   C712    1.393   1_554 S
C328   Cl373   1.747   .     S
Cl330  C49     1.783   1_565 S
H333   N341    1.029   .     S
H334   N342    1.019   .     S
H338   C362    1.076   .     S
N341   N342    1.283   .     D
N341   Zn352   2.038   .     S
N342   Zn351   2.038   .     S
O343   Zn351   1.964   .     S
O343   C353    1.281   .     S
O344   Zn352   1.980   .     S
O345   Zn351   1.959   .     S
O345   C356    1.306   .     S
O346   Zn352   1.950   .     S
O347   Zn351   1.980   .     S
O348   Zn352   1.964   .     S
O349   Zn351   1.950   .     S
O350   Zn352   1.959   .     S
C353   O388    1.300   .     A
C353   C355    1.404   .     S
C354   C356    1.480   .     S
C354   C366    1.394   .     A
C354   C362    1.401   .     A
C355   C49     1.345   1_565 S
C355   H120    1.088   1_565 S
C356   O390    1.311   .     A
C357   C358    1.407   .     S
C357   C135    1.345   1_655 S
C358   O391    1.294   .     A
C358   O304    1.287   1_655 S
C359   O393    1.301   .     A
C359   C361    1.463   .     S
C359   O306    1.309   1_655 S
C360   C368    1.399   .     A
C360   H381    1.084   .     S
C360   C768    1.393   .     S
C361   C372    1.402   .     A
C361   C371    1.393   .     A
C362   C759    1.399   .     S
C363   H379    1.083   .     S
C363   C365    1.399   .     A
C363   C758    1.399   1_554 S
C364   C366    1.394   .     A
C364   C761    1.414   .     S
C364   C763    1.413   .     S
C365   H383    1.080   .     S
C365   C760    1.414   1_554 S
C366   C370    1.393   .     A
C367   C371    1.389   .     A
C367   C760    1.413   1_554 S
C367   C764    1.424   1_554 S
C368   C369    1.393   .     A
C368   C763    1.424   .     S
C369   C370    1.381   .     A
C369   H380    1.076   .     S
C370   Cl376   1.758   .     S
C371   Cl375   1.764   .     S
C372   C756    1.393   1_554 S
C372   Cl285   1.747   1_655 S
Cl374  C93     1.783   1_565 S
H377   N385    1.029   .     S
H378   N386    1.019   .     S
H382   C274    1.076   1_655 S
N385   N386    1.283   .     D
N385   Zn396   2.038   .     S
N386   Zn395   2.038   .     S
O387   Zn395   1.964   .     S
O387   C265    1.281   1_655 S
O388   Zn396   1.980   .     S
O389   Zn395   1.959   .     S
O389   C268    1.306   1_655 S
O390   Zn396   1.950   .     S
O391   Zn395   1.980   .     S
O392   Zn396   1.964   .     S
O393   Zn395   1.950   .     S
O394   Zn396   1.959   .     S
C397   O432    1.300   .     A
C397   C399    1.404   .     S
C397   O519    1.281   1_455 S
C398   C400    1.480   .     S
C398   C410    1.394   .     A
C398   C406    1.401   .     A
C399   C621    1.345   1_455 S
C399   H560    1.088   .     S
C400   O434    1.311   .     A
C400   O521    1.306   1_455 S
C401   C402    1.407   .     S
C401   C707    1.345   1_545 S
C401   Cl682   1.783   1_545 S
C402   O435    1.294   .     A
C402   O480    1.287   .     S
C403   O437    1.301   .     A
C403   C405    1.463   .     S
C403   O482    1.309   .     S
C404   C412    1.399   .     A
C404   H425    1.084   .     S
C404   C20     1.393   1_556 S
C405   C416    1.402   .     A
C405   C415    1.393   .     A
C406   C11     1.399   1_556 S
C406   H514    1.076   1_455 S
C407   H423    1.083   .     S
C407   C409    1.399   .     A
C408   C410    1.394   .     A
C408   C13     1.414   1_556 S
C408   C15     1.413   1_556 S
C409   H427    1.080   .     S
C410   C414    1.393   .     A
C411   C415    1.389   .     A
C412   C413    1.393   .     A
C412   C15     1.424   1_556 S
C413   C414    1.381   .     A
C413   H424    1.076   .     S
C414   Cl420   1.758   .     S
C415   Cl419   1.764   .     S
C416   Cl461   1.747   .     S
Cl417  C504    1.747   1_455 S
Cl418  C533    1.783   .     S
H421   N429    1.029   .     S
H422   N430    1.019   .     S
H426   C450    1.076   .     S
H428   C663    1.088   1_545 S
N429   N430    1.283   .     D
N429   Zn440   2.038   .     S
N430   Zn439   2.038   .     S
O431   Zn439   1.964   .     S
O431   C441    1.281   .     S
O432   Zn440   1.980   .     S
O433   Zn439   1.959   .     S
O433   C444    1.306   .     S
O434   Zn440   1.950   .     S
O435   Zn439   1.980   .     S
O436   Zn440   1.964   .     S
O436   C490    1.287   1_455 S
O437   Zn439   1.950   .     S
O438   Zn440   1.959   .     S
O438   C491    1.309   1_455 S
C441   O476    1.300   .     A
C441   C443    1.404   .     S
C442   C444    1.480   .     S
C442   C454    1.394   .     A
C442   C450    1.401   .     A
C443   C533    1.345   .     S
C443   H604    1.088   .     S
C444   O478    1.311   .     A
C445   C446    1.407   .     S
C445   C751    1.345   1_545 S
C445   Cl726   1.783   1_545 S
C446   O479    1.294   .     A
C446   O524    1.287   .     S
C447   O481    1.301   .     A
C447   C449    1.463   .     S
C447   O526    1.309   .     S
C448   C456    1.399   .     A
C448   H469    1.084   .     S
C448   C64     1.393   1_556 S
C449   C460    1.402   .     A
C449   C459    1.393   .     A
C450   C55     1.399   1_556 S
C451   H467    1.083   .     S
C451   C453    1.399   .     A
C452   C454    1.394   .     A
C452   C57     1.414   1_556 S
C452   C59     1.413   1_556 S
C453   H471    1.080   .     S
C454   C458    1.393   .     A
C455   C459    1.389   .     A
C456   C457    1.393   .     A
C456   C59     1.424   1_556 S
C457   C458    1.381   .     A
C457   H468    1.076   .     S
C458   Cl464   1.758   .     S
C459   Cl463   1.764   .     S
C460   Cl505   1.747   .     S
Cl462  C577    1.783   .     S
H465   N473    1.029   .     S
H466   N474    1.019   .     S
H470   C494    1.076   .     S
H472   C707    1.088   1_545 S
N473   N474    1.283   .     D
N473   Zn484   2.038   .     S
N474   Zn483   2.038   .     S
O475   Zn483   1.964   .     S
O475   C485    1.281   .     S
O476   Zn484   1.980   .     S
O477   Zn483   1.959   .     S
O477   C488    1.306   .     S
O478   Zn484   1.950   .     S
O479   Zn483   1.980   .     S
O480   Zn484   1.964   .     S
O481   Zn483   1.950   .     S
O482   Zn484   1.959   .     S
C485   O520    1.300   .     A
C485   C487    1.404   .     S
C486   C488    1.480   .     S
C486   C498    1.394   .     A
C486   C494    1.401   .     A
C487   C577    1.345   .     S
C487   H648    1.088   .     S
C488   O522    1.311   .     A
C489   C490    1.407   .     S
C489   C663    1.345   1_645 S
C489   Cl770   1.783   1_545 S
C490   O523    1.294   .     A
C490   O436    1.287   1_655 S
C491   O525    1.301   .     A
C491   C493    1.463   .     S
C491   O438    1.309   1_655 S
C492   C500    1.399   .     A
C492   H513    1.084   .     S
C492   C108    1.393   1_556 S
C493   C504    1.402   .     A
C493   C503    1.393   .     A
C494   C99     1.399   1_556 S
C495   H511    1.083   .     S
C495   C497    1.399   .     A
C496   C498    1.394   .     A
C496   C101    1.414   1_556 S
C496   C103    1.413   1_556 S
C497   H515    1.080   .     S
C498   C502    1.393   .     A
C499   C503    1.389   .     A
C500   C501    1.393   .     A
C500   C103    1.424   1_556 S
C501   C502    1.381   .     A
C501   H512    1.076   .     S
C502   Cl508   1.758   .     S
C503   Cl507   1.764   .     S
C504   Cl417   1.747   1_655 S
Cl506  C621    1.783   .     S
H509   N517    1.029   .     S
H510   N518    1.019   .     S
H514   C406    1.076   1_655 S
H516   C751    1.088   1_545 S
N517   N518    1.283   .     D
N517   Zn528   2.038   .     S
N518   Zn527   2.038   .     S
O519   Zn527   1.964   .     S
O519   C397    1.281   1_655 S
O520   Zn528   1.980   .     S
O521   Zn527   1.959   .     S
O521   C400    1.306   1_655 S
O522   Zn528   1.950   .     S
O523   Zn527   1.980   .     S
O524   Zn528   1.964   .     S
O525   Zn527   1.950   .     S
O526   Zn528   1.959   .     S
C529   O564    1.300   .     A
C529   C531    1.404   .     S
C529   O651    1.281   1_455 S
C530   C532    1.480   .     S
C530   C542    1.394   .     A
C530   C538    1.401   .     A
C531   C753    1.345   1_455 S
C531   H692    1.088   .     S
C532   O566    1.311   .     A
C532   O653    1.306   1_455 S
C533   C534    1.407   .     S
C534   O567    1.294   .     A
C534   O612    1.287   .     S
C535   O569    1.301   .     A
C535   C537    1.463   .     S
C535   O614    1.309   .     S
C536   C544    1.399   .     A
C536   H557    1.084   .     S
C536   C152    1.393   1_556 S
C537   C548    1.402   .     A
C537   C547    1.393   .     A
C538   C143    1.399   1_556 S
C538   H646    1.076   1_455 S
C539   H555    1.083   .     S
C539   C541    1.399   .     A
C540   C542    1.394   .     A
C540   C145    1.414   1_556 S
C540   C147    1.413   1_556 S
C541   H559    1.080   .     S
C542   C546    1.393   .     A
C543   C547    1.389   .     A
C544   C545    1.393   .     A
C544   C147    1.424   1_556 S
C545   C546    1.381   .     A
C545   H556    1.076   .     S
C546   Cl552   1.758   .     S
C547   Cl551   1.764   .     S
C548   Cl593   1.747   .     S
Cl549  C636    1.747   1_455 S
Cl550  C665    1.783   .     S
H553   N561    1.029   .     S
H554   N562    1.019   .     S
H558   C582    1.076   .     S
N561   N562    1.283   .     D
N561   Zn572   2.038   .     S
N562   Zn571   2.038   .     S
O563   Zn571   1.964   .     S
O563   C573    1.281   .     S
O564   Zn572   1.980   .     S
O565   Zn571   1.959   .     S
O565   C576    1.306   .     S
O566   Zn572   1.950   .     S
O567   Zn571   1.980   .     S
O568   Zn572   1.964   .     S
O568   C622    1.287   1_455 S
O569   Zn571   1.950   .     S
O570   Zn572   1.959   .     S
O570   C623    1.309   1_455 S
C573   O608    1.300   .     A
C573   C575    1.404   .     S
C574   C576    1.480   .     S
C574   C586    1.394   .     A
C574   C582    1.401   .     A
C575   C665    1.345   .     S
C575   H736    1.088   .     S
C576   O610    1.311   .     A
C577   C578    1.407   .     S
C578   O611    1.294   .     A
C578   O656    1.287   .     S
C579   O613    1.301   .     A
C579   C581    1.463   .     S
C579   O658    1.309   .     S
C580   C588    1.399   .     A
C580   H601    1.084   .     S
C580   C196    1.393   1_556 S
C581   C592    1.402   .     A
C581   C591    1.393   .     A
C582   C187    1.399   1_556 S
C583   H599    1.083   .     S
C583   C585    1.399   .     A
C584   C586    1.394   .     A
C584   C189    1.414   1_556 S
C584   C191    1.413   1_556 S
C585   H603    1.080   .     S
C586   C590    1.393   .     A
C587   C591    1.389   .     A
C588   C589    1.393   .     A
C588   C191    1.424   1_556 S
C589   C590    1.381   .     A
C589   H600    1.076   .     S
C590   Cl596   1.758   .     S
C591   Cl595   1.764   .     S
C592   Cl637   1.747   .     S
Cl594  C709    1.783   .     S
H597   N605    1.029   .     S
H598   N606    1.019   .     S
H602   C626    1.076   .     S
N605   N606    1.283   .     D
N605   Zn616   2.038   .     S
N606   Zn615   2.038   .     S
O607   Zn615   1.964   .     S
O607   C617    1.281   .     S
O608   Zn616   1.980   .     S
O609   Zn615   1.959   .     S
O609   C620    1.306   .     S
O610   Zn616   1.950   .     S
O611   Zn615   1.980   .     S
O612   Zn616   1.964   .     S
O613   Zn615   1.950   .     S
O614   Zn616   1.959   .     S
C617   O652    1.300   .     A
C617   C619    1.404   .     S
C618   C620    1.480   .     S
C618   C630    1.394   .     A
C618   C626    1.401   .     A
C619   C709    1.345   .     S
C619   H780    1.088   .     S
C620   O654    1.311   .     A
C621   C622    1.407   .     S
C621   C399    1.345   1_655 S
C622   O655    1.294   .     A
C622   O568    1.287   1_655 S
C623   O657    1.301   .     A
C623   C625    1.463   .     S
C623   O570    1.309   1_655 S
C624   C632    1.399   .     A
C624   H645    1.084   .     S
C624   C240    1.393   1_556 S
C625   C636    1.402   .     A
C625   C635    1.393   .     A
C626   C231    1.399   1_556 S
C627   H643    1.083   .     S
C627   C629    1.399   .     A
C628   C630    1.394   .     A
C628   C233    1.414   1_556 S
C628   C235    1.413   1_556 S
C629   H647    1.080   .     S
C630   C634    1.393   .     A
C631   C635    1.389   .     A
C632   C633    1.393   .     A
C632   C235    1.424   1_556 S
C633   C634    1.381   .     A
C633   H644    1.076   .     S
C634   Cl640   1.758   .     S
C635   Cl639   1.764   .     S
C636   Cl549   1.747   1_655 S
Cl638  C753    1.783   .     S
H641   N649    1.029   .     S
H642   N650    1.019   .     S
H646   C538    1.076   1_655 S
N649   N650    1.283   .     D
N649   Zn660   2.038   .     S
N650   Zn659   2.038   .     S
O651   Zn659   1.964   .     S
O651   C529    1.281   1_655 S
O652   Zn660   1.980   .     S
O653   Zn659   1.959   .     S
O653   C532    1.306   1_655 S
O654   Zn660   1.950   .     S
O655   Zn659   1.980   .     S
O656   Zn660   1.964   .     S
O657   Zn659   1.950   .     S
O658   Zn660   1.959   .     S
C661   O696    1.300   .     A
C661   C663    1.404   .     S
C661   O783    1.281   1_455 S
C662   C664    1.480   .     S
C662   C674    1.394   .     A
C662   C670    1.401   .     A
C663   C489    1.345   1_465 S
C663   H428    1.088   1_565 S
C664   O698    1.311   .     A
C664   O785    1.306   1_455 S
C665   C666    1.407   .     S
C666   O699    1.294   .     A
C666   O744    1.287   .     S
C667   O701    1.301   .     A
C667   C669    1.463   .     S
C667   O746    1.309   .     S
C668   C676    1.399   .     A
C668   H689    1.084   .     S
C668   C284    1.393   1_556 S
C669   C680    1.402   .     A
C669   C679    1.393   .     A
C670   C275    1.399   1_556 S
C670   H778    1.076   1_455 S
C671   H687    1.083   .     S
C671   C673    1.399   .     A
C672   C674    1.394   .     A
C672   C277    1.414   1_556 S
C672   C279    1.413   1_556 S
C673   H691    1.080   .     S
C674   C678    1.393   .     A
C675   C679    1.389   .     A
C676   C677    1.393   .     A
C676   C279    1.424   1_556 S
C677   C678    1.381   .     A
C677   H688    1.076   .     S
C678   Cl684   1.758   .     S
C679   Cl683   1.764   .     S
C680   Cl725   1.747   .     S
Cl681  C768    1.747   1_455 S
Cl682  C401    1.783   1_565 S
H685   N693    1.029   .     S
H686   N694    1.019   .     S
H690   C714    1.076   .     S
N693   N694    1.283   .     D
N693   Zn704   2.038   .     S
N694   Zn703   2.038   .     S
O695   Zn703   1.964   .     S
O695   C705    1.281   .     S
O696   Zn704   1.980   .     S
O697   Zn703   1.959   .     S
O697   C708    1.306   .     S
O698   Zn704   1.950   .     S
O699   Zn703   1.980   .     S
O700   Zn704   1.964   .     S
O700   C754    1.287   1_455 S
O701   Zn703   1.950   .     S
O702   Zn704   1.959   .     S
O702   C755    1.309   1_455 S
C705   O740    1.300   .     A
C705   C707    1.404   .     S
C706   C708    1.480   .     S
C706   C718    1.394   .     A
C706   C714    1.401   .     A
C707   C401    1.345   1_565 S
C707   H472    1.088   1_565 S
C708   O742    1.311   .     A
C709   C710    1.407   .     S
C710   O743    1.294   .     A
C710   O788    1.287   .     S
C711   O745    1.301   .     A
C711   C713    1.463   .     S
C711   O790    1.309   .     S
C712   C720    1.399   .     A
C712   H733    1.084   .     S
C712   C328    1.393   1_556 S
C713   C724    1.402   .     A
C713   C723    1.393   .     A
C714   C319    1.399   1_556 S
C715   H731    1.083   .     S
C715   C717    1.399   .     A
C716   C718    1.394   .     A
C716   C321    1.414   1_556 S
C716   C323    1.413   1_556 S
C717   H735    1.080   .     S
C718   C722    1.393   .     A
C719   C723    1.389   .     A
C720   C721    1.393   .     A
C720   C323    1.424   1_556 S
C721   C722    1.381   .     A
C721   H732    1.076   .     S
C722   Cl728   1.758   .     S
C723   Cl727   1.764   .     S
C724   Cl769   1.747   .     S
Cl726  C445    1.783   1_565 S
H729   N737    1.029   .     S
H730   N738    1.019   .     S
H734   C758    1.076   .     S
N737   N738    1.283   .     D
N737   Zn748   2.038   .     S
N738   Zn747   2.038   .     S
O739   Zn747   1.964   .     S
O739   C749    1.281   .     S
O740   Zn748   1.980   .     S
O741   Zn747   1.959   .     S
O741   C752    1.306   .     S
O742   Zn748   1.950   .     S
O743   Zn747   1.980   .     S
O744   Zn748   1.964   .     S
O745   Zn747   1.950   .     S
O746   Zn748   1.959   .     S
C749   O784    1.300   .     A
C749   C751    1.404   .     S
C750   C752    1.480   .     S
C750   C762    1.394   .     A
C750   C758    1.401   .     A
C751   C445    1.345   1_565 S
C751   H516    1.088   1_565 S
C752   O786    1.311   .     A
C753   C754    1.407   .     S
C753   C531    1.345   1_655 S
C754   O787    1.294   .     A
C754   O700    1.287   1_655 S
C755   O789    1.301   .     A
C755   C757    1.463   .     S
C755   O702    1.309   1_655 S
C756   C764    1.399   .     A
C756   H777    1.084   .     S
C756   C372    1.393   1_556 S
C757   C768    1.402   .     A
C757   C767    1.393   .     A
C758   C363    1.399   1_556 S
C759   H775    1.083   .     S
C759   C761    1.399   .     A
C760   C762    1.394   .     A
C760   C365    1.414   1_556 S
C760   C367    1.413   1_556 S
C761   H779    1.080   .     S
C762   C766    1.393   .     A
C763   C767    1.389   .     A
C764   C765    1.393   .     A
C764   C367    1.424   1_556 S
C765   C766    1.381   .     A
C765   H776    1.076   .     S
C766   Cl772   1.758   .     S
C767   Cl771   1.764   .     S
C768   Cl681   1.747   1_655 S
Cl770  C489    1.783   1_565 S
H773   N781    1.029   .     S
H774   N782    1.019   .     S
H778   C670    1.076   1_655 S
N781   N782    1.283   .     D
N781   Zn792   2.038   .     S
N782   Zn791   2.038   .     S
O783   Zn791   1.964   .     S
O783   C661    1.281   1_655 S
O784   Zn792   1.980   .     S
O785   Zn791   1.959   .     S
O785   C664    1.306   1_655 S
O786   Zn792   1.950   .     S
O787   Zn791   1.980   .     S
O788   Zn792   1.964   .     S
O789   Zn791   1.950   .     S
O790   Zn792   1.959   .     S
