data_str_m3_o10_o16_pcu_sym.168
_audit_creation_date              2020-01-03
_audit_creation_method            'Materials Studio'
_symmetry_space_group_name_H-M    'P1'
_symmetry_Int_Tables_number       1
_symmetry_cell_setting            triclinic
loop_
_symmetry_equiv_pos_as_xyz
  x,y,z
_cell_length_a                    23.4558
_cell_length_b                    25.7305
_cell_length_c                    25.2557
_cell_angle_alpha                 92.5421
_cell_angle_beta                  102.7959
_cell_angle_gamma                 93.9034
loop_
_atom_site_label
_atom_site_type_symbol
_atom_site_fract_x
_atom_site_fract_y
_atom_site_fract_z
_atom_site_U_iso_or_equiv
_atom_site_adp_type
_atom_site_occupancy
C1     C     0.01478   0.26485   0.24864   0.00000  Uiso   1.00
C2     C     0.13870   0.18798   0.49163   0.00000  Uiso   1.00
C3     C     0.12156   0.19036   0.43507   0.00000  Uiso   1.00
C4     C     0.19449   0.16989   0.01294   0.00000  Uiso   1.00
C5     C     0.22907   0.15150   0.47735   0.00000  Uiso   1.00
C6     C     0.21369   0.16115   0.42279   0.00000  Uiso   1.00
C7     C     0.16467   0.18765   0.40468   0.00000  Uiso   1.00
C8     C     0.21828   0.17209   0.06813   0.00000  Uiso   1.00
C9     C     0.30502   0.13254   0.05350   0.00000  Uiso   1.00
C10    C     0.06251   0.19658   0.41063   0.00000  Uiso   1.00
C11    C     0.02253   0.31938   0.24796   0.00000  Uiso   1.00
C12    C     0.03816   0.17810   0.35336   0.00000  Uiso   1.00
C13    C     0.31089   0.01397   0.25230   0.00000  Uiso   1.00
C14    C     0.31858   0.06849   0.25146   0.00000  Uiso   1.00
C15    C     0.29624   0.16147   0.14604   0.00000  Uiso   1.00
C16    C     0.28235   0.13024   0.49777   0.00000  Uiso   1.00
C17    C     0.27371   0.15543   0.08819   0.00000  Uiso   1.00
C18    C     0.02718   0.21840   0.44246   0.00000  Uiso   1.00
C19    C     0.04654   0.22333   0.49880   0.00000  Uiso   1.00
C20    C     0.09995   0.20491   0.02357   0.00000  Uiso   1.00
H21    H     0.01411   0.11814   0.06924   0.00000  Uiso   1.00
H22    H     0.26844   0.33031   0.25642   0.00000  Uiso   1.00
H23    H     0.15712   0.12032   0.21583   0.00000  Uiso   1.00
H24    H     0.17645   0.21605   0.27792   0.00000  Uiso   1.00
H25    H     0.24289   0.15389   0.39610   0.00000  Uiso   1.00
H26    H     0.30815   0.11519   0.47070   0.00000  Uiso   1.00
H27    H     0.19565   0.18954   0.09618   0.00000  Uiso   1.00
H28    H     0.10960   0.20533   0.06732   0.00000  Uiso   1.00
H29    H     0.01873   0.23903   0.02353   0.00000  Uiso   1.00
H30    H     0.06499   0.00304   0.24386   0.00000  Uiso   1.00
N31    N     0.14493   0.15223   0.23543   0.00000  Uiso   1.00
N32    N     0.18840   0.18110   0.26458   0.00000  Uiso   1.00
O33    O     0.29769   0.24629   0.25358   0.00000  Uiso   1.00
O34    O     0.05742   0.23704   0.24423   0.00000  Uiso   1.00
O35    O     0.31490   0.17358   0.33380   0.00000  Uiso   1.00
O36    O     0.07463   0.16433   0.32446   0.00000  Uiso   1.00
O37    O     0.27592   0.09629   0.25577   0.00000  Uiso   1.00
O38    O     0.03565   0.08704   0.24643   0.00000  Uiso   1.00
O39    O     0.25870   0.16901   0.17554   0.00000  Uiso   1.00
O40    O     0.01843   0.15976   0.16620   0.00000  Uiso   1.00
Zn41   Zn    0.27119   0.17284   0.25624   0.00000  Uiso   1.00
Zn42   Zn    0.06214   0.16049   0.24376   0.00000  Uiso   1.00
F43    F     0.30838   0.23634   0.41913   0.00000  Uiso   1.00
F44    F     0.16398   0.21891   0.36313   0.00000  Uiso   1.00
C45    C     0.34812   0.26485   0.24864   0.00000  Uiso   1.00
C46    C     0.47204   0.18798   0.49163   0.00000  Uiso   1.00
C47    C     0.45489   0.19036   0.43507   0.00000  Uiso   1.00
C48    C     0.52782   0.16989   0.01294   0.00000  Uiso   1.00
C49    C     0.56240   0.15150   0.47735   0.00000  Uiso   1.00
C50    C     0.54703   0.16115   0.42279   0.00000  Uiso   1.00
C51    C     0.49801   0.18765   0.40468   0.00000  Uiso   1.00
C52    C     0.55162   0.17209   0.06813   0.00000  Uiso   1.00
C53    C     0.63836   0.13254   0.05350   0.00000  Uiso   1.00
C54    C     0.39584   0.19658   0.41063   0.00000  Uiso   1.00
C55    C     0.35586   0.31938   0.24796   0.00000  Uiso   1.00
C56    C     0.37149   0.17810   0.35336   0.00000  Uiso   1.00
C57    C     0.64423   0.01397   0.25230   0.00000  Uiso   1.00
C58    C     0.65192   0.06849   0.25146   0.00000  Uiso   1.00
C59    C     0.62957   0.16147   0.14604   0.00000  Uiso   1.00
C60    C     0.61569   0.13024   0.49777   0.00000  Uiso   1.00
C61    C     0.60704   0.15543   0.08819   0.00000  Uiso   1.00
C62    C     0.36051   0.21840   0.44246   0.00000  Uiso   1.00
C63    C     0.37988   0.22333   0.49880   0.00000  Uiso   1.00
C64    C     0.43328   0.20491   0.02357   0.00000  Uiso   1.00
H65    H     0.34744   0.11814   0.06924   0.00000  Uiso   1.00
H66    H     0.60178   0.33031   0.25642   0.00000  Uiso   1.00
H67    H     0.49046   0.12032   0.21583   0.00000  Uiso   1.00
H68    H     0.50978   0.21605   0.27792   0.00000  Uiso   1.00
H69    H     0.57622   0.15389   0.39610   0.00000  Uiso   1.00
H70    H     0.64149   0.11519   0.47070   0.00000  Uiso   1.00
H71    H     0.52898   0.18954   0.09618   0.00000  Uiso   1.00
H72    H     0.44293   0.20533   0.06732   0.00000  Uiso   1.00
H73    H     0.35207   0.23903   0.02353   0.00000  Uiso   1.00
H74    H     0.39832   0.00304   0.24386   0.00000  Uiso   1.00
N75    N     0.47827   0.15223   0.23543   0.00000  Uiso   1.00
N76    N     0.52173   0.18110   0.26458   0.00000  Uiso   1.00
O77    O     0.63102   0.24629   0.25358   0.00000  Uiso   1.00
O78    O     0.39075   0.23704   0.24423   0.00000  Uiso   1.00
O79    O     0.64823   0.17358   0.33380   0.00000  Uiso   1.00
O80    O     0.40796   0.16433   0.32446   0.00000  Uiso   1.00
O81    O     0.60925   0.09629   0.25577   0.00000  Uiso   1.00
O82    O     0.36898   0.08704   0.24643   0.00000  Uiso   1.00
O83    O     0.59204   0.16901   0.17554   0.00000  Uiso   1.00
O84    O     0.35177   0.15976   0.16620   0.00000  Uiso   1.00
Zn85   Zn    0.60453   0.17284   0.25624   0.00000  Uiso   1.00
Zn86   Zn    0.39547   0.16049   0.24376   0.00000  Uiso   1.00
F87    F     0.64172   0.23634   0.41913   0.00000  Uiso   1.00
F88    F     0.49732   0.21891   0.36313   0.00000  Uiso   1.00
C89    C     0.68145   0.26485   0.24864   0.00000  Uiso   1.00
C90    C     0.80537   0.18798   0.49163   0.00000  Uiso   1.00
C91    C     0.78823   0.19036   0.43507   0.00000  Uiso   1.00
C92    C     0.86115   0.16989   0.01294   0.00000  Uiso   1.00
C93    C     0.89574   0.15150   0.47735   0.00000  Uiso   1.00
C94    C     0.88036   0.16115   0.42279   0.00000  Uiso   1.00
C95    C     0.83134   0.18765   0.40468   0.00000  Uiso   1.00
C96    C     0.88495   0.17209   0.06813   0.00000  Uiso   1.00
C97    C     0.97169   0.13254   0.05350   0.00000  Uiso   1.00
C98    C     0.72917   0.19658   0.41063   0.00000  Uiso   1.00
C99    C     0.68920   0.31938   0.24796   0.00000  Uiso   1.00
C100   C     0.70483   0.17810   0.35336   0.00000  Uiso   1.00
C101   C     0.97756   0.01397   0.25230   0.00000  Uiso   1.00
C102   C     0.98525   0.06849   0.25146   0.00000  Uiso   1.00
C103   C     0.96291   0.16147   0.14604   0.00000  Uiso   1.00
C104   C     0.94902   0.13024   0.49777   0.00000  Uiso   1.00
C105   C     0.94037   0.15543   0.08819   0.00000  Uiso   1.00
C106   C     0.69384   0.21840   0.44246   0.00000  Uiso   1.00
C107   C     0.71321   0.22333   0.49880   0.00000  Uiso   1.00
C108   C     0.76662   0.20491   0.02357   0.00000  Uiso   1.00
H109   H     0.68077   0.11814   0.06924   0.00000  Uiso   1.00
H110   H     0.93511   0.33031   0.25642   0.00000  Uiso   1.00
H111   H     0.82379   0.12032   0.21583   0.00000  Uiso   1.00
H112   H     0.84311   0.21605   0.27792   0.00000  Uiso   1.00
H113   H     0.90956   0.15389   0.39610   0.00000  Uiso   1.00
H114   H     0.97482   0.11519   0.47070   0.00000  Uiso   1.00
H115   H     0.86231   0.18954   0.09618   0.00000  Uiso   1.00
H116   H     0.77626   0.20533   0.06732   0.00000  Uiso   1.00
H117   H     0.68540   0.23903   0.02353   0.00000  Uiso   1.00
H118   H     0.73165   0.00304   0.24386   0.00000  Uiso   1.00
N119   N     0.81160   0.15223   0.23543   0.00000  Uiso   1.00
N120   N     0.85507   0.18110   0.26458   0.00000  Uiso   1.00
O121   O     0.96435   0.24629   0.25358   0.00000  Uiso   1.00
O122   O     0.72408   0.23704   0.24423   0.00000  Uiso   1.00
O123   O     0.98157   0.17358   0.33380   0.00000  Uiso   1.00
O124   O     0.74130   0.16433   0.32446   0.00000  Uiso   1.00
O125   O     0.94258   0.09629   0.25577   0.00000  Uiso   1.00
O126   O     0.70231   0.08704   0.24643   0.00000  Uiso   1.00
O127   O     0.92537   0.16901   0.17554   0.00000  Uiso   1.00
O128   O     0.68510   0.15976   0.16620   0.00000  Uiso   1.00
Zn129  Zn    0.93786   0.17284   0.25624   0.00000  Uiso   1.00
Zn130  Zn    0.72881   0.16049   0.24376   0.00000  Uiso   1.00
F131   F     0.97505   0.23634   0.41913   0.00000  Uiso   1.00
F132   F     0.83065   0.21891   0.36313   0.00000  Uiso   1.00
C133   C     0.01478   0.59819   0.24864   0.00000  Uiso   1.00
C134   C     0.13870   0.52131   0.49163   0.00000  Uiso   1.00
C135   C     0.12156   0.52369   0.43507   0.00000  Uiso   1.00
C136   C     0.19449   0.50322   0.01294   0.00000  Uiso   1.00
C137   C     0.22907   0.48483   0.47735   0.00000  Uiso   1.00
C138   C     0.21369   0.49449   0.42279   0.00000  Uiso   1.00
C139   C     0.16467   0.52098   0.40468   0.00000  Uiso   1.00
C140   C     0.21828   0.50542   0.06813   0.00000  Uiso   1.00
C141   C     0.30502   0.46588   0.05350   0.00000  Uiso   1.00
C142   C     0.06251   0.52991   0.41063   0.00000  Uiso   1.00
C143   C     0.02253   0.65272   0.24796   0.00000  Uiso   1.00
C144   C     0.03816   0.51144   0.35336   0.00000  Uiso   1.00
C145   C     0.31089   0.34730   0.25230   0.00000  Uiso   1.00
C146   C     0.31858   0.40182   0.25146   0.00000  Uiso   1.00
C147   C     0.29624   0.49480   0.14604   0.00000  Uiso   1.00
C148   C     0.28235   0.46357   0.49777   0.00000  Uiso   1.00
C149   C     0.27371   0.48876   0.08819   0.00000  Uiso   1.00
C150   C     0.02718   0.55173   0.44246   0.00000  Uiso   1.00
C151   C     0.04654   0.55666   0.49880   0.00000  Uiso   1.00
C152   C     0.09995   0.53825   0.02357   0.00000  Uiso   1.00
H153   H     0.01411   0.45147   0.06924   0.00000  Uiso   1.00
H154   H     0.26844   0.66364   0.25642   0.00000  Uiso   1.00
H155   H     0.15712   0.45365   0.21583   0.00000  Uiso   1.00
H156   H     0.17645   0.54938   0.27792   0.00000  Uiso   1.00
H157   H     0.24289   0.48722   0.39610   0.00000  Uiso   1.00
H158   H     0.30815   0.44852   0.47070   0.00000  Uiso   1.00
H159   H     0.19565   0.52287   0.09618   0.00000  Uiso   1.00
H160   H     0.10960   0.53866   0.06732   0.00000  Uiso   1.00
H161   H     0.01873   0.57236   0.02353   0.00000  Uiso   1.00
H162   H     0.06499   0.33637   0.24386   0.00000  Uiso   1.00
N163   N     0.14493   0.48556   0.23543   0.00000  Uiso   1.00
N164   N     0.18840   0.51444   0.26458   0.00000  Uiso   1.00
O165   O     0.29769   0.57963   0.25358   0.00000  Uiso   1.00
O166   O     0.05742   0.57038   0.24423   0.00000  Uiso   1.00
O167   O     0.31490   0.50691   0.33380   0.00000  Uiso   1.00
O168   O     0.07463   0.49766   0.32446   0.00000  Uiso   1.00
O169   O     0.27592   0.42962   0.25577   0.00000  Uiso   1.00
O170   O     0.03565   0.42037   0.24643   0.00000  Uiso   1.00
O171   O     0.25870   0.50234   0.17554   0.00000  Uiso   1.00
O172   O     0.01843   0.49309   0.16620   0.00000  Uiso   1.00
Zn173  Zn    0.27119   0.50618   0.25624   0.00000  Uiso   1.00
Zn174  Zn    0.06214   0.49382   0.24376   0.00000  Uiso   1.00
F175   F     0.30838   0.56967   0.41913   0.00000  Uiso   1.00
F176   F     0.16398   0.55224   0.36313   0.00000  Uiso   1.00
C177   C     0.34812   0.59819   0.24864   0.00000  Uiso   1.00
C178   C     0.47204   0.52131   0.49163   0.00000  Uiso   1.00
C179   C     0.45489   0.52369   0.43507   0.00000  Uiso   1.00
C180   C     0.52782   0.50322   0.01294   0.00000  Uiso   1.00
C181   C     0.56240   0.48483   0.47735   0.00000  Uiso   1.00
C182   C     0.54703   0.49449   0.42279   0.00000  Uiso   1.00
C183   C     0.49801   0.52098   0.40468   0.00000  Uiso   1.00
C184   C     0.55162   0.50542   0.06813   0.00000  Uiso   1.00
C185   C     0.63836   0.46588   0.05350   0.00000  Uiso   1.00
C186   C     0.39584   0.52991   0.41063   0.00000  Uiso   1.00
C187   C     0.35586   0.65272   0.24796   0.00000  Uiso   1.00
C188   C     0.37149   0.51144   0.35336   0.00000  Uiso   1.00
C189   C     0.64423   0.34730   0.25230   0.00000  Uiso   1.00
C190   C     0.65192   0.40182   0.25146   0.00000  Uiso   1.00
C191   C     0.62957   0.49480   0.14604   0.00000  Uiso   1.00
C192   C     0.61569   0.46357   0.49777   0.00000  Uiso   1.00
C193   C     0.60704   0.48876   0.08819   0.00000  Uiso   1.00
C194   C     0.36051   0.55173   0.44246   0.00000  Uiso   1.00
C195   C     0.37988   0.55666   0.49880   0.00000  Uiso   1.00
C196   C     0.43328   0.53825   0.02357   0.00000  Uiso   1.00
H197   H     0.34744   0.45147   0.06924   0.00000  Uiso   1.00
H198   H     0.60178   0.66364   0.25642   0.00000  Uiso   1.00
H199   H     0.49046   0.45365   0.21583   0.00000  Uiso   1.00
H200   H     0.50978   0.54938   0.27792   0.00000  Uiso   1.00
H201   H     0.57622   0.48722   0.39610   0.00000  Uiso   1.00
H202   H     0.64149   0.44852   0.47070   0.00000  Uiso   1.00
H203   H     0.52898   0.52287   0.09618   0.00000  Uiso   1.00
H204   H     0.44293   0.53866   0.06732   0.00000  Uiso   1.00
H205   H     0.35207   0.57236   0.02353   0.00000  Uiso   1.00
H206   H     0.39832   0.33637   0.24386   0.00000  Uiso   1.00
N207   N     0.47827   0.48556   0.23543   0.00000  Uiso   1.00
N208   N     0.52173   0.51444   0.26458   0.00000  Uiso   1.00
O209   O     0.63102   0.57963   0.25358   0.00000  Uiso   1.00
O210   O     0.39075   0.57038   0.24423   0.00000  Uiso   1.00
O211   O     0.64823   0.50691   0.33380   0.00000  Uiso   1.00
O212   O     0.40796   0.49766   0.32446   0.00000  Uiso   1.00
O213   O     0.60925   0.42962   0.25577   0.00000  Uiso   1.00
O214   O     0.36898   0.42037   0.24643   0.00000  Uiso   1.00
O215   O     0.59204   0.50234   0.17554   0.00000  Uiso   1.00
O216   O     0.35177   0.49309   0.16620   0.00000  Uiso   1.00
Zn217  Zn    0.60453   0.50618   0.25624   0.00000  Uiso   1.00
Zn218  Zn    0.39547   0.49382   0.24376   0.00000  Uiso   1.00
F219   F     0.64172   0.56967   0.41913   0.00000  Uiso   1.00
F220   F     0.49732   0.55224   0.36313   0.00000  Uiso   1.00
C221   C     0.68145   0.59819   0.24864   0.00000  Uiso   1.00
C222   C     0.80537   0.52131   0.49163   0.00000  Uiso   1.00
C223   C     0.78823   0.52369   0.43507   0.00000  Uiso   1.00
C224   C     0.86115   0.50322   0.01294   0.00000  Uiso   1.00
C225   C     0.89574   0.48483   0.47735   0.00000  Uiso   1.00
C226   C     0.88036   0.49449   0.42279   0.00000  Uiso   1.00
C227   C     0.83134   0.52098   0.40468   0.00000  Uiso   1.00
C228   C     0.88495   0.50542   0.06813   0.00000  Uiso   1.00
C229   C     0.97169   0.46588   0.05350   0.00000  Uiso   1.00
C230   C     0.72917   0.52991   0.41063   0.00000  Uiso   1.00
C231   C     0.68920   0.65272   0.24796   0.00000  Uiso   1.00
C232   C     0.70483   0.51144   0.35336   0.00000  Uiso   1.00
C233   C     0.97756   0.34730   0.25230   0.00000  Uiso   1.00
C234   C     0.98525   0.40182   0.25146   0.00000  Uiso   1.00
C235   C     0.96291   0.49480   0.14604   0.00000  Uiso   1.00
C236   C     0.94902   0.46357   0.49777   0.00000  Uiso   1.00
C237   C     0.94037   0.48876   0.08819   0.00000  Uiso   1.00
C238   C     0.69384   0.55173   0.44246   0.00000  Uiso   1.00
C239   C     0.71321   0.55666   0.49880   0.00000  Uiso   1.00
C240   C     0.76662   0.53825   0.02357   0.00000  Uiso   1.00
H241   H     0.68077   0.45147   0.06924   0.00000  Uiso   1.00
H242   H     0.93511   0.66364   0.25642   0.00000  Uiso   1.00
H243   H     0.82379   0.45365   0.21583   0.00000  Uiso   1.00
H244   H     0.84311   0.54938   0.27792   0.00000  Uiso   1.00
H245   H     0.90956   0.48722   0.39610   0.00000  Uiso   1.00
H246   H     0.97482   0.44852   0.47070   0.00000  Uiso   1.00
H247   H     0.86231   0.52287   0.09618   0.00000  Uiso   1.00
H248   H     0.77626   0.53866   0.06732   0.00000  Uiso   1.00
H249   H     0.68540   0.57236   0.02353   0.00000  Uiso   1.00
H250   H     0.73165   0.33637   0.24386   0.00000  Uiso   1.00
N251   N     0.81160   0.48556   0.23543   0.00000  Uiso   1.00
N252   N     0.85507   0.51444   0.26458   0.00000  Uiso   1.00
O253   O     0.96435   0.57963   0.25358   0.00000  Uiso   1.00
O254   O     0.72408   0.57038   0.24423   0.00000  Uiso   1.00
O255   O     0.98157   0.50691   0.33380   0.00000  Uiso   1.00
O256   O     0.74130   0.49766   0.32446   0.00000  Uiso   1.00
O257   O     0.94258   0.42962   0.25577   0.00000  Uiso   1.00
O258   O     0.70231   0.42037   0.24643   0.00000  Uiso   1.00
O259   O     0.92537   0.50234   0.17554   0.00000  Uiso   1.00
O260   O     0.68510   0.49309   0.16620   0.00000  Uiso   1.00
Zn261  Zn    0.93786   0.50618   0.25624   0.00000  Uiso   1.00
Zn262  Zn    0.72881   0.49382   0.24376   0.00000  Uiso   1.00
F263   F     0.97505   0.56967   0.41913   0.00000  Uiso   1.00
F264   F     0.83065   0.55224   0.36313   0.00000  Uiso   1.00
C265   C     0.01478   0.93152   0.24864   0.00000  Uiso   1.00
C266   C     0.13870   0.85465   0.49163   0.00000  Uiso   1.00
C267   C     0.12156   0.85702   0.43507   0.00000  Uiso   1.00
C268   C     0.19449   0.83656   0.01294   0.00000  Uiso   1.00
C269   C     0.22907   0.81816   0.47735   0.00000  Uiso   1.00
C270   C     0.21369   0.82782   0.42279   0.00000  Uiso   1.00
C271   C     0.16467   0.85431   0.40468   0.00000  Uiso   1.00
C272   C     0.21828   0.83876   0.06813   0.00000  Uiso   1.00
C273   C     0.30502   0.79921   0.05350   0.00000  Uiso   1.00
C274   C     0.06251   0.86325   0.41063   0.00000  Uiso   1.00
C275   C     0.02253   0.98605   0.24796   0.00000  Uiso   1.00
C276   C     0.03816   0.84477   0.35336   0.00000  Uiso   1.00
C277   C     0.31089   0.68063   0.25230   0.00000  Uiso   1.00
C278   C     0.31858   0.73516   0.25146   0.00000  Uiso   1.00
C279   C     0.29624   0.82813   0.14604   0.00000  Uiso   1.00
C280   C     0.28235   0.79690   0.49777   0.00000  Uiso   1.00
C281   C     0.27371   0.82209   0.08819   0.00000  Uiso   1.00
C282   C     0.02718   0.88506   0.44246   0.00000  Uiso   1.00
C283   C     0.04654   0.89000   0.49880   0.00000  Uiso   1.00
C284   C     0.09995   0.87158   0.02357   0.00000  Uiso   1.00
H285   H     0.01411   0.78481   0.06924   0.00000  Uiso   1.00
H286   H     0.26844   0.99697   0.25642   0.00000  Uiso   1.00
H287   H     0.15712   0.78698   0.21583   0.00000  Uiso   1.00
H288   H     0.17645   0.88272   0.27792   0.00000  Uiso   1.00
H289   H     0.24289   0.82056   0.39610   0.00000  Uiso   1.00
H290   H     0.30815   0.78186   0.47070   0.00000  Uiso   1.00
H291   H     0.19565   0.85620   0.09618   0.00000  Uiso   1.00
H292   H     0.10960   0.87200   0.06732   0.00000  Uiso   1.00
H293   H     0.01873   0.90569   0.02353   0.00000  Uiso   1.00
H294   H     0.06499   0.66971   0.24386   0.00000  Uiso   1.00
N295   N     0.14493   0.81890   0.23543   0.00000  Uiso   1.00
N296   N     0.18840   0.84777   0.26458   0.00000  Uiso   1.00
O297   O     0.29769   0.91296   0.25358   0.00000  Uiso   1.00
O298   O     0.05742   0.90371   0.24423   0.00000  Uiso   1.00
O299   O     0.31490   0.84024   0.33380   0.00000  Uiso   1.00
O300   O     0.07463   0.83099   0.32446   0.00000  Uiso   1.00
O301   O     0.27592   0.76296   0.25577   0.00000  Uiso   1.00
O302   O     0.03565   0.75371   0.24643   0.00000  Uiso   1.00
O303   O     0.25870   0.83567   0.17554   0.00000  Uiso   1.00
O304   O     0.01843   0.82642   0.16620   0.00000  Uiso   1.00
Zn305  Zn    0.27119   0.83951   0.25624   0.00000  Uiso   1.00
Zn306  Zn    0.06214   0.82716   0.24376   0.00000  Uiso   1.00
F307   F     0.30838   0.90300   0.41913   0.00000  Uiso   1.00
F308   F     0.16398   0.88558   0.36313   0.00000  Uiso   1.00
C309   C     0.34812   0.93152   0.24864   0.00000  Uiso   1.00
C310   C     0.47204   0.85465   0.49163   0.00000  Uiso   1.00
C311   C     0.45489   0.85702   0.43507   0.00000  Uiso   1.00
C312   C     0.52782   0.83656   0.01294   0.00000  Uiso   1.00
C313   C     0.56240   0.81816   0.47735   0.00000  Uiso   1.00
C314   C     0.54703   0.82782   0.42279   0.00000  Uiso   1.00
C315   C     0.49801   0.85431   0.40468   0.00000  Uiso   1.00
C316   C     0.55162   0.83876   0.06813   0.00000  Uiso   1.00
C317   C     0.63836   0.79921   0.05350   0.00000  Uiso   1.00
C318   C     0.39584   0.86325   0.41063   0.00000  Uiso   1.00
C319   C     0.35586   0.98605   0.24796   0.00000  Uiso   1.00
C320   C     0.37149   0.84477   0.35336   0.00000  Uiso   1.00
C321   C     0.64423   0.68063   0.25230   0.00000  Uiso   1.00
C322   C     0.65192   0.73516   0.25146   0.00000  Uiso   1.00
C323   C     0.62957   0.82813   0.14604   0.00000  Uiso   1.00
C324   C     0.61569   0.79690   0.49777   0.00000  Uiso   1.00
C325   C     0.60704   0.82209   0.08819   0.00000  Uiso   1.00
C326   C     0.36051   0.88506   0.44246   0.00000  Uiso   1.00
C327   C     0.37988   0.89000   0.49880   0.00000  Uiso   1.00
C328   C     0.43328   0.87158   0.02357   0.00000  Uiso   1.00
H329   H     0.34744   0.78481   0.06924   0.00000  Uiso   1.00
H330   H     0.60178   0.99697   0.25642   0.00000  Uiso   1.00
H331   H     0.49046   0.78698   0.21583   0.00000  Uiso   1.00
H332   H     0.50978   0.88272   0.27792   0.00000  Uiso   1.00
H333   H     0.57622   0.82056   0.39610   0.00000  Uiso   1.00
H334   H     0.64149   0.78186   0.47070   0.00000  Uiso   1.00
H335   H     0.52898   0.85620   0.09618   0.00000  Uiso   1.00
H336   H     0.44293   0.87200   0.06732   0.00000  Uiso   1.00
H337   H     0.35207   0.90569   0.02353   0.00000  Uiso   1.00
H338   H     0.39832   0.66971   0.24386   0.00000  Uiso   1.00
N339   N     0.47827   0.81890   0.23543   0.00000  Uiso   1.00
N340   N     0.52173   0.84777   0.26458   0.00000  Uiso   1.00
O341   O     0.63102   0.91296   0.25358   0.00000  Uiso   1.00
O342   O     0.39075   0.90371   0.24423   0.00000  Uiso   1.00
O343   O     0.64823   0.84024   0.33380   0.00000  Uiso   1.00
O344   O     0.40796   0.83099   0.32446   0.00000  Uiso   1.00
O345   O     0.60925   0.76296   0.25577   0.00000  Uiso   1.00
O346   O     0.36898   0.75371   0.24643   0.00000  Uiso   1.00
O347   O     0.59204   0.83567   0.17554   0.00000  Uiso   1.00
O348   O     0.35177   0.82642   0.16620   0.00000  Uiso   1.00
Zn349  Zn    0.60453   0.83951   0.25624   0.00000  Uiso   1.00
Zn350  Zn    0.39547   0.82716   0.24376   0.00000  Uiso   1.00
F351   F     0.64172   0.90300   0.41913   0.00000  Uiso   1.00
F352   F     0.49732   0.88558   0.36313   0.00000  Uiso   1.00
C353   C     0.68145   0.93152   0.24864   0.00000  Uiso   1.00
C354   C     0.80537   0.85465   0.49163   0.00000  Uiso   1.00
C355   C     0.78823   0.85702   0.43507   0.00000  Uiso   1.00
C356   C     0.86115   0.83656   0.01294   0.00000  Uiso   1.00
C357   C     0.89574   0.81816   0.47735   0.00000  Uiso   1.00
C358   C     0.88036   0.82782   0.42279   0.00000  Uiso   1.00
C359   C     0.83134   0.85431   0.40468   0.00000  Uiso   1.00
C360   C     0.88495   0.83876   0.06813   0.00000  Uiso   1.00
C361   C     0.97169   0.79921   0.05350   0.00000  Uiso   1.00
C362   C     0.72917   0.86325   0.41063   0.00000  Uiso   1.00
C363   C     0.68920   0.98605   0.24796   0.00000  Uiso   1.00
C364   C     0.70483   0.84477   0.35336   0.00000  Uiso   1.00
C365   C     0.97756   0.68063   0.25230   0.00000  Uiso   1.00
C366   C     0.98525   0.73516   0.25146   0.00000  Uiso   1.00
C367   C     0.96291   0.82813   0.14604   0.00000  Uiso   1.00
C368   C     0.94902   0.79690   0.49777   0.00000  Uiso   1.00
C369   C     0.94037   0.82209   0.08819   0.00000  Uiso   1.00
C370   C     0.69384   0.88506   0.44246   0.00000  Uiso   1.00
C371   C     0.71321   0.89000   0.49880   0.00000  Uiso   1.00
C372   C     0.76662   0.87158   0.02357   0.00000  Uiso   1.00
H373   H     0.68077   0.78481   0.06924   0.00000  Uiso   1.00
H374   H     0.93511   0.99697   0.25642   0.00000  Uiso   1.00
H375   H     0.82379   0.78698   0.21583   0.00000  Uiso   1.00
H376   H     0.84311   0.88272   0.27792   0.00000  Uiso   1.00
H377   H     0.90956   0.82056   0.39610   0.00000  Uiso   1.00
H378   H     0.97482   0.78186   0.47070   0.00000  Uiso   1.00
H379   H     0.86231   0.85620   0.09618   0.00000  Uiso   1.00
H380   H     0.77626   0.87200   0.06732   0.00000  Uiso   1.00
H381   H     0.68540   0.90569   0.02353   0.00000  Uiso   1.00
H382   H     0.73165   0.66971   0.24386   0.00000  Uiso   1.00
N383   N     0.81160   0.81890   0.23543   0.00000  Uiso   1.00
N384   N     0.85507   0.84777   0.26458   0.00000  Uiso   1.00
O385   O     0.96435   0.91296   0.25358   0.00000  Uiso   1.00
O386   O     0.72408   0.90371   0.24423   0.00000  Uiso   1.00
O387   O     0.98157   0.84024   0.33380   0.00000  Uiso   1.00
O388   O     0.74130   0.83099   0.32446   0.00000  Uiso   1.00
O389   O     0.94258   0.76296   0.25577   0.00000  Uiso   1.00
O390   O     0.70231   0.75371   0.24643   0.00000  Uiso   1.00
O391   O     0.92537   0.83567   0.17554   0.00000  Uiso   1.00
O392   O     0.68510   0.82642   0.16620   0.00000  Uiso   1.00
Zn393  Zn    0.93786   0.83951   0.25624   0.00000  Uiso   1.00
Zn394  Zn    0.72881   0.82716   0.24376   0.00000  Uiso   1.00
F395   F     0.97505   0.90300   0.41913   0.00000  Uiso   1.00
F396   F     0.83065   0.88558   0.36313   0.00000  Uiso   1.00
C397   C     0.01478   0.26485   0.74864   0.00000  Uiso   1.00
C398   C     0.13870   0.18798   0.99163   0.00000  Uiso   1.00
C399   C     0.12156   0.19036   0.93507   0.00000  Uiso   1.00
C400   C     0.19449   0.16989   0.51294   0.00000  Uiso   1.00
C401   C     0.22907   0.15150   0.97735   0.00000  Uiso   1.00
C402   C     0.21369   0.16115   0.92279   0.00000  Uiso   1.00
C403   C     0.16467   0.18765   0.90468   0.00000  Uiso   1.00
C404   C     0.21828   0.17209   0.56813   0.00000  Uiso   1.00
C405   C     0.30502   0.13254   0.55350   0.00000  Uiso   1.00
C406   C     0.06251   0.19658   0.91063   0.00000  Uiso   1.00
C407   C     0.02253   0.31938   0.74796   0.00000  Uiso   1.00
C408   C     0.03816   0.17810   0.85336   0.00000  Uiso   1.00
C409   C     0.31089   0.01397   0.75230   0.00000  Uiso   1.00
C410   C     0.31858   0.06849   0.75146   0.00000  Uiso   1.00
C411   C     0.29624   0.16147   0.64604   0.00000  Uiso   1.00
C412   C     0.28235   0.13024   0.99777   0.00000  Uiso   1.00
C413   C     0.27371   0.15543   0.58819   0.00000  Uiso   1.00
C414   C     0.02718   0.21840   0.94246   0.00000  Uiso   1.00
C415   C     0.04654   0.22333   0.99880   0.00000  Uiso   1.00
C416   C     0.09995   0.20491   0.52357   0.00000  Uiso   1.00
H417   H     0.01411   0.11814   0.56924   0.00000  Uiso   1.00
H418   H     0.26844   0.33031   0.75642   0.00000  Uiso   1.00
H419   H     0.15712   0.12032   0.71583   0.00000  Uiso   1.00
H420   H     0.17645   0.21605   0.77792   0.00000  Uiso   1.00
H421   H     0.24289   0.15389   0.89610   0.00000  Uiso   1.00
H422   H     0.30815   0.11519   0.97070   0.00000  Uiso   1.00
H423   H     0.19565   0.18954   0.59618   0.00000  Uiso   1.00
H424   H     0.10960   0.20533   0.56732   0.00000  Uiso   1.00
H425   H     0.01873   0.23903   0.52353   0.00000  Uiso   1.00
H426   H     0.06499   0.00304   0.74386   0.00000  Uiso   1.00
N427   N     0.14493   0.15223   0.73543   0.00000  Uiso   1.00
N428   N     0.18840   0.18110   0.76458   0.00000  Uiso   1.00
O429   O     0.29769   0.24629   0.75358   0.00000  Uiso   1.00
O430   O     0.05742   0.23704   0.74423   0.00000  Uiso   1.00
O431   O     0.31490   0.17358   0.83380   0.00000  Uiso   1.00
O432   O     0.07463   0.16433   0.82446   0.00000  Uiso   1.00
O433   O     0.27592   0.09629   0.75577   0.00000  Uiso   1.00
O434   O     0.03565   0.08704   0.74643   0.00000  Uiso   1.00
O435   O     0.25870   0.16901   0.67554   0.00000  Uiso   1.00
O436   O     0.01843   0.15976   0.66620   0.00000  Uiso   1.00
Zn437  Zn    0.27119   0.17284   0.75624   0.00000  Uiso   1.00
Zn438  Zn    0.06214   0.16049   0.74376   0.00000  Uiso   1.00
F439   F     0.30838   0.23634   0.91913   0.00000  Uiso   1.00
F440   F     0.16398   0.21891   0.86313   0.00000  Uiso   1.00
C441   C     0.34812   0.26485   0.74864   0.00000  Uiso   1.00
C442   C     0.47204   0.18798   0.99163   0.00000  Uiso   1.00
C443   C     0.45489   0.19036   0.93507   0.00000  Uiso   1.00
C444   C     0.52782   0.16989   0.51294   0.00000  Uiso   1.00
C445   C     0.56240   0.15150   0.97735   0.00000  Uiso   1.00
C446   C     0.54703   0.16115   0.92279   0.00000  Uiso   1.00
C447   C     0.49801   0.18765   0.90468   0.00000  Uiso   1.00
C448   C     0.55162   0.17209   0.56813   0.00000  Uiso   1.00
C449   C     0.63836   0.13254   0.55350   0.00000  Uiso   1.00
C450   C     0.39584   0.19658   0.91063   0.00000  Uiso   1.00
C451   C     0.35586   0.31938   0.74796   0.00000  Uiso   1.00
C452   C     0.37149   0.17810   0.85336   0.00000  Uiso   1.00
C453   C     0.64423   0.01397   0.75230   0.00000  Uiso   1.00
C454   C     0.65192   0.06849   0.75146   0.00000  Uiso   1.00
C455   C     0.62957   0.16147   0.64604   0.00000  Uiso   1.00
C456   C     0.61569   0.13024   0.99777   0.00000  Uiso   1.00
C457   C     0.60704   0.15543   0.58819   0.00000  Uiso   1.00
C458   C     0.36051   0.21840   0.94246   0.00000  Uiso   1.00
C459   C     0.37988   0.22333   0.99880   0.00000  Uiso   1.00
C460   C     0.43328   0.20491   0.52357   0.00000  Uiso   1.00
H461   H     0.34744   0.11814   0.56924   0.00000  Uiso   1.00
H462   H     0.60178   0.33031   0.75642   0.00000  Uiso   1.00
H463   H     0.49046   0.12032   0.71583   0.00000  Uiso   1.00
H464   H     0.50978   0.21605   0.77792   0.00000  Uiso   1.00
H465   H     0.57622   0.15389   0.89610   0.00000  Uiso   1.00
H466   H     0.64149   0.11519   0.97070   0.00000  Uiso   1.00
H467   H     0.52898   0.18954   0.59618   0.00000  Uiso   1.00
H468   H     0.44293   0.20533   0.56732   0.00000  Uiso   1.00
H469   H     0.35207   0.23903   0.52353   0.00000  Uiso   1.00
H470   H     0.39832   0.00304   0.74386   0.00000  Uiso   1.00
N471   N     0.47827   0.15223   0.73543   0.00000  Uiso   1.00
N472   N     0.52173   0.18110   0.76458   0.00000  Uiso   1.00
O473   O     0.63102   0.24629   0.75358   0.00000  Uiso   1.00
O474   O     0.39075   0.23704   0.74423   0.00000  Uiso   1.00
O475   O     0.64823   0.17358   0.83380   0.00000  Uiso   1.00
O476   O     0.40796   0.16433   0.82446   0.00000  Uiso   1.00
O477   O     0.60925   0.09629   0.75577   0.00000  Uiso   1.00
O478   O     0.36898   0.08704   0.74643   0.00000  Uiso   1.00
O479   O     0.59204   0.16901   0.67554   0.00000  Uiso   1.00
O480   O     0.35177   0.15976   0.66620   0.00000  Uiso   1.00
Zn481  Zn    0.60453   0.17284   0.75624   0.00000  Uiso   1.00
Zn482  Zn    0.39547   0.16049   0.74376   0.00000  Uiso   1.00
F483   F     0.64172   0.23634   0.91913   0.00000  Uiso   1.00
F484   F     0.49732   0.21891   0.86313   0.00000  Uiso   1.00
C485   C     0.68145   0.26485   0.74864   0.00000  Uiso   1.00
C486   C     0.80537   0.18798   0.99163   0.00000  Uiso   1.00
C487   C     0.78823   0.19036   0.93507   0.00000  Uiso   1.00
C488   C     0.86115   0.16989   0.51294   0.00000  Uiso   1.00
C489   C     0.89574   0.15150   0.97735   0.00000  Uiso   1.00
C490   C     0.88036   0.16115   0.92279   0.00000  Uiso   1.00
C491   C     0.83134   0.18765   0.90468   0.00000  Uiso   1.00
C492   C     0.88495   0.17209   0.56813   0.00000  Uiso   1.00
C493   C     0.97169   0.13254   0.55350   0.00000  Uiso   1.00
C494   C     0.72917   0.19658   0.91063   0.00000  Uiso   1.00
C495   C     0.68920   0.31938   0.74796   0.00000  Uiso   1.00
C496   C     0.70483   0.17810   0.85336   0.00000  Uiso   1.00
C497   C     0.97756   0.01397   0.75230   0.00000  Uiso   1.00
C498   C     0.98525   0.06849   0.75146   0.00000  Uiso   1.00
C499   C     0.96291   0.16147   0.64604   0.00000  Uiso   1.00
C500   C     0.94902   0.13024   0.99777   0.00000  Uiso   1.00
C501   C     0.94037   0.15543   0.58819   0.00000  Uiso   1.00
C502   C     0.69384   0.21840   0.94246   0.00000  Uiso   1.00
C503   C     0.71321   0.22333   0.99880   0.00000  Uiso   1.00
C504   C     0.76662   0.20491   0.52357   0.00000  Uiso   1.00
H505   H     0.68077   0.11814   0.56924   0.00000  Uiso   1.00
H506   H     0.93511   0.33031   0.75642   0.00000  Uiso   1.00
H507   H     0.82379   0.12032   0.71583   0.00000  Uiso   1.00
H508   H     0.84311   0.21605   0.77792   0.00000  Uiso   1.00
H509   H     0.90956   0.15389   0.89610   0.00000  Uiso   1.00
H510   H     0.97482   0.11519   0.97070   0.00000  Uiso   1.00
H511   H     0.86231   0.18954   0.59618   0.00000  Uiso   1.00
H512   H     0.77626   0.20533   0.56732   0.00000  Uiso   1.00
H513   H     0.68540   0.23903   0.52353   0.00000  Uiso   1.00
H514   H     0.73165   0.00304   0.74386   0.00000  Uiso   1.00
N515   N     0.81160   0.15223   0.73543   0.00000  Uiso   1.00
N516   N     0.85507   0.18110   0.76458   0.00000  Uiso   1.00
O517   O     0.96435   0.24629   0.75358   0.00000  Uiso   1.00
O518   O     0.72408   0.23704   0.74423   0.00000  Uiso   1.00
O519   O     0.98157   0.17358   0.83380   0.00000  Uiso   1.00
O520   O     0.74130   0.16433   0.82446   0.00000  Uiso   1.00
O521   O     0.94258   0.09629   0.75577   0.00000  Uiso   1.00
O522   O     0.70231   0.08704   0.74643   0.00000  Uiso   1.00
O523   O     0.92537   0.16901   0.67554   0.00000  Uiso   1.00
O524   O     0.68510   0.15976   0.66620   0.00000  Uiso   1.00
Zn525  Zn    0.93786   0.17284   0.75624   0.00000  Uiso   1.00
Zn526  Zn    0.72881   0.16049   0.74376   0.00000  Uiso   1.00
F527   F     0.97505   0.23634   0.91913   0.00000  Uiso   1.00
F528   F     0.83065   0.21891   0.86313   0.00000  Uiso   1.00
C529   C     0.01478   0.59819   0.74864   0.00000  Uiso   1.00
C530   C     0.13870   0.52131   0.99163   0.00000  Uiso   1.00
C531   C     0.12156   0.52369   0.93507   0.00000  Uiso   1.00
C532   C     0.19449   0.50322   0.51294   0.00000  Uiso   1.00
C533   C     0.22907   0.48483   0.97735   0.00000  Uiso   1.00
C534   C     0.21369   0.49449   0.92279   0.00000  Uiso   1.00
C535   C     0.16467   0.52098   0.90468   0.00000  Uiso   1.00
C536   C     0.21828   0.50542   0.56813   0.00000  Uiso   1.00
C537   C     0.30502   0.46588   0.55350   0.00000  Uiso   1.00
C538   C     0.06251   0.52991   0.91063   0.00000  Uiso   1.00
C539   C     0.02253   0.65272   0.74796   0.00000  Uiso   1.00
C540   C     0.03816   0.51144   0.85336   0.00000  Uiso   1.00
C541   C     0.31089   0.34730   0.75230   0.00000  Uiso   1.00
C542   C     0.31858   0.40182   0.75146   0.00000  Uiso   1.00
C543   C     0.29624   0.49480   0.64604   0.00000  Uiso   1.00
C544   C     0.28235   0.46357   0.99777   0.00000  Uiso   1.00
C545   C     0.27371   0.48876   0.58819   0.00000  Uiso   1.00
C546   C     0.02718   0.55173   0.94246   0.00000  Uiso   1.00
C547   C     0.04654   0.55666   0.99880   0.00000  Uiso   1.00
C548   C     0.09995   0.53825   0.52357   0.00000  Uiso   1.00
H549   H     0.01411   0.45147   0.56924   0.00000  Uiso   1.00
H550   H     0.26844   0.66364   0.75642   0.00000  Uiso   1.00
H551   H     0.15712   0.45365   0.71583   0.00000  Uiso   1.00
H552   H     0.17645   0.54938   0.77792   0.00000  Uiso   1.00
H553   H     0.24289   0.48722   0.89610   0.00000  Uiso   1.00
H554   H     0.30815   0.44852   0.97070   0.00000  Uiso   1.00
H555   H     0.19565   0.52287   0.59618   0.00000  Uiso   1.00
H556   H     0.10960   0.53866   0.56732   0.00000  Uiso   1.00
H557   H     0.01873   0.57236   0.52353   0.00000  Uiso   1.00
H558   H     0.06499   0.33637   0.74386   0.00000  Uiso   1.00
N559   N     0.14493   0.48556   0.73543   0.00000  Uiso   1.00
N560   N     0.18840   0.51444   0.76458   0.00000  Uiso   1.00
O561   O     0.29769   0.57963   0.75358   0.00000  Uiso   1.00
O562   O     0.05742   0.57038   0.74423   0.00000  Uiso   1.00
O563   O     0.31490   0.50691   0.83380   0.00000  Uiso   1.00
O564   O     0.07463   0.49766   0.82446   0.00000  Uiso   1.00
O565   O     0.27592   0.42962   0.75577   0.00000  Uiso   1.00
O566   O     0.03565   0.42037   0.74643   0.00000  Uiso   1.00
O567   O     0.25870   0.50234   0.67554   0.00000  Uiso   1.00
O568   O     0.01843   0.49309   0.66620   0.00000  Uiso   1.00
Zn569  Zn    0.27119   0.50618   0.75624   0.00000  Uiso   1.00
Zn570  Zn    0.06214   0.49382   0.74376   0.00000  Uiso   1.00
F571   F     0.30838   0.56967   0.91913   0.00000  Uiso   1.00
F572   F     0.16398   0.55224   0.86313   0.00000  Uiso   1.00
C573   C     0.34812   0.59819   0.74864   0.00000  Uiso   1.00
C574   C     0.47204   0.52131   0.99163   0.00000  Uiso   1.00
C575   C     0.45489   0.52369   0.93507   0.00000  Uiso   1.00
C576   C     0.52782   0.50322   0.51294   0.00000  Uiso   1.00
C577   C     0.56240   0.48483   0.97735   0.00000  Uiso   1.00
C578   C     0.54703   0.49449   0.92279   0.00000  Uiso   1.00
C579   C     0.49801   0.52098   0.90468   0.00000  Uiso   1.00
C580   C     0.55162   0.50542   0.56813   0.00000  Uiso   1.00
C581   C     0.63836   0.46588   0.55350   0.00000  Uiso   1.00
C582   C     0.39584   0.52991   0.91063   0.00000  Uiso   1.00
C583   C     0.35586   0.65272   0.74796   0.00000  Uiso   1.00
C584   C     0.37149   0.51144   0.85336   0.00000  Uiso   1.00
C585   C     0.64423   0.34730   0.75230   0.00000  Uiso   1.00
C586   C     0.65192   0.40182   0.75146   0.00000  Uiso   1.00
C587   C     0.62957   0.49480   0.64604   0.00000  Uiso   1.00
C588   C     0.61569   0.46357   0.99777   0.00000  Uiso   1.00
C589   C     0.60704   0.48876   0.58819   0.00000  Uiso   1.00
C590   C     0.36051   0.55173   0.94246   0.00000  Uiso   1.00
C591   C     0.37988   0.55666   0.99880   0.00000  Uiso   1.00
C592   C     0.43328   0.53825   0.52357   0.00000  Uiso   1.00
H593   H     0.34744   0.45147   0.56924   0.00000  Uiso   1.00
H594   H     0.60178   0.66364   0.75642   0.00000  Uiso   1.00
H595   H     0.49046   0.45365   0.71583   0.00000  Uiso   1.00
H596   H     0.50978   0.54938   0.77792   0.00000  Uiso   1.00
H597   H     0.57622   0.48722   0.89610   0.00000  Uiso   1.00
H598   H     0.64149   0.44852   0.97070   0.00000  Uiso   1.00
H599   H     0.52898   0.52287   0.59618   0.00000  Uiso   1.00
H600   H     0.44293   0.53866   0.56732   0.00000  Uiso   1.00
H601   H     0.35207   0.57236   0.52353   0.00000  Uiso   1.00
H602   H     0.39832   0.33637   0.74386   0.00000  Uiso   1.00
N603   N     0.47827   0.48556   0.73543   0.00000  Uiso   1.00
N604   N     0.52173   0.51444   0.76458   0.00000  Uiso   1.00
O605   O     0.63102   0.57963   0.75358   0.00000  Uiso   1.00
O606   O     0.39075   0.57038   0.74423   0.00000  Uiso   1.00
O607   O     0.64823   0.50691   0.83380   0.00000  Uiso   1.00
O608   O     0.40796   0.49766   0.82446   0.00000  Uiso   1.00
O609   O     0.60925   0.42962   0.75577   0.00000  Uiso   1.00
O610   O     0.36898   0.42037   0.74643   0.00000  Uiso   1.00
O611   O     0.59204   0.50234   0.67554   0.00000  Uiso   1.00
O612   O     0.35177   0.49309   0.66620   0.00000  Uiso   1.00
Zn613  Zn    0.60453   0.50618   0.75624   0.00000  Uiso   1.00
Zn614  Zn    0.39547   0.49382   0.74376   0.00000  Uiso   1.00
F615   F     0.64172   0.56967   0.91913   0.00000  Uiso   1.00
F616   F     0.49732   0.55224   0.86313   0.00000  Uiso   1.00
C617   C     0.68145   0.59819   0.74864   0.00000  Uiso   1.00
C618   C     0.80537   0.52131   0.99163   0.00000  Uiso   1.00
C619   C     0.78823   0.52369   0.93507   0.00000  Uiso   1.00
C620   C     0.86115   0.50322   0.51294   0.00000  Uiso   1.00
C621   C     0.89574   0.48483   0.97735   0.00000  Uiso   1.00
C622   C     0.88036   0.49449   0.92279   0.00000  Uiso   1.00
C623   C     0.83134   0.52098   0.90468   0.00000  Uiso   1.00
C624   C     0.88495   0.50542   0.56813   0.00000  Uiso   1.00
C625   C     0.97169   0.46588   0.55350   0.00000  Uiso   1.00
C626   C     0.72917   0.52991   0.91063   0.00000  Uiso   1.00
C627   C     0.68920   0.65272   0.74796   0.00000  Uiso   1.00
C628   C     0.70483   0.51144   0.85336   0.00000  Uiso   1.00
C629   C     0.97756   0.34730   0.75230   0.00000  Uiso   1.00
C630   C     0.98525   0.40182   0.75146   0.00000  Uiso   1.00
C631   C     0.96291   0.49480   0.64604   0.00000  Uiso   1.00
C632   C     0.94902   0.46357   0.99777   0.00000  Uiso   1.00
C633   C     0.94037   0.48876   0.58819   0.00000  Uiso   1.00
C634   C     0.69384   0.55173   0.94246   0.00000  Uiso   1.00
C635   C     0.71321   0.55666   0.99880   0.00000  Uiso   1.00
C636   C     0.76662   0.53825   0.52357   0.00000  Uiso   1.00
H637   H     0.68077   0.45147   0.56924   0.00000  Uiso   1.00
H638   H     0.93511   0.66364   0.75642   0.00000  Uiso   1.00
H639   H     0.82379   0.45365   0.71583   0.00000  Uiso   1.00
H640   H     0.84311   0.54938   0.77792   0.00000  Uiso   1.00
H641   H     0.90956   0.48722   0.89610   0.00000  Uiso   1.00
H642   H     0.97482   0.44852   0.97070   0.00000  Uiso   1.00
H643   H     0.86231   0.52287   0.59618   0.00000  Uiso   1.00
H644   H     0.77626   0.53866   0.56732   0.00000  Uiso   1.00
H645   H     0.68540   0.57236   0.52353   0.00000  Uiso   1.00
H646   H     0.73165   0.33637   0.74386   0.00000  Uiso   1.00
N647   N     0.81160   0.48556   0.73543   0.00000  Uiso   1.00
N648   N     0.85507   0.51444   0.76458   0.00000  Uiso   1.00
O649   O     0.96435   0.57963   0.75358   0.00000  Uiso   1.00
O650   O     0.72408   0.57038   0.74423   0.00000  Uiso   1.00
O651   O     0.98157   0.50691   0.83380   0.00000  Uiso   1.00
O652   O     0.74130   0.49766   0.82446   0.00000  Uiso   1.00
O653   O     0.94258   0.42962   0.75577   0.00000  Uiso   1.00
O654   O     0.70231   0.42037   0.74643   0.00000  Uiso   1.00
O655   O     0.92537   0.50234   0.67554   0.00000  Uiso   1.00
O656   O     0.68510   0.49309   0.66620   0.00000  Uiso   1.00
Zn657  Zn    0.93786   0.50618   0.75624   0.00000  Uiso   1.00
Zn658  Zn    0.72881   0.49382   0.74376   0.00000  Uiso   1.00
F659   F     0.97505   0.56967   0.91913   0.00000  Uiso   1.00
F660   F     0.83065   0.55224   0.86313   0.00000  Uiso   1.00
C661   C     0.01478   0.93152   0.74864   0.00000  Uiso   1.00
C662   C     0.13870   0.85465   0.99163   0.00000  Uiso   1.00
C663   C     0.12156   0.85702   0.93507   0.00000  Uiso   1.00
C664   C     0.19449   0.83656   0.51294   0.00000  Uiso   1.00
C665   C     0.22907   0.81816   0.97735   0.00000  Uiso   1.00
C666   C     0.21369   0.82782   0.92279   0.00000  Uiso   1.00
C667   C     0.16467   0.85431   0.90468   0.00000  Uiso   1.00
C668   C     0.21828   0.83876   0.56813   0.00000  Uiso   1.00
C669   C     0.30502   0.79921   0.55350   0.00000  Uiso   1.00
C670   C     0.06251   0.86325   0.91063   0.00000  Uiso   1.00
C671   C     0.02253   0.98605   0.74796   0.00000  Uiso   1.00
C672   C     0.03816   0.84477   0.85336   0.00000  Uiso   1.00
C673   C     0.31089   0.68063   0.75230   0.00000  Uiso   1.00
C674   C     0.31858   0.73516   0.75146   0.00000  Uiso   1.00
C675   C     0.29624   0.82813   0.64604   0.00000  Uiso   1.00
C676   C     0.28235   0.79690   0.99777   0.00000  Uiso   1.00
C677   C     0.27371   0.82209   0.58819   0.00000  Uiso   1.00
C678   C     0.02718   0.88506   0.94246   0.00000  Uiso   1.00
C679   C     0.04654   0.89000   0.99880   0.00000  Uiso   1.00
C680   C     0.09995   0.87158   0.52357   0.00000  Uiso   1.00
H681   H     0.01411   0.78481   0.56924   0.00000  Uiso   1.00
H682   H     0.26844   0.99697   0.75642   0.00000  Uiso   1.00
H683   H     0.15712   0.78698   0.71583   0.00000  Uiso   1.00
H684   H     0.17645   0.88272   0.77792   0.00000  Uiso   1.00
H685   H     0.24289   0.82056   0.89610   0.00000  Uiso   1.00
H686   H     0.30815   0.78186   0.97070   0.00000  Uiso   1.00
H687   H     0.19565   0.85620   0.59618   0.00000  Uiso   1.00
H688   H     0.10960   0.87200   0.56732   0.00000  Uiso   1.00
H689   H     0.01873   0.90569   0.52353   0.00000  Uiso   1.00
H690   H     0.06499   0.66971   0.74386   0.00000  Uiso   1.00
N691   N     0.14493   0.81890   0.73543   0.00000  Uiso   1.00
N692   N     0.18840   0.84777   0.76458   0.00000  Uiso   1.00
O693   O     0.29769   0.91296   0.75358   0.00000  Uiso   1.00
O694   O     0.05742   0.90371   0.74423   0.00000  Uiso   1.00
O695   O     0.31490   0.84024   0.83380   0.00000  Uiso   1.00
O696   O     0.07463   0.83099   0.82446   0.00000  Uiso   1.00
O697   O     0.27592   0.76296   0.75577   0.00000  Uiso   1.00
O698   O     0.03565   0.75371   0.74643   0.00000  Uiso   1.00
O699   O     0.25870   0.83567   0.67554   0.00000  Uiso   1.00
O700   O     0.01843   0.82642   0.66620   0.00000  Uiso   1.00
Zn701  Zn    0.27119   0.83951   0.75624   0.00000  Uiso   1.00
Zn702  Zn    0.06214   0.82716   0.74376   0.00000  Uiso   1.00
F703   F     0.30838   0.90300   0.91913   0.00000  Uiso   1.00
F704   F     0.16398   0.88558   0.86313   0.00000  Uiso   1.00
C705   C     0.34812   0.93152   0.74864   0.00000  Uiso   1.00
C706   C     0.47204   0.85465   0.99163   0.00000  Uiso   1.00
C707   C     0.45489   0.85702   0.93507   0.00000  Uiso   1.00
C708   C     0.52782   0.83656   0.51294   0.00000  Uiso   1.00
C709   C     0.56240   0.81816   0.97735   0.00000  Uiso   1.00
C710   C     0.54703   0.82782   0.92279   0.00000  Uiso   1.00
C711   C     0.49801   0.85431   0.90468   0.00000  Uiso   1.00
C712   C     0.55162   0.83876   0.56813   0.00000  Uiso   1.00
C713   C     0.63836   0.79921   0.55350   0.00000  Uiso   1.00
C714   C     0.39584   0.86325   0.91063   0.00000  Uiso   1.00
C715   C     0.35586   0.98605   0.74796   0.00000  Uiso   1.00
C716   C     0.37149   0.84477   0.85336   0.00000  Uiso   1.00
C717   C     0.64423   0.68063   0.75230   0.00000  Uiso   1.00
C718   C     0.65192   0.73516   0.75146   0.00000  Uiso   1.00
C719   C     0.62957   0.82813   0.64604   0.00000  Uiso   1.00
C720   C     0.61569   0.79690   0.99777   0.00000  Uiso   1.00
C721   C     0.60704   0.82209   0.58819   0.00000  Uiso   1.00
C722   C     0.36051   0.88506   0.94246   0.00000  Uiso   1.00
C723   C     0.37988   0.89000   0.99880   0.00000  Uiso   1.00
C724   C     0.43328   0.87158   0.52357   0.00000  Uiso   1.00
H725   H     0.34744   0.78481   0.56924   0.00000  Uiso   1.00
H726   H     0.60178   0.99697   0.75642   0.00000  Uiso   1.00
H727   H     0.49046   0.78698   0.71583   0.00000  Uiso   1.00
H728   H     0.50978   0.88272   0.77792   0.00000  Uiso   1.00
H729   H     0.57622   0.82056   0.89610   0.00000  Uiso   1.00
H730   H     0.64149   0.78186   0.97070   0.00000  Uiso   1.00
H731   H     0.52898   0.85620   0.59618   0.00000  Uiso   1.00
H732   H     0.44293   0.87200   0.56732   0.00000  Uiso   1.00
H733   H     0.35207   0.90569   0.52353   0.00000  Uiso   1.00
H734   H     0.39832   0.66971   0.74386   0.00000  Uiso   1.00
N735   N     0.47827   0.81890   0.73543   0.00000  Uiso   1.00
N736   N     0.52173   0.84777   0.76458   0.00000  Uiso   1.00
O737   O     0.63102   0.91296   0.75358   0.00000  Uiso   1.00
O738   O     0.39075   0.90371   0.74423   0.00000  Uiso   1.00
O739   O     0.64823   0.84024   0.83380   0.00000  Uiso   1.00
O740   O     0.40796   0.83099   0.82446   0.00000  Uiso   1.00
O741   O     0.60925   0.76296   0.75577   0.00000  Uiso   1.00
O742   O     0.36898   0.75371   0.74643   0.00000  Uiso   1.00
O743   O     0.59204   0.83567   0.67554   0.00000  Uiso   1.00
O744   O     0.35177   0.82642   0.66620   0.00000  Uiso   1.00
Zn745  Zn    0.60453   0.83951   0.75624   0.00000  Uiso   1.00
Zn746  Zn    0.39547   0.82716   0.74376   0.00000  Uiso   1.00
F747   F     0.64172   0.90300   0.91913   0.00000  Uiso   1.00
F748   F     0.49732   0.88558   0.86313   0.00000  Uiso   1.00
C749   C     0.68145   0.93152   0.74864   0.00000  Uiso   1.00
C750   C     0.80537   0.85465   0.99163   0.00000  Uiso   1.00
C751   C     0.78823   0.85702   0.93507   0.00000  Uiso   1.00
C752   C     0.86115   0.83656   0.51294   0.00000  Uiso   1.00
C753   C     0.89574   0.81816   0.97735   0.00000  Uiso   1.00
C754   C     0.88036   0.82782   0.92279   0.00000  Uiso   1.00
C755   C     0.83134   0.85431   0.90468   0.00000  Uiso   1.00
C756   C     0.88495   0.83876   0.56813   0.00000  Uiso   1.00
C757   C     0.97169   0.79921   0.55350   0.00000  Uiso   1.00
C758   C     0.72917   0.86325   0.91063   0.00000  Uiso   1.00
C759   C     0.68920   0.98605   0.74796   0.00000  Uiso   1.00
C760   C     0.70483   0.84477   0.85336   0.00000  Uiso   1.00
C761   C     0.97756   0.68063   0.75230   0.00000  Uiso   1.00
C762   C     0.98525   0.73516   0.75146   0.00000  Uiso   1.00
C763   C     0.96291   0.82813   0.64604   0.00000  Uiso   1.00
C764   C     0.94902   0.79690   0.99777   0.00000  Uiso   1.00
C765   C     0.94037   0.82209   0.58819   0.00000  Uiso   1.00
C766   C     0.69384   0.88506   0.94246   0.00000  Uiso   1.00
C767   C     0.71321   0.89000   0.99880   0.00000  Uiso   1.00
C768   C     0.76662   0.87158   0.52357   0.00000  Uiso   1.00
H769   H     0.68077   0.78481   0.56924   0.00000  Uiso   1.00
H770   H     0.93511   0.99697   0.75642   0.00000  Uiso   1.00
H771   H     0.82379   0.78698   0.71583   0.00000  Uiso   1.00
H772   H     0.84311   0.88272   0.77792   0.00000  Uiso   1.00
H773   H     0.90956   0.82056   0.89610   0.00000  Uiso   1.00
H774   H     0.97482   0.78186   0.97070   0.00000  Uiso   1.00
H775   H     0.86231   0.85620   0.59618   0.00000  Uiso   1.00
H776   H     0.77626   0.87200   0.56732   0.00000  Uiso   1.00
H777   H     0.68540   0.90569   0.52353   0.00000  Uiso   1.00
H778   H     0.73165   0.66971   0.74386   0.00000  Uiso   1.00
N779   N     0.81160   0.81890   0.73543   0.00000  Uiso   1.00
N780   N     0.85507   0.84777   0.76458   0.00000  Uiso   1.00
O781   O     0.96435   0.91296   0.75358   0.00000  Uiso   1.00
O782   O     0.72408   0.90371   0.74423   0.00000  Uiso   1.00
O783   O     0.98157   0.84024   0.83380   0.00000  Uiso   1.00
O784   O     0.74130   0.83099   0.82446   0.00000  Uiso   1.00
O785   O     0.94258   0.76296   0.75577   0.00000  Uiso   1.00
O786   O     0.70231   0.75371   0.74643   0.00000  Uiso   1.00
O787   O     0.92537   0.83567   0.67554   0.00000  Uiso   1.00
O788   O     0.68510   0.82642   0.66620   0.00000  Uiso   1.00
Zn789  Zn    0.93786   0.83951   0.75624   0.00000  Uiso   1.00
Zn790  Zn    0.72881   0.82716   0.74376   0.00000  Uiso   1.00
F791   F     0.97505   0.90300   0.91913   0.00000  Uiso   1.00
F792   F     0.83065   0.88558   0.86313   0.00000  Uiso   1.00
loop_
_geom_bond_atom_site_label_1
_geom_bond_atom_site_label_2
_geom_bond_distance
_geom_bond_site_symmetry_2
_ccdc_geom_bond_type
C1     O34     1.290   .     A
C1     C11     1.404   .     S
C1     O121    1.279   1_455 S
C2     C3      1.401   .     A
C2     C400    1.418   .     S
C2     C416    1.419   .     S
C3     C10     1.409   .     A
C3     C7      1.402   .     A
C4     C8      1.379   .     A
C4     C398    1.418   1_554 S
C4     C401    1.424   1_554 S
C5     C6      1.383   .     A
C5     C16     1.400   .     A
C5     C400    1.424   .     S
C6     C7      1.378   .     A
C6     H25     1.081   .     S
C7     F44     1.348   .     S
C8     C17     1.391   .     A
C8     H27     1.075   .     S
C9     C17     1.397   .     A
C9     C412    1.387   1_554 S
C9     H65     1.083   .     S
C10    C12     1.477   .     S
C10    C18     1.402   .     A
C11    C233    1.337   1_455 S
C11    H162    1.088   .     S
C12    O36     1.298   .     A
C12    O123    1.305   1_455 S
C13    C14     1.404   .     S
C13    C319    1.337   1_545 S
C13    H286    1.088   1_545 S
C14    O37     1.290   .     A
C14    O82     1.279   .     S
C15    O39     1.292   .     A
C15    C17     1.437   .     S
C15    O84     1.294   .     S
C16    H26     1.084   .     S
C16    C405    1.387   .     S
C18    C19     1.392   .     A
C18    F131    1.355   1_455 S
C19    C416    1.395   .     S
C19    H425    1.083   .     S
C20    H28     1.077   .     S
C20    C398    1.419   1_554 S
C20    C415    1.395   1_554 S
H21    C97     1.083   1_455 S
H22    C145    1.088   .     S
H23    N31     1.029   .     S
H24    N32     1.025   .     S
H29    C415    1.083   1_554 S
H30    C275    1.088   1_545 S
N31    Zn42    2.023   .     S
N31    N32     1.284   .     D
N32    Zn41    2.023   .     S
O33    Zn41    1.958   .     S
O33    C45     1.279   .     S
O34    Zn42    1.980   .     S
O35    Zn41    1.998   .     S
O35    C56     1.305   .     S
O36    Zn42    1.991   .     S
O37    Zn41    1.980   .     S
O38    Zn42    1.958   .     S
O38    C102    1.279   1_455 S
O39    Zn41    1.991   .     S
O40    Zn42    1.998   .     S
O40    C103    1.294   1_455 S
F43    C62     1.355   .     S
C45    O78     1.290   .     A
C45    C55     1.404   .     S
C46    C47     1.401   .     A
C46    C444    1.418   .     S
C46    C460    1.419   .     S
C47    C54     1.409   .     A
C47    C51     1.402   .     A
C48    C52     1.379   .     A
C48    C442    1.418   1_554 S
C48    C445    1.424   1_554 S
C49    C50     1.383   .     A
C49    C60     1.400   .     A
C49    C444    1.424   .     S
C50    C51     1.378   .     A
C50    H69     1.081   .     S
C51    F88     1.348   .     S
C52    C61     1.391   .     A
C52    H71     1.075   .     S
C53    C61     1.397   .     A
C53    C456    1.387   1_554 S
C53    H109    1.083   .     S
C54    C56     1.477   .     S
C54    C62     1.402   .     A
C55    C145    1.337   .     S
C55    H206    1.088   .     S
C56    O80     1.298   .     A
C57    C58     1.404   .     S
C57    C363    1.337   1_545 S
C57    H330    1.088   1_545 S
C58    O81     1.290   .     A
C58    O126    1.279   .     S
C59    O83     1.292   .     A
C59    C61     1.437   .     S
C59    O128    1.294   .     S
C60    H70     1.084   .     S
C60    C449    1.387   .     S
C62    C63     1.392   .     A
C63    C460    1.395   .     S
C63    H469    1.083   .     S
C64    H72     1.077   .     S
C64    C442    1.419   1_554 S
C64    C459    1.395   1_554 S
H66    C189    1.088   .     S
H67    N75     1.029   .     S
H68    N76     1.025   .     S
H73    C459    1.083   1_554 S
H74    C319    1.088   1_545 S
N75    Zn86    2.023   .     S
N75    N76     1.284   .     D
N76    Zn85    2.023   .     S
O77    Zn85    1.958   .     S
O77    C89     1.279   .     S
O78    Zn86    1.980   .     S
O79    Zn85    1.998   .     S
O79    C100    1.305   .     S
O80    Zn86    1.991   .     S
O81    Zn85    1.980   .     S
O82    Zn86    1.958   .     S
O83    Zn85    1.991   .     S
O84    Zn86    1.998   .     S
F87    C106    1.355   .     S
C89    O122    1.290   .     A
C89    C99     1.404   .     S
C90    C91     1.401   .     A
C90    C488    1.418   .     S
C90    C504    1.419   .     S
C91    C98     1.409   .     A
C91    C95     1.402   .     A
C92    C96     1.379   .     A
C92    C486    1.418   1_554 S
C92    C489    1.424   1_554 S
C93    C94     1.383   .     A
C93    C104    1.400   .     A
C93    C488    1.424   .     S
C94    C95     1.378   .     A
C94    H113    1.081   .     S
C95    F132    1.348   .     S
C96    C105    1.391   .     A
C96    H115    1.075   .     S
C97    C105    1.397   .     A
C97    C500    1.387   1_554 S
C97    H21     1.083   1_655 S
C98    C100    1.477   .     S
C98    C106    1.402   .     A
C99    C189    1.337   .     S
C99    H250    1.088   .     S
C100   O124    1.298   .     A
C101   C102    1.404   .     S
C101   C275    1.337   1_645 S
C101   H374    1.088   1_545 S
C102   O125    1.290   .     A
C102   O38     1.279   1_655 S
C103   O127    1.292   .     A
C103   C105    1.437   .     S
C103   O40     1.294   1_655 S
C104   H114    1.084   .     S
C104   C493    1.387   .     S
C106   C107    1.392   .     A
C107   C504    1.395   .     S
C107   H513    1.083   .     S
C108   H116    1.077   .     S
C108   C486    1.419   1_554 S
C108   C503    1.395   1_554 S
H110   C233    1.088   .     S
H111   N119    1.029   .     S
H112   N120    1.025   .     S
H117   C503    1.083   1_554 S
H118   C363    1.088   1_545 S
N119   Zn130   2.023   .     S
N119   N120    1.284   .     D
N120   Zn129   2.023   .     S
O121   Zn129   1.958   .     S
O121   C1      1.279   1_655 S
O122   Zn130   1.980   .     S
O123   Zn129   1.998   .     S
O123   C12     1.305   1_655 S
O124   Zn130   1.991   .     S
O125   Zn129   1.980   .     S
O126   Zn130   1.958   .     S
O127   Zn129   1.991   .     S
O128   Zn130   1.998   .     S
F131   C18     1.355   1_655 S
C133   O166    1.290   .     A
C133   C143    1.404   .     S
C133   O253    1.279   1_455 S
C134   C135    1.401   .     A
C134   C532    1.418   .     S
C134   C548    1.419   .     S
C135   C142    1.409   .     A
C135   C139    1.402   .     A
C136   C140    1.379   .     A
C136   C530    1.418   1_554 S
C136   C533    1.424   1_554 S
C137   C138    1.383   .     A
C137   C148    1.400   .     A
C137   C532    1.424   .     S
C138   C139    1.378   .     A
C138   H157    1.081   .     S
C139   F176    1.348   .     S
C140   C149    1.391   .     A
C140   H159    1.075   .     S
C141   C149    1.397   .     A
C141   C544    1.387   1_554 S
C141   H197    1.083   .     S
C142   C144    1.477   .     S
C142   C150    1.402   .     A
C143   C365    1.337   1_455 S
C143   H294    1.088   .     S
C144   O168    1.298   .     A
C144   O255    1.305   1_455 S
C145   C146    1.404   .     S
C146   O169    1.290   .     A
C146   O214    1.279   .     S
C147   O171    1.292   .     A
C147   C149    1.437   .     S
C147   O216    1.294   .     S
C148   H158    1.084   .     S
C148   C537    1.387   .     S
C150   C151    1.392   .     A
C150   F263    1.355   1_455 S
C151   C548    1.395   .     S
C151   H557    1.083   .     S
C152   H160    1.077   .     S
C152   C530    1.419   1_554 S
C152   C547    1.395   1_554 S
H153   C229    1.083   1_455 S
H154   C277    1.088   .     S
H155   N163    1.029   .     S
H156   N164    1.025   .     S
H161   C547    1.083   1_554 S
N163   Zn174   2.023   .     S
N163   N164    1.284   .     D
N164   Zn173   2.023   .     S
O165   Zn173   1.958   .     S
O165   C177    1.279   .     S
O166   Zn174   1.980   .     S
O167   Zn173   1.998   .     S
O167   C188    1.305   .     S
O168   Zn174   1.991   .     S
O169   Zn173   1.980   .     S
O170   Zn174   1.958   .     S
O170   C234    1.279   1_455 S
O171   Zn173   1.991   .     S
O172   Zn174   1.998   .     S
O172   C235    1.294   1_455 S
F175   C194    1.355   .     S
C177   O210    1.290   .     A
C177   C187    1.404   .     S
C178   C179    1.401   .     A
C178   C576    1.418   .     S
C178   C592    1.419   .     S
C179   C186    1.409   .     A
C179   C183    1.402   .     A
C180   C184    1.379   .     A
C180   C574    1.418   1_554 S
C180   C577    1.424   1_554 S
C181   C182    1.383   .     A
C181   C192    1.400   .     A
C181   C576    1.424   .     S
C182   C183    1.378   .     A
C182   H201    1.081   .     S
C183   F220    1.348   .     S
C184   C193    1.391   .     A
C184   H203    1.075   .     S
C185   C193    1.397   .     A
C185   C588    1.387   1_554 S
C185   H241    1.083   .     S
C186   C188    1.477   .     S
C186   C194    1.402   .     A
C187   C277    1.337   .     S
C187   H338    1.088   .     S
C188   O212    1.298   .     A
C189   C190    1.404   .     S
C190   O213    1.290   .     A
C190   O258    1.279   .     S
C191   O215    1.292   .     A
C191   C193    1.437   .     S
C191   O260    1.294   .     S
C192   H202    1.084   .     S
C192   C581    1.387   .     S
C194   C195    1.392   .     A
C195   C592    1.395   .     S
C195   H601    1.083   .     S
C196   H204    1.077   .     S
C196   C574    1.419   1_554 S
C196   C591    1.395   1_554 S
H198   C321    1.088   .     S
H199   N207    1.029   .     S
H200   N208    1.025   .     S
H205   C591    1.083   1_554 S
N207   Zn218   2.023   .     S
N207   N208    1.284   .     D
N208   Zn217   2.023   .     S
O209   Zn217   1.958   .     S
O209   C221    1.279   .     S
O210   Zn218   1.980   .     S
O211   Zn217   1.998   .     S
O211   C232    1.305   .     S
O212   Zn218   1.991   .     S
O213   Zn217   1.980   .     S
O214   Zn218   1.958   .     S
O215   Zn217   1.991   .     S
O216   Zn218   1.998   .     S
F219   C238    1.355   .     S
C221   O254    1.290   .     A
C221   C231    1.404   .     S
C222   C223    1.401   .     A
C222   C620    1.418   .     S
C222   C636    1.419   .     S
C223   C230    1.409   .     A
C223   C227    1.402   .     A
C224   C228    1.379   .     A
C224   C618    1.418   1_554 S
C224   C621    1.424   1_554 S
C225   C226    1.383   .     A
C225   C236    1.400   .     A
C225   C620    1.424   .     S
C226   C227    1.378   .     A
C226   H245    1.081   .     S
C227   F264    1.348   .     S
C228   C237    1.391   .     A
C228   H247    1.075   .     S
C229   C237    1.397   .     A
C229   C632    1.387   1_554 S
C229   H153    1.083   1_655 S
C230   C232    1.477   .     S
C230   C238    1.402   .     A
C231   C321    1.337   .     S
C231   H382    1.088   .     S
C232   O256    1.298   .     A
C233   C234    1.404   .     S
C233   C11     1.337   1_655 S
C234   O257    1.290   .     A
C234   O170    1.279   1_655 S
C235   O259    1.292   .     A
C235   C237    1.437   .     S
C235   O172    1.294   1_655 S
C236   H246    1.084   .     S
C236   C625    1.387   .     S
C238   C239    1.392   .     A
C239   C636    1.395   .     S
C239   H645    1.083   .     S
C240   H248    1.077   .     S
C240   C618    1.419   1_554 S
C240   C635    1.395   1_554 S
H242   C365    1.088   .     S
H243   N251    1.029   .     S
H244   N252    1.025   .     S
H249   C635    1.083   1_554 S
N251   Zn262   2.023   .     S
N251   N252    1.284   .     D
N252   Zn261   2.023   .     S
O253   Zn261   1.958   .     S
O253   C133    1.279   1_655 S
O254   Zn262   1.980   .     S
O255   Zn261   1.998   .     S
O255   C144    1.305   1_655 S
O256   Zn262   1.991   .     S
O257   Zn261   1.980   .     S
O258   Zn262   1.958   .     S
O259   Zn261   1.991   .     S
O260   Zn262   1.998   .     S
F263   C150    1.355   1_655 S
C265   O298    1.290   .     A
C265   C275    1.404   .     S
C265   O385    1.279   1_455 S
C266   C267    1.401   .     A
C266   C664    1.418   .     S
C266   C680    1.419   .     S
C267   C274    1.409   .     A
C267   C271    1.402   .     A
C268   C272    1.379   .     A
C268   C662    1.418   1_554 S
C268   C665    1.424   1_554 S
C269   C270    1.383   .     A
C269   C280    1.400   .     A
C269   C664    1.424   .     S
C270   C271    1.378   .     A
C270   H289    1.081   .     S
C271   F308    1.348   .     S
C272   C281    1.391   .     A
C272   H291    1.075   .     S
C273   C281    1.397   .     A
C273   C676    1.387   1_554 S
C273   H329    1.083   .     S
C274   C276    1.477   .     S
C274   C282    1.402   .     A
C275   C101    1.337   1_465 S
C275   H30     1.088   1_565 S
C276   O300    1.298   .     A
C276   O387    1.305   1_455 S
C277   C278    1.404   .     S
C278   O301    1.290   .     A
C278   O346    1.279   .     S
C279   O303    1.292   .     A
C279   C281    1.437   .     S
C279   O348    1.294   .     S
C280   H290    1.084   .     S
C280   C669    1.387   .     S
C282   C283    1.392   .     A
C282   F395    1.355   1_455 S
C283   C680    1.395   .     S
C283   H689    1.083   .     S
C284   H292    1.077   .     S
C284   C662    1.419   1_554 S
C284   C679    1.395   1_554 S
H285   C361    1.083   1_455 S
H286   C13     1.088   1_565 S
H287   N295    1.029   .     S
H288   N296    1.025   .     S
H293   C679    1.083   1_554 S
N295   Zn306   2.023   .     S
N295   N296    1.284   .     D
N296   Zn305   2.023   .     S
O297   Zn305   1.958   .     S
O297   C309    1.279   .     S
O298   Zn306   1.980   .     S
O299   Zn305   1.998   .     S
O299   C320    1.305   .     S
O300   Zn306   1.991   .     S
O301   Zn305   1.980   .     S
O302   Zn306   1.958   .     S
O302   C366    1.279   1_455 S
O303   Zn305   1.991   .     S
O304   Zn306   1.998   .     S
O304   C367    1.294   1_455 S
F307   C326    1.355   .     S
C309   O342    1.290   .     A
C309   C319    1.404   .     S
C310   C311    1.401   .     A
C310   C708    1.418   .     S
C310   C724    1.419   .     S
C311   C318    1.409   .     A
C311   C315    1.402   .     A
C312   C316    1.379   .     A
C312   C706    1.418   1_554 S
C312   C709    1.424   1_554 S
C313   C314    1.383   .     A
C313   C324    1.400   .     A
C313   C708    1.424   .     S
C314   C315    1.378   .     A
C314   H333    1.081   .     S
C315   F352    1.348   .     S
C316   C325    1.391   .     A
C316   H335    1.075   .     S
C317   C325    1.397   .     A
C317   C720    1.387   1_554 S
C317   H373    1.083   .     S
C318   C320    1.477   .     S
C318   C326    1.402   .     A
C319   C13     1.337   1_565 S
C319   H74     1.088   1_565 S
C320   O344    1.298   .     A
C321   C322    1.404   .     S
C322   O345    1.290   .     A
C322   O390    1.279   .     S
C323   O347    1.292   .     A
C323   C325    1.437   .     S
C323   O392    1.294   .     S
C324   H334    1.084   .     S
C324   C713    1.387   .     S
C326   C327    1.392   .     A
C327   C724    1.395   .     S
C327   H733    1.083   .     S
C328   H336    1.077   .     S
C328   C706    1.419   1_554 S
C328   C723    1.395   1_554 S
H330   C57     1.088   1_565 S
H331   N339    1.029   .     S
H332   N340    1.025   .     S
H337   C723    1.083   1_554 S
N339   Zn350   2.023   .     S
N339   N340    1.284   .     D
N340   Zn349   2.023   .     S
O341   Zn349   1.958   .     S
O341   C353    1.279   .     S
O342   Zn350   1.980   .     S
O343   Zn349   1.998   .     S
O343   C364    1.305   .     S
O344   Zn350   1.991   .     S
O345   Zn349   1.980   .     S
O346   Zn350   1.958   .     S
O347   Zn349   1.991   .     S
O348   Zn350   1.998   .     S
F351   C370    1.355   .     S
C353   O386    1.290   .     A
C353   C363    1.404   .     S
C354   C355    1.401   .     A
C354   C752    1.418   .     S
C354   C768    1.419   .     S
C355   C362    1.409   .     A
C355   C359    1.402   .     A
C356   C360    1.379   .     A
C356   C750    1.418   1_554 S
C356   C753    1.424   1_554 S
C357   C358    1.383   .     A
C357   C368    1.400   .     A
C357   C752    1.424   .     S
C358   C359    1.378   .     A
C358   H377    1.081   .     S
C359   F396    1.348   .     S
C360   C369    1.391   .     A
C360   H379    1.075   .     S
C361   C369    1.397   .     A
C361   C764    1.387   1_554 S
C361   H285    1.083   1_655 S
C362   C364    1.477   .     S
C362   C370    1.402   .     A
C363   C57     1.337   1_565 S
C363   H118    1.088   1_565 S
C364   O388    1.298   .     A
C365   C366    1.404   .     S
C365   C143    1.337   1_655 S
C366   O389    1.290   .     A
C366   O302    1.279   1_655 S
C367   O391    1.292   .     A
C367   C369    1.437   .     S
C367   O304    1.294   1_655 S
C368   H378    1.084   .     S
C368   C757    1.387   .     S
C370   C371    1.392   .     A
C371   C768    1.395   .     S
C371   H777    1.083   .     S
C372   H380    1.077   .     S
C372   C750    1.419   1_554 S
C372   C767    1.395   1_554 S
H374   C101    1.088   1_565 S
H375   N383    1.029   .     S
H376   N384    1.025   .     S
H381   C767    1.083   1_554 S
N383   Zn394   2.023   .     S
N383   N384    1.284   .     D
N384   Zn393   2.023   .     S
O385   Zn393   1.958   .     S
O385   C265    1.279   1_655 S
O386   Zn394   1.980   .     S
O387   Zn393   1.998   .     S
O387   C276    1.305   1_655 S
O388   Zn394   1.991   .     S
O389   Zn393   1.980   .     S
O390   Zn394   1.958   .     S
O391   Zn393   1.991   .     S
O392   Zn394   1.998   .     S
F395   C282    1.355   1_655 S
C397   O430    1.290   .     A
C397   C407    1.404   .     S
C397   O517    1.279   1_455 S
C398   C399    1.401   .     A
C398   C4      1.418   1_556 S
C398   C20     1.419   1_556 S
C399   C406    1.409   .     A
C399   C403    1.402   .     A
C400   C404    1.379   .     A
C401   C402    1.383   .     A
C401   C412    1.400   .     A
C401   C4      1.424   1_556 S
C402   C403    1.378   .     A
C402   H421    1.081   .     S
C403   F440    1.348   .     S
C404   C413    1.391   .     A
C404   H423    1.075   .     S
C405   C413    1.397   .     A
C405   H461    1.083   .     S
C406   C408    1.477   .     S
C406   C414    1.402   .     A
C407   C629    1.337   1_455 S
C407   H558    1.088   .     S
C408   O432    1.298   .     A
C408   O519    1.305   1_455 S
C409   C410    1.404   .     S
C409   C715    1.337   1_545 S
C409   H682    1.088   1_545 S
C410   O433    1.290   .     A
C410   O478    1.279   .     S
C411   O435    1.292   .     A
C411   C413    1.437   .     S
C411   O480    1.294   .     S
C412   H422    1.084   .     S
C412   C9      1.387   1_556 S
C414   C415    1.392   .     A
C414   F527    1.355   1_455 S
C415   C20     1.395   1_556 S
C415   H29     1.083   1_556 S
C416   H424    1.077   .     S
H417   C493    1.083   1_455 S
H418   C541    1.088   .     S
H419   N427    1.029   .     S
H420   N428    1.025   .     S
H426   C671    1.088   1_545 S
N427   Zn438   2.023   .     S
N427   N428    1.284   .     D
N428   Zn437   2.023   .     S
O429   Zn437   1.958   .     S
O429   C441    1.279   .     S
O430   Zn438   1.980   .     S
O431   Zn437   1.998   .     S
O431   C452    1.305   .     S
O432   Zn438   1.991   .     S
O433   Zn437   1.980   .     S
O434   Zn438   1.958   .     S
O434   C498    1.279   1_455 S
O435   Zn437   1.991   .     S
O436   Zn438   1.998   .     S
O436   C499    1.294   1_455 S
F439   C458    1.355   .     S
C441   O474    1.290   .     A
C441   C451    1.404   .     S
C442   C443    1.401   .     A
C442   C48     1.418   1_556 S
C442   C64     1.419   1_556 S
C443   C450    1.409   .     A
C443   C447    1.402   .     A
C444   C448    1.379   .     A
C445   C446    1.383   .     A
C445   C456    1.400   .     A
C445   C48     1.424   1_556 S
C446   C447    1.378   .     A
C446   H465    1.081   .     S
C447   F484    1.348   .     S
C448   C457    1.391   .     A
C448   H467    1.075   .     S
C449   C457    1.397   .     A
C449   H505    1.083   .     S
C450   C452    1.477   .     S
C450   C458    1.402   .     A
C451   C541    1.337   .     S
C451   H602    1.088   .     S
C452   O476    1.298   .     A
C453   C454    1.404   .     S
C453   C759    1.337   1_545 S
C453   H726    1.088   1_545 S
C454   O477    1.290   .     A
C454   O522    1.279   .     S
C455   O479    1.292   .     A
C455   C457    1.437   .     S
C455   O524    1.294   .     S
C456   H466    1.084   .     S
C456   C53     1.387   1_556 S
C458   C459    1.392   .     A
C459   C64     1.395   1_556 S
C459   H73     1.083   1_556 S
C460   H468    1.077   .     S
H462   C585    1.088   .     S
H463   N471    1.029   .     S
H464   N472    1.025   .     S
H470   C715    1.088   1_545 S
N471   Zn482   2.023   .     S
N471   N472    1.284   .     D
N472   Zn481   2.023   .     S
O473   Zn481   1.958   .     S
O473   C485    1.279   .     S
O474   Zn482   1.980   .     S
O475   Zn481   1.998   .     S
O475   C496    1.305   .     S
O476   Zn482   1.991   .     S
O477   Zn481   1.980   .     S
O478   Zn482   1.958   .     S
O479   Zn481   1.991   .     S
O480   Zn482   1.998   .     S
F483   C502    1.355   .     S
C485   O518    1.290   .     A
C485   C495    1.404   .     S
C486   C487    1.401   .     A
C486   C92     1.418   1_556 S
C486   C108    1.419   1_556 S
C487   C494    1.409   .     A
C487   C491    1.402   .     A
C488   C492    1.379   .     A
C489   C490    1.383   .     A
C489   C500    1.400   .     A
C489   C92     1.424   1_556 S
C490   C491    1.378   .     A
C490   H509    1.081   .     S
C491   F528    1.348   .     S
C492   C501    1.391   .     A
C492   H511    1.075   .     S
C493   C501    1.397   .     A
C493   H417    1.083   1_655 S
C494   C496    1.477   .     S
C494   C502    1.402   .     A
C495   C585    1.337   .     S
C495   H646    1.088   .     S
C496   O520    1.298   .     A
C497   C498    1.404   .     S
C497   C671    1.337   1_645 S
C497   H770    1.088   1_545 S
C498   O521    1.290   .     A
C498   O434    1.279   1_655 S
C499   O523    1.292   .     A
C499   C501    1.437   .     S
C499   O436    1.294   1_655 S
C500   H510    1.084   .     S
C500   C97     1.387   1_556 S
C502   C503    1.392   .     A
C503   C108    1.395   1_556 S
C503   H117    1.083   1_556 S
C504   H512    1.077   .     S
H506   C629    1.088   .     S
H507   N515    1.029   .     S
H508   N516    1.025   .     S
H514   C759    1.088   1_545 S
N515   Zn526   2.023   .     S
N515   N516    1.284   .     D
N516   Zn525   2.023   .     S
O517   Zn525   1.958   .     S
O517   C397    1.279   1_655 S
O518   Zn526   1.980   .     S
O519   Zn525   1.998   .     S
O519   C408    1.305   1_655 S
O520   Zn526   1.991   .     S
O521   Zn525   1.980   .     S
O522   Zn526   1.958   .     S
O523   Zn525   1.991   .     S
O524   Zn526   1.998   .     S
F527   C414    1.355   1_655 S
C529   O562    1.290   .     A
C529   C539    1.404   .     S
C529   O649    1.279   1_455 S
C530   C531    1.401   .     A
C530   C136    1.418   1_556 S
C530   C152    1.419   1_556 S
C531   C538    1.409   .     A
C531   C535    1.402   .     A
C532   C536    1.379   .     A
C533   C534    1.383   .     A
C533   C544    1.400   .     A
C533   C136    1.424   1_556 S
C534   C535    1.378   .     A
C534   H553    1.081   .     S
C535   F572    1.348   .     S
C536   C545    1.391   .     A
C536   H555    1.075   .     S
C537   C545    1.397   .     A
C537   H593    1.083   .     S
C538   C540    1.477   .     S
C538   C546    1.402   .     A
C539   C761    1.337   1_455 S
C539   H690    1.088   .     S
C540   O564    1.298   .     A
C540   O651    1.305   1_455 S
C541   C542    1.404   .     S
C542   O565    1.290   .     A
C542   O610    1.279   .     S
C543   O567    1.292   .     A
C543   C545    1.437   .     S
C543   O612    1.294   .     S
C544   H554    1.084   .     S
C544   C141    1.387   1_556 S
C546   C547    1.392   .     A
C546   F659    1.355   1_455 S
C547   C152    1.395   1_556 S
C547   H161    1.083   1_556 S
C548   H556    1.077   .     S
H549   C625    1.083   1_455 S
H550   C673    1.088   .     S
H551   N559    1.029   .     S
H552   N560    1.025   .     S
N559   Zn570   2.023   .     S
N559   N560    1.284   .     D
N560   Zn569   2.023   .     S
O561   Zn569   1.958   .     S
O561   C573    1.279   .     S
O562   Zn570   1.980   .     S
O563   Zn569   1.998   .     S
O563   C584    1.305   .     S
O564   Zn570   1.991   .     S
O565   Zn569   1.980   .     S
O566   Zn570   1.958   .     S
O566   C630    1.279   1_455 S
O567   Zn569   1.991   .     S
O568   Zn570   1.998   .     S
O568   C631    1.294   1_455 S
F571   C590    1.355   .     S
C573   O606    1.290   .     A
C573   C583    1.404   .     S
C574   C575    1.401   .     A
C574   C180    1.418   1_556 S
C574   C196    1.419   1_556 S
C575   C582    1.409   .     A
C575   C579    1.402   .     A
C576   C580    1.379   .     A
C577   C578    1.383   .     A
C577   C588    1.400   .     A
C577   C180    1.424   1_556 S
C578   C579    1.378   .     A
C578   H597    1.081   .     S
C579   F616    1.348   .     S
C580   C589    1.391   .     A
C580   H599    1.075   .     S
C581   C589    1.397   .     A
C581   H637    1.083   .     S
C582   C584    1.477   .     S
C582   C590    1.402   .     A
C583   C673    1.337   .     S
C583   H734    1.088   .     S
C584   O608    1.298   .     A
C585   C586    1.404   .     S
C586   O609    1.290   .     A
C586   O654    1.279   .     S
C587   O611    1.292   .     A
C587   C589    1.437   .     S
C587   O656    1.294   .     S
C588   H598    1.084   .     S
C588   C185    1.387   1_556 S
C590   C591    1.392   .     A
C591   C196    1.395   1_556 S
C591   H205    1.083   1_556 S
C592   H600    1.077   .     S
H594   C717    1.088   .     S
H595   N603    1.029   .     S
H596   N604    1.025   .     S
N603   Zn614   2.023   .     S
N603   N604    1.284   .     D
N604   Zn613   2.023   .     S
O605   Zn613   1.958   .     S
O605   C617    1.279   .     S
O606   Zn614   1.980   .     S
O607   Zn613   1.998   .     S
O607   C628    1.305   .     S
O608   Zn614   1.991   .     S
O609   Zn613   1.980   .     S
O610   Zn614   1.958   .     S
O611   Zn613   1.991   .     S
O612   Zn614   1.998   .     S
F615   C634    1.355   .     S
C617   O650    1.290   .     A
C617   C627    1.404   .     S
C618   C619    1.401   .     A
C618   C224    1.418   1_556 S
C618   C240    1.419   1_556 S
C619   C626    1.409   .     A
C619   C623    1.402   .     A
C620   C624    1.379   .     A
C621   C622    1.383   .     A
C621   C632    1.400   .     A
C621   C224    1.424   1_556 S
C622   C623    1.378   .     A
C622   H641    1.081   .     S
C623   F660    1.348   .     S
C624   C633    1.391   .     A
C624   H643    1.075   .     S
C625   C633    1.397   .     A
C625   H549    1.083   1_655 S
C626   C628    1.477   .     S
C626   C634    1.402   .     A
C627   C717    1.337   .     S
C627   H778    1.088   .     S
C628   O652    1.298   .     A
C629   C630    1.404   .     S
C629   C407    1.337   1_655 S
C630   O653    1.290   .     A
C630   O566    1.279   1_655 S
C631   O655    1.292   .     A
C631   C633    1.437   .     S
C631   O568    1.294   1_655 S
C632   H642    1.084   .     S
C632   C229    1.387   1_556 S
C634   C635    1.392   .     A
C635   C240    1.395   1_556 S
C635   H249    1.083   1_556 S
C636   H644    1.077   .     S
H638   C761    1.088   .     S
H639   N647    1.029   .     S
H640   N648    1.025   .     S
N647   Zn658   2.023   .     S
N647   N648    1.284   .     D
N648   Zn657   2.023   .     S
O649   Zn657   1.958   .     S
O649   C529    1.279   1_655 S
O650   Zn658   1.980   .     S
O651   Zn657   1.998   .     S
O651   C540    1.305   1_655 S
O652   Zn658   1.991   .     S
O653   Zn657   1.980   .     S
O654   Zn658   1.958   .     S
O655   Zn657   1.991   .     S
O656   Zn658   1.998   .     S
F659   C546    1.355   1_655 S
C661   O694    1.290   .     A
C661   C671    1.404   .     S
C661   O781    1.279   1_455 S
C662   C663    1.401   .     A
C662   C268    1.418   1_556 S
C662   C284    1.419   1_556 S
C663   C670    1.409   .     A
C663   C667    1.402   .     A
C664   C668    1.379   .     A
C665   C666    1.383   .     A
C665   C676    1.400   .     A
C665   C268    1.424   1_556 S
C666   C667    1.378   .     A
C666   H685    1.081   .     S
C667   F704    1.348   .     S
C668   C677    1.391   .     A
C668   H687    1.075   .     S
C669   C677    1.397   .     A
C669   H725    1.083   .     S
C670   C672    1.477   .     S
C670   C678    1.402   .     A
C671   C497    1.337   1_465 S
C671   H426    1.088   1_565 S
C672   O696    1.298   .     A
C672   O783    1.305   1_455 S
C673   C674    1.404   .     S
C674   O697    1.290   .     A
C674   O742    1.279   .     S
C675   O699    1.292   .     A
C675   C677    1.437   .     S
C675   O744    1.294   .     S
C676   H686    1.084   .     S
C676   C273    1.387   1_556 S
C678   C679    1.392   .     A
C678   F791    1.355   1_455 S
C679   C284    1.395   1_556 S
C679   H293    1.083   1_556 S
C680   H688    1.077   .     S
H681   C757    1.083   1_455 S
H682   C409    1.088   1_565 S
H683   N691    1.029   .     S
H684   N692    1.025   .     S
N691   Zn702   2.023   .     S
N691   N692    1.284   .     D
N692   Zn701   2.023   .     S
O693   Zn701   1.958   .     S
O693   C705    1.279   .     S
O694   Zn702   1.980   .     S
O695   Zn701   1.998   .     S
O695   C716    1.305   .     S
O696   Zn702   1.991   .     S
O697   Zn701   1.980   .     S
O698   Zn702   1.958   .     S
O698   C762    1.279   1_455 S
O699   Zn701   1.991   .     S
O700   Zn702   1.998   .     S
O700   C763    1.294   1_455 S
F703   C722    1.355   .     S
C705   O738    1.290   .     A
C705   C715    1.404   .     S
C706   C707    1.401   .     A
C706   C312    1.418   1_556 S
C706   C328    1.419   1_556 S
C707   C714    1.409   .     A
C707   C711    1.402   .     A
C708   C712    1.379   .     A
C709   C710    1.383   .     A
C709   C720    1.400   .     A
C709   C312    1.424   1_556 S
C710   C711    1.378   .     A
C710   H729    1.081   .     S
C711   F748    1.348   .     S
C712   C721    1.391   .     A
C712   H731    1.075   .     S
C713   C721    1.397   .     A
C713   H769    1.083   .     S
C714   C716    1.477   .     S
C714   C722    1.402   .     A
C715   C409    1.337   1_565 S
C715   H470    1.088   1_565 S
C716   O740    1.298   .     A
C717   C718    1.404   .     S
C718   O741    1.290   .     A
C718   O786    1.279   .     S
C719   O743    1.292   .     A
C719   C721    1.437   .     S
C719   O788    1.294   .     S
C720   H730    1.084   .     S
C720   C317    1.387   1_556 S
C722   C723    1.392   .     A
C723   C328    1.395   1_556 S
C723   H337    1.083   1_556 S
C724   H732    1.077   .     S
H726   C453    1.088   1_565 S
H727   N735    1.029   .     S
H728   N736    1.025   .     S
N735   Zn746   2.023   .     S
N735   N736    1.284   .     D
N736   Zn745   2.023   .     S
O737   Zn745   1.958   .     S
O737   C749    1.279   .     S
O738   Zn746   1.980   .     S
O739   Zn745   1.998   .     S
O739   C760    1.305   .     S
O740   Zn746   1.991   .     S
O741   Zn745   1.980   .     S
O742   Zn746   1.958   .     S
O743   Zn745   1.991   .     S
O744   Zn746   1.998   .     S
F747   C766    1.355   .     S
C749   O782    1.290   .     A
C749   C759    1.404   .     S
C750   C751    1.401   .     A
C750   C356    1.418   1_556 S
C750   C372    1.419   1_556 S
C751   C758    1.409   .     A
C751   C755    1.402   .     A
C752   C756    1.379   .     A
C753   C754    1.383   .     A
C753   C764    1.400   .     A
C753   C356    1.424   1_556 S
C754   C755    1.378   .     A
C754   H773    1.081   .     S
C755   F792    1.348   .     S
C756   C765    1.391   .     A
C756   H775    1.075   .     S
C757   C765    1.397   .     A
C757   H681    1.083   1_655 S
C758   C760    1.477   .     S
C758   C766    1.402   .     A
C759   C453    1.337   1_565 S
C759   H514    1.088   1_565 S
C760   O784    1.298   .     A
C761   C762    1.404   .     S
C761   C539    1.337   1_655 S
C762   O785    1.290   .     A
C762   O698    1.279   1_655 S
C763   O787    1.292   .     A
C763   C765    1.437   .     S
C763   O700    1.294   1_655 S
C764   H774    1.084   .     S
C764   C361    1.387   1_556 S
C766   C767    1.392   .     A
C767   C372    1.395   1_556 S
C767   H381    1.083   1_556 S
C768   H776    1.077   .     S
H770   C497    1.088   1_565 S
H771   N779    1.029   .     S
H772   N780    1.025   .     S
N779   Zn790   2.023   .     S
N779   N780    1.284   .     D
N780   Zn789   2.023   .     S
O781   Zn789   1.958   .     S
O781   C661    1.279   1_655 S
O782   Zn790   1.980   .     S
O783   Zn789   1.998   .     S
O783   C672    1.305   1_655 S
O784   Zn790   1.991   .     S
O785   Zn789   1.980   .     S
O786   Zn790   1.958   .     S
O787   Zn789   1.991   .     S
O788   Zn790   1.998   .     S
F791   C678    1.355   1_655 S
