data_str_m3_o2_o10_pcu_sym.53
_audit_creation_date              2020-01-03
_audit_creation_method            'Materials Studio'
_symmetry_space_group_name_H-M    'P1'
_symmetry_Int_Tables_number       1
_symmetry_cell_setting            triclinic
loop_
_symmetry_equiv_pos_as_xyz
  x,y,z
_cell_length_a                    25.7494
_cell_length_b                    29.9711
_cell_length_c                    28.4918
_cell_angle_alpha                 89.0774
_cell_angle_beta                  98.0379
_cell_angle_gamma                 91.4153
loop_
_atom_site_label
_atom_site_type_symbol
_atom_site_fract_x
_atom_site_fract_y
_atom_site_fract_z
_atom_site_U_iso_or_equiv
_atom_site_adp_type
_atom_site_occupancy
C1     C     0.16602   0.16394   0.25022   0.00000  Uiso   1.00
C2     C     0.15180   0.20980   0.44611   0.00000  Uiso   1.00
C3     C     0.16859   0.24909   0.02691   0.00000  Uiso   1.00
C4     C     0.16750   0.24830   0.47349   0.00000  Uiso   1.00
C5     C     0.06714   0.24934   0.23773   0.00000  Uiso   1.00
C6     C     0.26620   0.24981   0.26232   0.00000  Uiso   1.00
C7     C     0.01221   0.24746   0.23118   0.00000  Uiso   1.00
C8     C     0.32116   0.25007   0.26903   0.00000  Uiso   1.00
C9     C     0.17716   0.04585   0.29094   0.00000  Uiso   1.00
C10    C     0.17000   0.45470   0.20944   0.00000  Uiso   1.00
C11    C     0.18067   0.09190   0.29132   0.00000  Uiso   1.00
C12    C     0.16580   0.33611   0.24962   0.00000  Uiso   1.00
C13    C     0.17328   0.40877   0.20949   0.00000  Uiso   1.00
C14    C     0.16208   0.11605   0.25029   0.00000  Uiso   1.00
C15    C     0.16153   0.38398   0.24880   0.00000  Uiso   1.00
C16    C     0.13869   0.09432   0.20932   0.00000  Uiso   1.00
C17    C     0.14472   0.40510   0.28735   0.00000  Uiso   1.00
C18    C     0.13451   0.04833   0.20915   0.00000  Uiso   1.00
C19    C     0.14070   0.45093   0.28699   0.00000  Uiso   1.00
C20    C     0.15439   0.02402   0.24974   0.00000  Uiso   1.00
C21    C     0.15411   0.47583   0.24837   0.00000  Uiso   1.00
C22    C     0.26606   0.27411   0.04108   0.00000  Uiso   1.00
C23    C     0.12388   0.23512   0.04727   0.00000  Uiso   1.00
C24    C     0.28862   0.23317   0.02066   0.00000  Uiso   1.00
C25    C     0.14304   0.16430   0.46923   0.00000  Uiso   1.00
C26    C     0.19250   0.14708   0.49930   0.00000  Uiso   1.00
C27    C     0.18164   0.28703   0.44894   0.00000  Uiso   1.00
C28    C     0.12489   0.23316   0.09675   0.00000  Uiso   1.00
C29    C     0.18429   0.28627   0.39997   0.00000  Uiso   1.00
C30    C     0.20806   0.26959   0.10699   0.00000  Uiso   1.00
C31    C     0.14536   0.21399   0.39574   0.00000  Uiso   1.00
C32    C     0.21316   0.26431   0.05822   0.00000  Uiso   1.00
H33    H     0.32532   0.24391   0.19525   0.00000  Uiso   1.00
H34    H     0.12761   0.46698   0.31692   0.00000  Uiso   1.00
H35    H     0.08814   0.22531   0.02496   0.00000  Uiso   1.00
H36    H     0.19111   0.31795   0.46760   0.00000  Uiso   1.00
H37    H     0.09103   0.22004   0.11143   0.00000  Uiso   1.00
H38    H     0.19815   0.31568   0.38260   0.00000  Uiso   1.00
H39    H     0.29019   0.20482   0.04636   0.00000  Uiso   1.00
H40    H     0.26552   0.22329   0.48658   0.00000  Uiso   1.00
H41    H     0.32912   0.24121   0.01359   0.00000  Uiso   1.00
H42    H     0.26361   0.30196   0.01503   0.00000  Uiso   1.00
H43    H     0.29629   0.28480   0.07039   0.00000  Uiso   1.00
H44    H     0.00810   0.25312   0.30503   0.00000  Uiso   1.00
H45    H     0.22584   0.14788   0.47841   0.00000  Uiso   1.00
H46    H     0.20283   0.16677   0.03194   0.00000  Uiso   1.00
H47    H     0.18554   0.11198   0.01035   0.00000  Uiso   1.00
H48    H     0.11038   0.16484   0.49057   0.00000  Uiso   1.00
H49    H     0.13176   0.13829   0.44245   0.00000  Uiso   1.00
H50    H     0.19339   0.02729   0.32230   0.00000  Uiso   1.00
H51    H     0.18113   0.47375   0.17964   0.00000  Uiso   1.00
H52    H     0.19882   0.10855   0.32314   0.00000  Uiso   1.00
H53    H     0.18591   0.39288   0.17933   0.00000  Uiso   1.00
H54    H     0.12331   0.11286   0.17765   0.00000  Uiso   1.00
H55    H     0.13450   0.38626   0.31765   0.00000  Uiso   1.00
H56    H     0.11617   0.03172   0.17738   0.00000  Uiso   1.00
I57    I     0.25659   0.31940   0.14560   0.00000  Uiso   1.00
I58    I     0.08851   0.17091   0.35599   0.00000  Uiso   1.00
N59    N     0.16667   0.24999   0.12624   0.00000  Uiso   1.00
N60    N     0.16667   0.25001   0.37377   0.00000  Uiso   1.00
O61    O     0.16667   0.18453   0.28974   0.00000  Uiso   1.00
O62    O     0.16666   0.31546   0.21026   0.00000  Uiso   1.00
O63    O     0.16667   0.18453   0.21026   0.00000  Uiso   1.00
O64    O     0.16666   0.31547   0.28974   0.00000  Uiso   1.00
O65    O     0.09058   0.25000   0.28045   0.00000  Uiso   1.00
O66    O     0.24275   0.25000   0.21956   0.00000  Uiso   1.00
O67    O     0.09058   0.24999   0.20097   0.00000  Uiso   1.00
O68    O     0.24275   0.25000   0.29904   0.00000  Uiso   1.00
Zn69   Zn    0.16667   0.25000   0.30307   0.00000  Uiso   1.00
Zn70   Zn    0.16667   0.24999   0.19693   0.00000  Uiso   1.00
C71    C     0.49935   0.16394   0.25022   0.00000  Uiso   1.00
C72    C     0.48513   0.20980   0.44611   0.00000  Uiso   1.00
C73    C     0.50193   0.24909   0.02691   0.00000  Uiso   1.00
C74    C     0.50084   0.24830   0.47349   0.00000  Uiso   1.00
C75    C     0.40047   0.24934   0.23773   0.00000  Uiso   1.00
C76    C     0.59954   0.24981   0.26232   0.00000  Uiso   1.00
C77    C     0.34554   0.24746   0.23118   0.00000  Uiso   1.00
C78    C     0.65449   0.25007   0.26903   0.00000  Uiso   1.00
C79    C     0.51049   0.04585   0.29094   0.00000  Uiso   1.00
C80    C     0.50333   0.45470   0.20944   0.00000  Uiso   1.00
C81    C     0.51400   0.09190   0.29132   0.00000  Uiso   1.00
C82    C     0.49913   0.33611   0.24962   0.00000  Uiso   1.00
C83    C     0.50661   0.40877   0.20949   0.00000  Uiso   1.00
C84    C     0.49541   0.11605   0.25029   0.00000  Uiso   1.00
C85    C     0.49486   0.38398   0.24880   0.00000  Uiso   1.00
C86    C     0.47202   0.09432   0.20932   0.00000  Uiso   1.00
C87    C     0.47805   0.40510   0.28735   0.00000  Uiso   1.00
C88    C     0.46784   0.04833   0.20915   0.00000  Uiso   1.00
C89    C     0.47403   0.45093   0.28699   0.00000  Uiso   1.00
C90    C     0.48772   0.02402   0.24974   0.00000  Uiso   1.00
C91    C     0.48744   0.47583   0.24837   0.00000  Uiso   1.00
C92    C     0.59939   0.27411   0.04108   0.00000  Uiso   1.00
C93    C     0.45722   0.23512   0.04727   0.00000  Uiso   1.00
C94    C     0.62196   0.23317   0.02066   0.00000  Uiso   1.00
C95    C     0.47637   0.16430   0.46923   0.00000  Uiso   1.00
C96    C     0.52583   0.14708   0.49930   0.00000  Uiso   1.00
C97    C     0.51497   0.28703   0.44894   0.00000  Uiso   1.00
C98    C     0.45823   0.23316   0.09675   0.00000  Uiso   1.00
C99    C     0.51762   0.28627   0.39997   0.00000  Uiso   1.00
C100   C     0.54139   0.26959   0.10699   0.00000  Uiso   1.00
C101   C     0.47869   0.21399   0.39574   0.00000  Uiso   1.00
C102   C     0.54649   0.26431   0.05822   0.00000  Uiso   1.00
H103   H     0.65866   0.24391   0.19525   0.00000  Uiso   1.00
H104   H     0.46094   0.46698   0.31692   0.00000  Uiso   1.00
H105   H     0.42147   0.22531   0.02496   0.00000  Uiso   1.00
H106   H     0.52445   0.31795   0.46760   0.00000  Uiso   1.00
H107   H     0.42436   0.22004   0.11143   0.00000  Uiso   1.00
H108   H     0.53148   0.31568   0.38260   0.00000  Uiso   1.00
H109   H     0.62352   0.20482   0.04636   0.00000  Uiso   1.00
H110   H     0.59885   0.22329   0.48658   0.00000  Uiso   1.00
H111   H     0.66245   0.24121   0.01359   0.00000  Uiso   1.00
H112   H     0.59695   0.30196   0.01503   0.00000  Uiso   1.00
H113   H     0.62963   0.28480   0.07039   0.00000  Uiso   1.00
H114   H     0.34143   0.25312   0.30503   0.00000  Uiso   1.00
H115   H     0.55917   0.14788   0.47841   0.00000  Uiso   1.00
H116   H     0.53616   0.16677   0.03194   0.00000  Uiso   1.00
H117   H     0.51887   0.11198   0.01035   0.00000  Uiso   1.00
H118   H     0.44371   0.16484   0.49057   0.00000  Uiso   1.00
H119   H     0.46509   0.13829   0.44245   0.00000  Uiso   1.00
H120   H     0.52673   0.02729   0.32230   0.00000  Uiso   1.00
H121   H     0.51446   0.47375   0.17964   0.00000  Uiso   1.00
H122   H     0.53215   0.10855   0.32314   0.00000  Uiso   1.00
H123   H     0.51924   0.39288   0.17933   0.00000  Uiso   1.00
H124   H     0.45664   0.11286   0.17765   0.00000  Uiso   1.00
H125   H     0.46783   0.38626   0.31765   0.00000  Uiso   1.00
H126   H     0.44950   0.03172   0.17738   0.00000  Uiso   1.00
I127   I     0.58993   0.31940   0.14560   0.00000  Uiso   1.00
I128   I     0.42184   0.17091   0.35599   0.00000  Uiso   1.00
N129   N     0.50000   0.24999   0.12624   0.00000  Uiso   1.00
N130   N     0.50000   0.25001   0.37377   0.00000  Uiso   1.00
O131   O     0.50000   0.18453   0.28974   0.00000  Uiso   1.00
O132   O     0.50000   0.31546   0.21026   0.00000  Uiso   1.00
O133   O     0.50000   0.18453   0.21026   0.00000  Uiso   1.00
O134   O     0.50000   0.31547   0.28974   0.00000  Uiso   1.00
O135   O     0.42392   0.25000   0.28045   0.00000  Uiso   1.00
O136   O     0.57608   0.25000   0.21956   0.00000  Uiso   1.00
O137   O     0.42392   0.24999   0.20097   0.00000  Uiso   1.00
O138   O     0.57608   0.25000   0.29904   0.00000  Uiso   1.00
Zn139  Zn    0.50000   0.25000   0.30307   0.00000  Uiso   1.00
Zn140  Zn    0.50000   0.24999   0.19693   0.00000  Uiso   1.00
C141   C     0.83268   0.16394   0.25022   0.00000  Uiso   1.00
C142   C     0.81846   0.20980   0.44611   0.00000  Uiso   1.00
C143   C     0.83526   0.24909   0.02691   0.00000  Uiso   1.00
C144   C     0.83417   0.24830   0.47349   0.00000  Uiso   1.00
C145   C     0.73380   0.24934   0.23773   0.00000  Uiso   1.00
C146   C     0.93287   0.24981   0.26232   0.00000  Uiso   1.00
C147   C     0.67888   0.24746   0.23118   0.00000  Uiso   1.00
C148   C     0.98782   0.25007   0.26903   0.00000  Uiso   1.00
C149   C     0.84383   0.04585   0.29094   0.00000  Uiso   1.00
C150   C     0.83666   0.45470   0.20944   0.00000  Uiso   1.00
C151   C     0.84733   0.09190   0.29132   0.00000  Uiso   1.00
C152   C     0.83246   0.33611   0.24962   0.00000  Uiso   1.00
C153   C     0.83995   0.40877   0.20949   0.00000  Uiso   1.00
C154   C     0.82875   0.11605   0.25029   0.00000  Uiso   1.00
C155   C     0.82820   0.38398   0.24880   0.00000  Uiso   1.00
C156   C     0.80535   0.09432   0.20932   0.00000  Uiso   1.00
C157   C     0.81138   0.40510   0.28735   0.00000  Uiso   1.00
C158   C     0.80117   0.04833   0.20915   0.00000  Uiso   1.00
C159   C     0.80736   0.45093   0.28699   0.00000  Uiso   1.00
C160   C     0.82106   0.02402   0.24974   0.00000  Uiso   1.00
C161   C     0.82078   0.47583   0.24837   0.00000  Uiso   1.00
C162   C     0.93273   0.27411   0.04108   0.00000  Uiso   1.00
C163   C     0.79055   0.23512   0.04727   0.00000  Uiso   1.00
C164   C     0.95529   0.23317   0.02066   0.00000  Uiso   1.00
C165   C     0.80971   0.16430   0.46923   0.00000  Uiso   1.00
C166   C     0.85916   0.14708   0.49930   0.00000  Uiso   1.00
C167   C     0.84831   0.28703   0.44894   0.00000  Uiso   1.00
C168   C     0.79156   0.23316   0.09675   0.00000  Uiso   1.00
C169   C     0.85096   0.28627   0.39997   0.00000  Uiso   1.00
C170   C     0.87472   0.26959   0.10699   0.00000  Uiso   1.00
C171   C     0.81203   0.21399   0.39574   0.00000  Uiso   1.00
C172   C     0.87982   0.26431   0.05822   0.00000  Uiso   1.00
H173   H     0.99199   0.24391   0.19525   0.00000  Uiso   1.00
H174   H     0.79427   0.46698   0.31692   0.00000  Uiso   1.00
H175   H     0.75480   0.22531   0.02496   0.00000  Uiso   1.00
H176   H     0.85778   0.31795   0.46760   0.00000  Uiso   1.00
H177   H     0.75769   0.22004   0.11143   0.00000  Uiso   1.00
H178   H     0.86481   0.31568   0.38260   0.00000  Uiso   1.00
H179   H     0.95685   0.20482   0.04636   0.00000  Uiso   1.00
H180   H     0.93218   0.22329   0.48658   0.00000  Uiso   1.00
H181   H     0.99578   0.24121   0.01359   0.00000  Uiso   1.00
H182   H     0.93028   0.30196   0.01503   0.00000  Uiso   1.00
H183   H     0.96296   0.28480   0.07039   0.00000  Uiso   1.00
H184   H     0.67476   0.25312   0.30503   0.00000  Uiso   1.00
H185   H     0.89251   0.14788   0.47841   0.00000  Uiso   1.00
H186   H     0.86950   0.16677   0.03194   0.00000  Uiso   1.00
H187   H     0.85221   0.11198   0.01035   0.00000  Uiso   1.00
H188   H     0.77704   0.16484   0.49057   0.00000  Uiso   1.00
H189   H     0.79842   0.13829   0.44245   0.00000  Uiso   1.00
H190   H     0.86006   0.02729   0.32230   0.00000  Uiso   1.00
H191   H     0.84780   0.47375   0.17964   0.00000  Uiso   1.00
H192   H     0.86549   0.10855   0.32314   0.00000  Uiso   1.00
H193   H     0.85257   0.39288   0.17933   0.00000  Uiso   1.00
H194   H     0.78998   0.11286   0.17765   0.00000  Uiso   1.00
H195   H     0.80117   0.38626   0.31765   0.00000  Uiso   1.00
H196   H     0.78284   0.03172   0.17738   0.00000  Uiso   1.00
I197   I     0.92326   0.31940   0.14560   0.00000  Uiso   1.00
I198   I     0.75517   0.17091   0.35599   0.00000  Uiso   1.00
N199   N     0.83333   0.24999   0.12624   0.00000  Uiso   1.00
N200   N     0.83333   0.25001   0.37377   0.00000  Uiso   1.00
O201   O     0.83334   0.18453   0.28974   0.00000  Uiso   1.00
O202   O     0.83333   0.31546   0.21026   0.00000  Uiso   1.00
O203   O     0.83334   0.18453   0.21026   0.00000  Uiso   1.00
O204   O     0.83333   0.31547   0.28974   0.00000  Uiso   1.00
O205   O     0.75725   0.25000   0.28045   0.00000  Uiso   1.00
O206   O     0.90942   0.25000   0.21956   0.00000  Uiso   1.00
O207   O     0.75725   0.24999   0.20097   0.00000  Uiso   1.00
O208   O     0.90942   0.25000   0.29904   0.00000  Uiso   1.00
Zn209  Zn    0.83333   0.25000   0.30307   0.00000  Uiso   1.00
Zn210  Zn    0.83333   0.24999   0.19693   0.00000  Uiso   1.00
C211   C     0.16602   0.66394   0.25022   0.00000  Uiso   1.00
C212   C     0.15180   0.70980   0.44611   0.00000  Uiso   1.00
C213   C     0.16859   0.74909   0.02691   0.00000  Uiso   1.00
C214   C     0.16750   0.74830   0.47349   0.00000  Uiso   1.00
C215   C     0.06714   0.74934   0.23773   0.00000  Uiso   1.00
C216   C     0.26620   0.74981   0.26232   0.00000  Uiso   1.00
C217   C     0.01221   0.74746   0.23118   0.00000  Uiso   1.00
C218   C     0.32116   0.75007   0.26903   0.00000  Uiso   1.00
C219   C     0.17716   0.54585   0.29094   0.00000  Uiso   1.00
C220   C     0.17000   0.95470   0.20944   0.00000  Uiso   1.00
C221   C     0.18067   0.59190   0.29132   0.00000  Uiso   1.00
C222   C     0.16580   0.83611   0.24962   0.00000  Uiso   1.00
C223   C     0.17328   0.90877   0.20949   0.00000  Uiso   1.00
C224   C     0.16208   0.61605   0.25029   0.00000  Uiso   1.00
C225   C     0.16153   0.88398   0.24880   0.00000  Uiso   1.00
C226   C     0.13869   0.59432   0.20932   0.00000  Uiso   1.00
C227   C     0.14472   0.90510   0.28735   0.00000  Uiso   1.00
C228   C     0.13451   0.54833   0.20915   0.00000  Uiso   1.00
C229   C     0.14070   0.95093   0.28699   0.00000  Uiso   1.00
C230   C     0.15439   0.52402   0.24974   0.00000  Uiso   1.00
C231   C     0.15411   0.97583   0.24837   0.00000  Uiso   1.00
C232   C     0.26606   0.77411   0.04108   0.00000  Uiso   1.00
C233   C     0.12388   0.73512   0.04727   0.00000  Uiso   1.00
C234   C     0.28862   0.73317   0.02066   0.00000  Uiso   1.00
C235   C     0.14304   0.66430   0.46923   0.00000  Uiso   1.00
C236   C     0.19250   0.64708   0.49930   0.00000  Uiso   1.00
C237   C     0.18164   0.78703   0.44894   0.00000  Uiso   1.00
C238   C     0.12489   0.73316   0.09675   0.00000  Uiso   1.00
C239   C     0.18429   0.78627   0.39997   0.00000  Uiso   1.00
C240   C     0.20806   0.76959   0.10699   0.00000  Uiso   1.00
C241   C     0.14536   0.71399   0.39574   0.00000  Uiso   1.00
C242   C     0.21316   0.76431   0.05822   0.00000  Uiso   1.00
H243   H     0.32532   0.74391   0.19525   0.00000  Uiso   1.00
H244   H     0.12761   0.96698   0.31692   0.00000  Uiso   1.00
H245   H     0.08814   0.72531   0.02496   0.00000  Uiso   1.00
H246   H     0.19111   0.81795   0.46760   0.00000  Uiso   1.00
H247   H     0.09103   0.72004   0.11143   0.00000  Uiso   1.00
H248   H     0.19815   0.81568   0.38260   0.00000  Uiso   1.00
H249   H     0.29019   0.70482   0.04636   0.00000  Uiso   1.00
H250   H     0.26552   0.72329   0.48658   0.00000  Uiso   1.00
H251   H     0.32912   0.74121   0.01359   0.00000  Uiso   1.00
H252   H     0.26361   0.80196   0.01503   0.00000  Uiso   1.00
H253   H     0.29629   0.78480   0.07039   0.00000  Uiso   1.00
H254   H     0.00810   0.75312   0.30503   0.00000  Uiso   1.00
H255   H     0.22584   0.64788   0.47841   0.00000  Uiso   1.00
H256   H     0.20283   0.66677   0.03194   0.00000  Uiso   1.00
H257   H     0.18554   0.61198   0.01035   0.00000  Uiso   1.00
H258   H     0.11038   0.66484   0.49057   0.00000  Uiso   1.00
H259   H     0.13176   0.63829   0.44245   0.00000  Uiso   1.00
H260   H     0.19339   0.52729   0.32230   0.00000  Uiso   1.00
H261   H     0.18113   0.97375   0.17964   0.00000  Uiso   1.00
H262   H     0.19882   0.60855   0.32314   0.00000  Uiso   1.00
H263   H     0.18591   0.89288   0.17933   0.00000  Uiso   1.00
H264   H     0.12331   0.61286   0.17765   0.00000  Uiso   1.00
H265   H     0.13450   0.88626   0.31765   0.00000  Uiso   1.00
H266   H     0.11617   0.53172   0.17738   0.00000  Uiso   1.00
I267   I     0.25659   0.81940   0.14560   0.00000  Uiso   1.00
I268   I     0.08851   0.67091   0.35599   0.00000  Uiso   1.00
N269   N     0.16667   0.74999   0.12624   0.00000  Uiso   1.00
N270   N     0.16667   0.75001   0.37377   0.00000  Uiso   1.00
O271   O     0.16667   0.68453   0.28974   0.00000  Uiso   1.00
O272   O     0.16666   0.81546   0.21026   0.00000  Uiso   1.00
O273   O     0.16667   0.68453   0.21026   0.00000  Uiso   1.00
O274   O     0.16666   0.81547   0.28974   0.00000  Uiso   1.00
O275   O     0.09058   0.75000   0.28045   0.00000  Uiso   1.00
O276   O     0.24275   0.75000   0.21956   0.00000  Uiso   1.00
O277   O     0.09058   0.74999   0.20097   0.00000  Uiso   1.00
O278   O     0.24275   0.75000   0.29904   0.00000  Uiso   1.00
Zn279  Zn    0.16667   0.75000   0.30307   0.00000  Uiso   1.00
Zn280  Zn    0.16667   0.74999   0.19693   0.00000  Uiso   1.00
C281   C     0.49935   0.66394   0.25022   0.00000  Uiso   1.00
C282   C     0.48513   0.70980   0.44611   0.00000  Uiso   1.00
C283   C     0.50193   0.74909   0.02691   0.00000  Uiso   1.00
C284   C     0.50084   0.74830   0.47349   0.00000  Uiso   1.00
C285   C     0.40047   0.74934   0.23773   0.00000  Uiso   1.00
C286   C     0.59954   0.74981   0.26232   0.00000  Uiso   1.00
C287   C     0.34554   0.74746   0.23118   0.00000  Uiso   1.00
C288   C     0.65449   0.75007   0.26903   0.00000  Uiso   1.00
C289   C     0.51049   0.54585   0.29094   0.00000  Uiso   1.00
C290   C     0.50333   0.95470   0.20944   0.00000  Uiso   1.00
C291   C     0.51400   0.59190   0.29132   0.00000  Uiso   1.00
C292   C     0.49913   0.83611   0.24962   0.00000  Uiso   1.00
C293   C     0.50661   0.90877   0.20949   0.00000  Uiso   1.00
C294   C     0.49541   0.61605   0.25029   0.00000  Uiso   1.00
C295   C     0.49486   0.88398   0.24880   0.00000  Uiso   1.00
C296   C     0.47202   0.59432   0.20932   0.00000  Uiso   1.00
C297   C     0.47805   0.90510   0.28735   0.00000  Uiso   1.00
C298   C     0.46784   0.54833   0.20915   0.00000  Uiso   1.00
C299   C     0.47403   0.95093   0.28699   0.00000  Uiso   1.00
C300   C     0.48772   0.52402   0.24974   0.00000  Uiso   1.00
C301   C     0.48744   0.97583   0.24837   0.00000  Uiso   1.00
C302   C     0.59939   0.77411   0.04108   0.00000  Uiso   1.00
C303   C     0.45722   0.73512   0.04727   0.00000  Uiso   1.00
C304   C     0.62196   0.73317   0.02066   0.00000  Uiso   1.00
C305   C     0.47637   0.66430   0.46923   0.00000  Uiso   1.00
C306   C     0.52583   0.64708   0.49930   0.00000  Uiso   1.00
C307   C     0.51497   0.78703   0.44894   0.00000  Uiso   1.00
C308   C     0.45823   0.73316   0.09675   0.00000  Uiso   1.00
C309   C     0.51762   0.78627   0.39997   0.00000  Uiso   1.00
C310   C     0.54139   0.76959   0.10699   0.00000  Uiso   1.00
C311   C     0.47869   0.71399   0.39574   0.00000  Uiso   1.00
C312   C     0.54649   0.76431   0.05822   0.00000  Uiso   1.00
H313   H     0.65866   0.74391   0.19525   0.00000  Uiso   1.00
H314   H     0.46094   0.96698   0.31692   0.00000  Uiso   1.00
H315   H     0.42147   0.72531   0.02496   0.00000  Uiso   1.00
H316   H     0.52445   0.81795   0.46760   0.00000  Uiso   1.00
H317   H     0.42436   0.72004   0.11143   0.00000  Uiso   1.00
H318   H     0.53148   0.81568   0.38260   0.00000  Uiso   1.00
H319   H     0.62352   0.70482   0.04636   0.00000  Uiso   1.00
H320   H     0.59885   0.72329   0.48658   0.00000  Uiso   1.00
H321   H     0.66245   0.74121   0.01359   0.00000  Uiso   1.00
H322   H     0.59695   0.80196   0.01503   0.00000  Uiso   1.00
H323   H     0.62963   0.78480   0.07039   0.00000  Uiso   1.00
H324   H     0.34143   0.75312   0.30503   0.00000  Uiso   1.00
H325   H     0.55917   0.64788   0.47841   0.00000  Uiso   1.00
H326   H     0.53616   0.66677   0.03194   0.00000  Uiso   1.00
H327   H     0.51887   0.61198   0.01035   0.00000  Uiso   1.00
H328   H     0.44371   0.66484   0.49057   0.00000  Uiso   1.00
H329   H     0.46509   0.63829   0.44245   0.00000  Uiso   1.00
H330   H     0.52673   0.52729   0.32230   0.00000  Uiso   1.00
H331   H     0.51446   0.97375   0.17964   0.00000  Uiso   1.00
H332   H     0.53215   0.60855   0.32314   0.00000  Uiso   1.00
H333   H     0.51924   0.89288   0.17933   0.00000  Uiso   1.00
H334   H     0.45664   0.61286   0.17765   0.00000  Uiso   1.00
H335   H     0.46783   0.88626   0.31765   0.00000  Uiso   1.00
H336   H     0.44950   0.53172   0.17738   0.00000  Uiso   1.00
I337   I     0.58993   0.81940   0.14560   0.00000  Uiso   1.00
I338   I     0.42184   0.67091   0.35599   0.00000  Uiso   1.00
N339   N     0.50000   0.74999   0.12624   0.00000  Uiso   1.00
N340   N     0.50000   0.75001   0.37377   0.00000  Uiso   1.00
O341   O     0.50000   0.68453   0.28974   0.00000  Uiso   1.00
O342   O     0.50000   0.81546   0.21026   0.00000  Uiso   1.00
O343   O     0.50000   0.68453   0.21026   0.00000  Uiso   1.00
O344   O     0.50000   0.81547   0.28974   0.00000  Uiso   1.00
O345   O     0.42392   0.75000   0.28045   0.00000  Uiso   1.00
O346   O     0.57608   0.75000   0.21956   0.00000  Uiso   1.00
O347   O     0.42392   0.74999   0.20097   0.00000  Uiso   1.00
O348   O     0.57608   0.75000   0.29904   0.00000  Uiso   1.00
Zn349  Zn    0.50000   0.75000   0.30307   0.00000  Uiso   1.00
Zn350  Zn    0.50000   0.74999   0.19693   0.00000  Uiso   1.00
C351   C     0.83268   0.66394   0.25022   0.00000  Uiso   1.00
C352   C     0.81846   0.70980   0.44611   0.00000  Uiso   1.00
C353   C     0.83526   0.74909   0.02691   0.00000  Uiso   1.00
C354   C     0.83417   0.74830   0.47349   0.00000  Uiso   1.00
C355   C     0.73380   0.74934   0.23773   0.00000  Uiso   1.00
C356   C     0.93287   0.74981   0.26232   0.00000  Uiso   1.00
C357   C     0.67888   0.74746   0.23118   0.00000  Uiso   1.00
C358   C     0.98782   0.75007   0.26903   0.00000  Uiso   1.00
C359   C     0.84383   0.54585   0.29094   0.00000  Uiso   1.00
C360   C     0.83666   0.95470   0.20944   0.00000  Uiso   1.00
C361   C     0.84733   0.59190   0.29132   0.00000  Uiso   1.00
C362   C     0.83246   0.83611   0.24962   0.00000  Uiso   1.00
C363   C     0.83995   0.90877   0.20949   0.00000  Uiso   1.00
C364   C     0.82875   0.61605   0.25029   0.00000  Uiso   1.00
C365   C     0.82820   0.88398   0.24880   0.00000  Uiso   1.00
C366   C     0.80535   0.59432   0.20932   0.00000  Uiso   1.00
C367   C     0.81138   0.90510   0.28735   0.00000  Uiso   1.00
C368   C     0.80117   0.54833   0.20915   0.00000  Uiso   1.00
C369   C     0.80736   0.95093   0.28699   0.00000  Uiso   1.00
C370   C     0.82106   0.52402   0.24974   0.00000  Uiso   1.00
C371   C     0.82078   0.97583   0.24837   0.00000  Uiso   1.00
C372   C     0.93273   0.77411   0.04108   0.00000  Uiso   1.00
C373   C     0.79055   0.73512   0.04727   0.00000  Uiso   1.00
C374   C     0.95529   0.73317   0.02066   0.00000  Uiso   1.00
C375   C     0.80971   0.66430   0.46923   0.00000  Uiso   1.00
C376   C     0.85916   0.64708   0.49930   0.00000  Uiso   1.00
C377   C     0.84831   0.78703   0.44894   0.00000  Uiso   1.00
C378   C     0.79156   0.73316   0.09675   0.00000  Uiso   1.00
C379   C     0.85096   0.78627   0.39997   0.00000  Uiso   1.00
C380   C     0.87472   0.76959   0.10699   0.00000  Uiso   1.00
C381   C     0.81203   0.71399   0.39574   0.00000  Uiso   1.00
C382   C     0.87982   0.76431   0.05822   0.00000  Uiso   1.00
H383   H     0.99199   0.74391   0.19525   0.00000  Uiso   1.00
H384   H     0.79427   0.96698   0.31692   0.00000  Uiso   1.00
H385   H     0.75480   0.72531   0.02496   0.00000  Uiso   1.00
H386   H     0.85778   0.81795   0.46760   0.00000  Uiso   1.00
H387   H     0.75769   0.72004   0.11143   0.00000  Uiso   1.00
H388   H     0.86481   0.81568   0.38260   0.00000  Uiso   1.00
H389   H     0.95685   0.70482   0.04636   0.00000  Uiso   1.00
H390   H     0.93218   0.72329   0.48658   0.00000  Uiso   1.00
H391   H     0.99578   0.74121   0.01359   0.00000  Uiso   1.00
H392   H     0.93028   0.80196   0.01503   0.00000  Uiso   1.00
H393   H     0.96296   0.78480   0.07039   0.00000  Uiso   1.00
H394   H     0.67476   0.75312   0.30503   0.00000  Uiso   1.00
H395   H     0.89251   0.64788   0.47841   0.00000  Uiso   1.00
H396   H     0.86950   0.66677   0.03194   0.00000  Uiso   1.00
H397   H     0.85221   0.61198   0.01035   0.00000  Uiso   1.00
H398   H     0.77704   0.66484   0.49057   0.00000  Uiso   1.00
H399   H     0.79842   0.63829   0.44245   0.00000  Uiso   1.00
H400   H     0.86006   0.52729   0.32230   0.00000  Uiso   1.00
H401   H     0.84780   0.97375   0.17964   0.00000  Uiso   1.00
H402   H     0.86549   0.60855   0.32314   0.00000  Uiso   1.00
H403   H     0.85257   0.89288   0.17933   0.00000  Uiso   1.00
H404   H     0.78998   0.61286   0.17765   0.00000  Uiso   1.00
H405   H     0.80117   0.88626   0.31765   0.00000  Uiso   1.00
H406   H     0.78284   0.53172   0.17738   0.00000  Uiso   1.00
I407   I     0.92326   0.81940   0.14560   0.00000  Uiso   1.00
I408   I     0.75517   0.67091   0.35599   0.00000  Uiso   1.00
N409   N     0.83333   0.74999   0.12624   0.00000  Uiso   1.00
N410   N     0.83333   0.75001   0.37377   0.00000  Uiso   1.00
O411   O     0.83334   0.68453   0.28974   0.00000  Uiso   1.00
O412   O     0.83333   0.81546   0.21026   0.00000  Uiso   1.00
O413   O     0.83334   0.68453   0.21026   0.00000  Uiso   1.00
O414   O     0.83333   0.81547   0.28974   0.00000  Uiso   1.00
O415   O     0.75725   0.75000   0.28045   0.00000  Uiso   1.00
O416   O     0.90942   0.75000   0.21956   0.00000  Uiso   1.00
O417   O     0.75725   0.74999   0.20097   0.00000  Uiso   1.00
O418   O     0.90942   0.75000   0.29904   0.00000  Uiso   1.00
Zn419  Zn    0.83333   0.75000   0.30307   0.00000  Uiso   1.00
Zn420  Zn    0.83333   0.74999   0.19693   0.00000  Uiso   1.00
C421   C     0.16602   0.16394   0.75022   0.00000  Uiso   1.00
C422   C     0.15180   0.20980   0.94611   0.00000  Uiso   1.00
C423   C     0.16859   0.24909   0.52691   0.00000  Uiso   1.00
C424   C     0.16750   0.24830   0.97349   0.00000  Uiso   1.00
C425   C     0.06714   0.24934   0.73773   0.00000  Uiso   1.00
C426   C     0.26620   0.24981   0.76232   0.00000  Uiso   1.00
C427   C     0.01221   0.24746   0.73118   0.00000  Uiso   1.00
C428   C     0.32116   0.25007   0.76903   0.00000  Uiso   1.00
C429   C     0.17716   0.04585   0.79094   0.00000  Uiso   1.00
C430   C     0.17000   0.45470   0.70944   0.00000  Uiso   1.00
C431   C     0.18067   0.09190   0.79132   0.00000  Uiso   1.00
C432   C     0.16580   0.33611   0.74962   0.00000  Uiso   1.00
C433   C     0.17328   0.40877   0.70949   0.00000  Uiso   1.00
C434   C     0.16208   0.11605   0.75029   0.00000  Uiso   1.00
C435   C     0.16153   0.38398   0.74880   0.00000  Uiso   1.00
C436   C     0.13869   0.09432   0.70932   0.00000  Uiso   1.00
C437   C     0.14472   0.40510   0.78735   0.00000  Uiso   1.00
C438   C     0.13451   0.04833   0.70915   0.00000  Uiso   1.00
C439   C     0.14070   0.45093   0.78699   0.00000  Uiso   1.00
C440   C     0.15439   0.02402   0.74974   0.00000  Uiso   1.00
C441   C     0.15411   0.47583   0.74837   0.00000  Uiso   1.00
C442   C     0.26606   0.27411   0.54108   0.00000  Uiso   1.00
C443   C     0.12388   0.23512   0.54727   0.00000  Uiso   1.00
C444   C     0.28862   0.23317   0.52066   0.00000  Uiso   1.00
C445   C     0.14304   0.16430   0.96923   0.00000  Uiso   1.00
C446   C     0.19250   0.14708   0.99930   0.00000  Uiso   1.00
C447   C     0.18164   0.28703   0.94894   0.00000  Uiso   1.00
C448   C     0.12489   0.23316   0.59675   0.00000  Uiso   1.00
C449   C     0.18429   0.28627   0.89997   0.00000  Uiso   1.00
C450   C     0.20806   0.26959   0.60699   0.00000  Uiso   1.00
C451   C     0.14536   0.21399   0.89574   0.00000  Uiso   1.00
C452   C     0.21316   0.26431   0.55822   0.00000  Uiso   1.00
H453   H     0.32532   0.24391   0.69525   0.00000  Uiso   1.00
H454   H     0.12761   0.46698   0.81692   0.00000  Uiso   1.00
H455   H     0.08814   0.22531   0.52496   0.00000  Uiso   1.00
H456   H     0.19111   0.31795   0.96760   0.00000  Uiso   1.00
H457   H     0.09103   0.22004   0.61143   0.00000  Uiso   1.00
H458   H     0.19815   0.31568   0.88260   0.00000  Uiso   1.00
H459   H     0.29019   0.20482   0.54636   0.00000  Uiso   1.00
H460   H     0.26552   0.22329   0.98658   0.00000  Uiso   1.00
H461   H     0.32912   0.24121   0.51359   0.00000  Uiso   1.00
H462   H     0.26361   0.30196   0.51503   0.00000  Uiso   1.00
H463   H     0.29629   0.28480   0.57039   0.00000  Uiso   1.00
H464   H     0.00810   0.25312   0.80503   0.00000  Uiso   1.00
H465   H     0.22584   0.14788   0.97841   0.00000  Uiso   1.00
H466   H     0.20283   0.16677   0.53194   0.00000  Uiso   1.00
H467   H     0.18554   0.11198   0.51035   0.00000  Uiso   1.00
H468   H     0.11038   0.16484   0.99057   0.00000  Uiso   1.00
H469   H     0.13176   0.13829   0.94245   0.00000  Uiso   1.00
H470   H     0.19339   0.02729   0.82230   0.00000  Uiso   1.00
H471   H     0.18113   0.47375   0.67964   0.00000  Uiso   1.00
H472   H     0.19882   0.10855   0.82314   0.00000  Uiso   1.00
H473   H     0.18591   0.39288   0.67933   0.00000  Uiso   1.00
H474   H     0.12331   0.11286   0.67765   0.00000  Uiso   1.00
H475   H     0.13450   0.38626   0.81765   0.00000  Uiso   1.00
H476   H     0.11617   0.03172   0.67738   0.00000  Uiso   1.00
I477   I     0.25659   0.31940   0.64560   0.00000  Uiso   1.00
I478   I     0.08851   0.17091   0.85599   0.00000  Uiso   1.00
N479   N     0.16667   0.24999   0.62624   0.00000  Uiso   1.00
N480   N     0.16667   0.25001   0.87377   0.00000  Uiso   1.00
O481   O     0.16667   0.18453   0.78974   0.00000  Uiso   1.00
O482   O     0.16666   0.31546   0.71026   0.00000  Uiso   1.00
O483   O     0.16667   0.18453   0.71026   0.00000  Uiso   1.00
O484   O     0.16666   0.31547   0.78974   0.00000  Uiso   1.00
O485   O     0.09058   0.25000   0.78045   0.00000  Uiso   1.00
O486   O     0.24275   0.25000   0.71956   0.00000  Uiso   1.00
O487   O     0.09058   0.24999   0.70097   0.00000  Uiso   1.00
O488   O     0.24275   0.25000   0.79904   0.00000  Uiso   1.00
Zn489  Zn    0.16667   0.25000   0.80307   0.00000  Uiso   1.00
Zn490  Zn    0.16667   0.24999   0.69693   0.00000  Uiso   1.00
C491   C     0.49935   0.16394   0.75022   0.00000  Uiso   1.00
C492   C     0.48513   0.20980   0.94611   0.00000  Uiso   1.00
C493   C     0.50193   0.24909   0.52691   0.00000  Uiso   1.00
C494   C     0.50084   0.24830   0.97349   0.00000  Uiso   1.00
C495   C     0.40047   0.24934   0.73773   0.00000  Uiso   1.00
C496   C     0.59954   0.24981   0.76232   0.00000  Uiso   1.00
C497   C     0.34554   0.24746   0.73118   0.00000  Uiso   1.00
C498   C     0.65449   0.25007   0.76903   0.00000  Uiso   1.00
C499   C     0.51049   0.04585   0.79094   0.00000  Uiso   1.00
C500   C     0.50333   0.45470   0.70944   0.00000  Uiso   1.00
C501   C     0.51400   0.09190   0.79132   0.00000  Uiso   1.00
C502   C     0.49913   0.33611   0.74962   0.00000  Uiso   1.00
C503   C     0.50661   0.40877   0.70949   0.00000  Uiso   1.00
C504   C     0.49541   0.11605   0.75029   0.00000  Uiso   1.00
C505   C     0.49486   0.38398   0.74880   0.00000  Uiso   1.00
C506   C     0.47202   0.09432   0.70932   0.00000  Uiso   1.00
C507   C     0.47805   0.40510   0.78735   0.00000  Uiso   1.00
C508   C     0.46784   0.04833   0.70915   0.00000  Uiso   1.00
C509   C     0.47403   0.45093   0.78699   0.00000  Uiso   1.00
C510   C     0.48772   0.02402   0.74974   0.00000  Uiso   1.00
C511   C     0.48744   0.47583   0.74837   0.00000  Uiso   1.00
C512   C     0.59939   0.27411   0.54108   0.00000  Uiso   1.00
C513   C     0.45722   0.23512   0.54727   0.00000  Uiso   1.00
C514   C     0.62196   0.23317   0.52066   0.00000  Uiso   1.00
C515   C     0.47637   0.16430   0.96923   0.00000  Uiso   1.00
C516   C     0.52583   0.14708   0.99930   0.00000  Uiso   1.00
C517   C     0.51497   0.28703   0.94894   0.00000  Uiso   1.00
C518   C     0.45823   0.23316   0.59675   0.00000  Uiso   1.00
C519   C     0.51762   0.28627   0.89997   0.00000  Uiso   1.00
C520   C     0.54139   0.26959   0.60699   0.00000  Uiso   1.00
C521   C     0.47869   0.21399   0.89574   0.00000  Uiso   1.00
C522   C     0.54649   0.26431   0.55822   0.00000  Uiso   1.00
H523   H     0.65866   0.24391   0.69525   0.00000  Uiso   1.00
H524   H     0.46094   0.46698   0.81692   0.00000  Uiso   1.00
H525   H     0.42147   0.22531   0.52496   0.00000  Uiso   1.00
H526   H     0.52445   0.31795   0.96760   0.00000  Uiso   1.00
H527   H     0.42436   0.22004   0.61143   0.00000  Uiso   1.00
H528   H     0.53148   0.31568   0.88260   0.00000  Uiso   1.00
H529   H     0.62352   0.20482   0.54636   0.00000  Uiso   1.00
H530   H     0.59885   0.22329   0.98658   0.00000  Uiso   1.00
H531   H     0.66245   0.24121   0.51359   0.00000  Uiso   1.00
H532   H     0.59695   0.30196   0.51503   0.00000  Uiso   1.00
H533   H     0.62963   0.28480   0.57039   0.00000  Uiso   1.00
H534   H     0.34143   0.25312   0.80503   0.00000  Uiso   1.00
H535   H     0.55917   0.14788   0.97841   0.00000  Uiso   1.00
H536   H     0.53616   0.16677   0.53194   0.00000  Uiso   1.00
H537   H     0.51887   0.11198   0.51035   0.00000  Uiso   1.00
H538   H     0.44371   0.16484   0.99057   0.00000  Uiso   1.00
H539   H     0.46509   0.13829   0.94245   0.00000  Uiso   1.00
H540   H     0.52673   0.02729   0.82230   0.00000  Uiso   1.00
H541   H     0.51446   0.47375   0.67964   0.00000  Uiso   1.00
H542   H     0.53215   0.10855   0.82314   0.00000  Uiso   1.00
H543   H     0.51924   0.39288   0.67933   0.00000  Uiso   1.00
H544   H     0.45664   0.11286   0.67765   0.00000  Uiso   1.00
H545   H     0.46783   0.38626   0.81765   0.00000  Uiso   1.00
H546   H     0.44950   0.03172   0.67738   0.00000  Uiso   1.00
I547   I     0.58993   0.31940   0.64560   0.00000  Uiso   1.00
I548   I     0.42184   0.17091   0.85599   0.00000  Uiso   1.00
N549   N     0.50000   0.24999   0.62624   0.00000  Uiso   1.00
N550   N     0.50000   0.25001   0.87377   0.00000  Uiso   1.00
O551   O     0.50000   0.18453   0.78974   0.00000  Uiso   1.00
O552   O     0.50000   0.31546   0.71026   0.00000  Uiso   1.00
O553   O     0.50000   0.18453   0.71026   0.00000  Uiso   1.00
O554   O     0.50000   0.31547   0.78974   0.00000  Uiso   1.00
O555   O     0.42392   0.25000   0.78045   0.00000  Uiso   1.00
O556   O     0.57608   0.25000   0.71956   0.00000  Uiso   1.00
O557   O     0.42392   0.24999   0.70097   0.00000  Uiso   1.00
O558   O     0.57608   0.25000   0.79904   0.00000  Uiso   1.00
Zn559  Zn    0.50000   0.25000   0.80307   0.00000  Uiso   1.00
Zn560  Zn    0.50000   0.24999   0.69693   0.00000  Uiso   1.00
C561   C     0.83268   0.16394   0.75022   0.00000  Uiso   1.00
C562   C     0.81846   0.20980   0.94611   0.00000  Uiso   1.00
C563   C     0.83526   0.24909   0.52691   0.00000  Uiso   1.00
C564   C     0.83417   0.24830   0.97349   0.00000  Uiso   1.00
C565   C     0.73380   0.24934   0.73773   0.00000  Uiso   1.00
C566   C     0.93287   0.24981   0.76232   0.00000  Uiso   1.00
C567   C     0.67888   0.24746   0.73118   0.00000  Uiso   1.00
C568   C     0.98782   0.25007   0.76903   0.00000  Uiso   1.00
C569   C     0.84383   0.04585   0.79094   0.00000  Uiso   1.00
C570   C     0.83666   0.45470   0.70944   0.00000  Uiso   1.00
C571   C     0.84733   0.09190   0.79132   0.00000  Uiso   1.00
C572   C     0.83246   0.33611   0.74962   0.00000  Uiso   1.00
C573   C     0.83995   0.40877   0.70949   0.00000  Uiso   1.00
C574   C     0.82875   0.11605   0.75029   0.00000  Uiso   1.00
C575   C     0.82820   0.38398   0.74880   0.00000  Uiso   1.00
C576   C     0.80535   0.09432   0.70932   0.00000  Uiso   1.00
C577   C     0.81138   0.40510   0.78735   0.00000  Uiso   1.00
C578   C     0.80117   0.04833   0.70915   0.00000  Uiso   1.00
C579   C     0.80736   0.45093   0.78699   0.00000  Uiso   1.00
C580   C     0.82106   0.02402   0.74974   0.00000  Uiso   1.00
C581   C     0.82078   0.47583   0.74837   0.00000  Uiso   1.00
C582   C     0.93273   0.27411   0.54108   0.00000  Uiso   1.00
C583   C     0.79055   0.23512   0.54727   0.00000  Uiso   1.00
C584   C     0.95529   0.23317   0.52066   0.00000  Uiso   1.00
C585   C     0.80971   0.16430   0.96923   0.00000  Uiso   1.00
C586   C     0.85916   0.14708   0.99930   0.00000  Uiso   1.00
C587   C     0.84831   0.28703   0.94894   0.00000  Uiso   1.00
C588   C     0.79156   0.23316   0.59675   0.00000  Uiso   1.00
C589   C     0.85096   0.28627   0.89997   0.00000  Uiso   1.00
C590   C     0.87472   0.26959   0.60699   0.00000  Uiso   1.00
C591   C     0.81203   0.21399   0.89574   0.00000  Uiso   1.00
C592   C     0.87982   0.26431   0.55822   0.00000  Uiso   1.00
H593   H     0.99199   0.24391   0.69525   0.00000  Uiso   1.00
H594   H     0.79427   0.46698   0.81692   0.00000  Uiso   1.00
H595   H     0.75480   0.22531   0.52496   0.00000  Uiso   1.00
H596   H     0.85778   0.31795   0.96760   0.00000  Uiso   1.00
H597   H     0.75769   0.22004   0.61143   0.00000  Uiso   1.00
H598   H     0.86481   0.31568   0.88260   0.00000  Uiso   1.00
H599   H     0.95685   0.20482   0.54636   0.00000  Uiso   1.00
H600   H     0.93218   0.22329   0.98658   0.00000  Uiso   1.00
H601   H     0.99578   0.24121   0.51359   0.00000  Uiso   1.00
H602   H     0.93028   0.30196   0.51503   0.00000  Uiso   1.00
H603   H     0.96296   0.28480   0.57039   0.00000  Uiso   1.00
H604   H     0.67476   0.25312   0.80503   0.00000  Uiso   1.00
H605   H     0.89251   0.14788   0.97841   0.00000  Uiso   1.00
H606   H     0.86950   0.16677   0.53194   0.00000  Uiso   1.00
H607   H     0.85221   0.11198   0.51035   0.00000  Uiso   1.00
H608   H     0.77704   0.16484   0.99057   0.00000  Uiso   1.00
H609   H     0.79842   0.13829   0.94245   0.00000  Uiso   1.00
H610   H     0.86006   0.02729   0.82230   0.00000  Uiso   1.00
H611   H     0.84780   0.47375   0.67964   0.00000  Uiso   1.00
H612   H     0.86549   0.10855   0.82314   0.00000  Uiso   1.00
H613   H     0.85257   0.39288   0.67933   0.00000  Uiso   1.00
H614   H     0.78998   0.11286   0.67765   0.00000  Uiso   1.00
H615   H     0.80117   0.38626   0.81765   0.00000  Uiso   1.00
H616   H     0.78284   0.03172   0.67738   0.00000  Uiso   1.00
I617   I     0.92326   0.31940   0.64560   0.00000  Uiso   1.00
I618   I     0.75517   0.17091   0.85599   0.00000  Uiso   1.00
N619   N     0.83333   0.24999   0.62624   0.00000  Uiso   1.00
N620   N     0.83333   0.25001   0.87377   0.00000  Uiso   1.00
O621   O     0.83334   0.18453   0.78974   0.00000  Uiso   1.00
O622   O     0.83333   0.31546   0.71026   0.00000  Uiso   1.00
O623   O     0.83334   0.18453   0.71026   0.00000  Uiso   1.00
O624   O     0.83333   0.31547   0.78974   0.00000  Uiso   1.00
O625   O     0.75725   0.25000   0.78045   0.00000  Uiso   1.00
O626   O     0.90942   0.25000   0.71956   0.00000  Uiso   1.00
O627   O     0.75725   0.24999   0.70097   0.00000  Uiso   1.00
O628   O     0.90942   0.25000   0.79904   0.00000  Uiso   1.00
Zn629  Zn    0.83333   0.25000   0.80307   0.00000  Uiso   1.00
Zn630  Zn    0.83333   0.24999   0.69693   0.00000  Uiso   1.00
C631   C     0.16602   0.66394   0.75022   0.00000  Uiso   1.00
C632   C     0.15180   0.70980   0.94611   0.00000  Uiso   1.00
C633   C     0.16859   0.74909   0.52691   0.00000  Uiso   1.00
C634   C     0.16750   0.74830   0.97349   0.00000  Uiso   1.00
C635   C     0.06714   0.74934   0.73773   0.00000  Uiso   1.00
C636   C     0.26620   0.74981   0.76232   0.00000  Uiso   1.00
C637   C     0.01221   0.74746   0.73118   0.00000  Uiso   1.00
C638   C     0.32116   0.75007   0.76903   0.00000  Uiso   1.00
C639   C     0.17716   0.54585   0.79094   0.00000  Uiso   1.00
C640   C     0.17000   0.95470   0.70944   0.00000  Uiso   1.00
C641   C     0.18067   0.59190   0.79132   0.00000  Uiso   1.00
C642   C     0.16580   0.83611   0.74962   0.00000  Uiso   1.00
C643   C     0.17328   0.90877   0.70949   0.00000  Uiso   1.00
C644   C     0.16208   0.61605   0.75029   0.00000  Uiso   1.00
C645   C     0.16153   0.88398   0.74880   0.00000  Uiso   1.00
C646   C     0.13869   0.59432   0.70932   0.00000  Uiso   1.00
C647   C     0.14472   0.90510   0.78735   0.00000  Uiso   1.00
C648   C     0.13451   0.54833   0.70915   0.00000  Uiso   1.00
C649   C     0.14070   0.95093   0.78699   0.00000  Uiso   1.00
C650   C     0.15439   0.52402   0.74974   0.00000  Uiso   1.00
C651   C     0.15411   0.97583   0.74837   0.00000  Uiso   1.00
C652   C     0.26606   0.77411   0.54108   0.00000  Uiso   1.00
C653   C     0.12388   0.73512   0.54727   0.00000  Uiso   1.00
C654   C     0.28862   0.73317   0.52066   0.00000  Uiso   1.00
C655   C     0.14304   0.66430   0.96923   0.00000  Uiso   1.00
C656   C     0.19250   0.64708   0.99930   0.00000  Uiso   1.00
C657   C     0.18164   0.78703   0.94894   0.00000  Uiso   1.00
C658   C     0.12489   0.73316   0.59675   0.00000  Uiso   1.00
C659   C     0.18429   0.78627   0.89997   0.00000  Uiso   1.00
C660   C     0.20806   0.76959   0.60699   0.00000  Uiso   1.00
C661   C     0.14536   0.71399   0.89574   0.00000  Uiso   1.00
C662   C     0.21316   0.76431   0.55822   0.00000  Uiso   1.00
H663   H     0.32532   0.74391   0.69525   0.00000  Uiso   1.00
H664   H     0.12761   0.96698   0.81692   0.00000  Uiso   1.00
H665   H     0.08814   0.72531   0.52496   0.00000  Uiso   1.00
H666   H     0.19111   0.81795   0.96760   0.00000  Uiso   1.00
H667   H     0.09103   0.72004   0.61143   0.00000  Uiso   1.00
H668   H     0.19815   0.81568   0.88260   0.00000  Uiso   1.00
H669   H     0.29019   0.70482   0.54636   0.00000  Uiso   1.00
H670   H     0.26552   0.72329   0.98658   0.00000  Uiso   1.00
H671   H     0.32912   0.74121   0.51359   0.00000  Uiso   1.00
H672   H     0.26361   0.80196   0.51503   0.00000  Uiso   1.00
H673   H     0.29629   0.78480   0.57039   0.00000  Uiso   1.00
H674   H     0.00810   0.75312   0.80503   0.00000  Uiso   1.00
H675   H     0.22584   0.64788   0.97841   0.00000  Uiso   1.00
H676   H     0.20283   0.66677   0.53194   0.00000  Uiso   1.00
H677   H     0.18554   0.61198   0.51035   0.00000  Uiso   1.00
H678   H     0.11038   0.66484   0.99057   0.00000  Uiso   1.00
H679   H     0.13176   0.63829   0.94245   0.00000  Uiso   1.00
H680   H     0.19339   0.52729   0.82230   0.00000  Uiso   1.00
H681   H     0.18113   0.97375   0.67964   0.00000  Uiso   1.00
H682   H     0.19882   0.60855   0.82314   0.00000  Uiso   1.00
H683   H     0.18591   0.89288   0.67933   0.00000  Uiso   1.00
H684   H     0.12331   0.61286   0.67765   0.00000  Uiso   1.00
H685   H     0.13450   0.88626   0.81765   0.00000  Uiso   1.00
H686   H     0.11617   0.53172   0.67738   0.00000  Uiso   1.00
I687   I     0.25659   0.81940   0.64560   0.00000  Uiso   1.00
I688   I     0.08851   0.67091   0.85599   0.00000  Uiso   1.00
N689   N     0.16667   0.74999   0.62624   0.00000  Uiso   1.00
N690   N     0.16667   0.75001   0.87377   0.00000  Uiso   1.00
O691   O     0.16667   0.68453   0.78974   0.00000  Uiso   1.00
O692   O     0.16666   0.81546   0.71026   0.00000  Uiso   1.00
O693   O     0.16667   0.68453   0.71026   0.00000  Uiso   1.00
O694   O     0.16666   0.81547   0.78974   0.00000  Uiso   1.00
O695   O     0.09058   0.75000   0.78045   0.00000  Uiso   1.00
O696   O     0.24275   0.75000   0.71956   0.00000  Uiso   1.00
O697   O     0.09058   0.74999   0.70097   0.00000  Uiso   1.00
O698   O     0.24275   0.75000   0.79904   0.00000  Uiso   1.00
Zn699  Zn    0.16667   0.75000   0.80307   0.00000  Uiso   1.00
Zn700  Zn    0.16667   0.74999   0.69693   0.00000  Uiso   1.00
C701   C     0.49935   0.66394   0.75022   0.00000  Uiso   1.00
C702   C     0.48513   0.70980   0.94611   0.00000  Uiso   1.00
C703   C     0.50193   0.74909   0.52691   0.00000  Uiso   1.00
C704   C     0.50084   0.74830   0.97349   0.00000  Uiso   1.00
C705   C     0.40047   0.74934   0.73773   0.00000  Uiso   1.00
C706   C     0.59954   0.74981   0.76232   0.00000  Uiso   1.00
C707   C     0.34554   0.74746   0.73118   0.00000  Uiso   1.00
C708   C     0.65449   0.75007   0.76903   0.00000  Uiso   1.00
C709   C     0.51049   0.54585   0.79094   0.00000  Uiso   1.00
C710   C     0.50333   0.95470   0.70944   0.00000  Uiso   1.00
C711   C     0.51400   0.59190   0.79132   0.00000  Uiso   1.00
C712   C     0.49913   0.83611   0.74962   0.00000  Uiso   1.00
C713   C     0.50661   0.90877   0.70949   0.00000  Uiso   1.00
C714   C     0.49541   0.61605   0.75029   0.00000  Uiso   1.00
C715   C     0.49486   0.88398   0.74880   0.00000  Uiso   1.00
C716   C     0.47202   0.59432   0.70932   0.00000  Uiso   1.00
C717   C     0.47805   0.90510   0.78735   0.00000  Uiso   1.00
C718   C     0.46784   0.54833   0.70915   0.00000  Uiso   1.00
C719   C     0.47403   0.95093   0.78699   0.00000  Uiso   1.00
C720   C     0.48772   0.52402   0.74974   0.00000  Uiso   1.00
C721   C     0.48744   0.97583   0.74837   0.00000  Uiso   1.00
C722   C     0.59939   0.77411   0.54108   0.00000  Uiso   1.00
C723   C     0.45722   0.73512   0.54727   0.00000  Uiso   1.00
C724   C     0.62196   0.73317   0.52066   0.00000  Uiso   1.00
C725   C     0.47637   0.66430   0.96923   0.00000  Uiso   1.00
C726   C     0.52583   0.64708   0.99930   0.00000  Uiso   1.00
C727   C     0.51497   0.78703   0.94894   0.00000  Uiso   1.00
C728   C     0.45823   0.73316   0.59675   0.00000  Uiso   1.00
C729   C     0.51762   0.78627   0.89997   0.00000  Uiso   1.00
C730   C     0.54139   0.76959   0.60699   0.00000  Uiso   1.00
C731   C     0.47869   0.71399   0.89574   0.00000  Uiso   1.00
C732   C     0.54649   0.76431   0.55822   0.00000  Uiso   1.00
H733   H     0.65866   0.74391   0.69525   0.00000  Uiso   1.00
H734   H     0.46094   0.96698   0.81692   0.00000  Uiso   1.00
H735   H     0.42147   0.72531   0.52496   0.00000  Uiso   1.00
H736   H     0.52445   0.81795   0.96760   0.00000  Uiso   1.00
H737   H     0.42436   0.72004   0.61143   0.00000  Uiso   1.00
H738   H     0.53148   0.81568   0.88260   0.00000  Uiso   1.00
H739   H     0.62352   0.70482   0.54636   0.00000  Uiso   1.00
H740   H     0.59885   0.72329   0.98658   0.00000  Uiso   1.00
H741   H     0.66245   0.74121   0.51359   0.00000  Uiso   1.00
H742   H     0.59695   0.80196   0.51503   0.00000  Uiso   1.00
H743   H     0.62963   0.78480   0.57039   0.00000  Uiso   1.00
H744   H     0.34143   0.75312   0.80503   0.00000  Uiso   1.00
H745   H     0.55917   0.64788   0.97841   0.00000  Uiso   1.00
H746   H     0.53616   0.66677   0.53194   0.00000  Uiso   1.00
H747   H     0.51887   0.61198   0.51035   0.00000  Uiso   1.00
H748   H     0.44371   0.66484   0.99057   0.00000  Uiso   1.00
H749   H     0.46509   0.63829   0.94245   0.00000  Uiso   1.00
H750   H     0.52673   0.52729   0.82230   0.00000  Uiso   1.00
H751   H     0.51446   0.97375   0.67964   0.00000  Uiso   1.00
H752   H     0.53215   0.60855   0.82314   0.00000  Uiso   1.00
H753   H     0.51924   0.89288   0.67933   0.00000  Uiso   1.00
H754   H     0.45664   0.61286   0.67765   0.00000  Uiso   1.00
H755   H     0.46783   0.88626   0.81765   0.00000  Uiso   1.00
H756   H     0.44950   0.53172   0.67738   0.00000  Uiso   1.00
I757   I     0.58993   0.81940   0.64560   0.00000  Uiso   1.00
I758   I     0.42184   0.67091   0.85599   0.00000  Uiso   1.00
N759   N     0.50000   0.74999   0.62624   0.00000  Uiso   1.00
N760   N     0.50000   0.75001   0.87377   0.00000  Uiso   1.00
O761   O     0.50000   0.68453   0.78974   0.00000  Uiso   1.00
O762   O     0.50000   0.81546   0.71026   0.00000  Uiso   1.00
O763   O     0.50000   0.68453   0.71026   0.00000  Uiso   1.00
O764   O     0.50000   0.81547   0.78974   0.00000  Uiso   1.00
O765   O     0.42392   0.75000   0.78045   0.00000  Uiso   1.00
O766   O     0.57608   0.75000   0.71956   0.00000  Uiso   1.00
O767   O     0.42392   0.74999   0.70097   0.00000  Uiso   1.00
O768   O     0.57608   0.75000   0.79904   0.00000  Uiso   1.00
Zn769  Zn    0.50000   0.75000   0.80307   0.00000  Uiso   1.00
Zn770  Zn    0.50000   0.74999   0.69693   0.00000  Uiso   1.00
C771   C     0.83268   0.66394   0.75022   0.00000  Uiso   1.00
C772   C     0.81846   0.70980   0.94611   0.00000  Uiso   1.00
C773   C     0.83526   0.74909   0.52691   0.00000  Uiso   1.00
C774   C     0.83417   0.74830   0.97349   0.00000  Uiso   1.00
C775   C     0.73380   0.74934   0.73773   0.00000  Uiso   1.00
C776   C     0.93287   0.74981   0.76232   0.00000  Uiso   1.00
C777   C     0.67888   0.74746   0.73118   0.00000  Uiso   1.00
C778   C     0.98782   0.75007   0.76903   0.00000  Uiso   1.00
C779   C     0.84383   0.54585   0.79094   0.00000  Uiso   1.00
C780   C     0.83666   0.95470   0.70944   0.00000  Uiso   1.00
C781   C     0.84733   0.59190   0.79132   0.00000  Uiso   1.00
C782   C     0.83246   0.83611   0.74962   0.00000  Uiso   1.00
C783   C     0.83995   0.90877   0.70949   0.00000  Uiso   1.00
C784   C     0.82875   0.61605   0.75029   0.00000  Uiso   1.00
C785   C     0.82820   0.88398   0.74880   0.00000  Uiso   1.00
C786   C     0.80535   0.59432   0.70932   0.00000  Uiso   1.00
C787   C     0.81138   0.90510   0.78735   0.00000  Uiso   1.00
C788   C     0.80117   0.54833   0.70915   0.00000  Uiso   1.00
C789   C     0.80736   0.95093   0.78699   0.00000  Uiso   1.00
C790   C     0.82106   0.52402   0.74974   0.00000  Uiso   1.00
C791   C     0.82078   0.97583   0.74837   0.00000  Uiso   1.00
C792   C     0.93273   0.77411   0.54108   0.00000  Uiso   1.00
C793   C     0.79055   0.73512   0.54727   0.00000  Uiso   1.00
C794   C     0.95529   0.73317   0.52066   0.00000  Uiso   1.00
C795   C     0.80971   0.66430   0.96923   0.00000  Uiso   1.00
C796   C     0.85916   0.64708   0.99930   0.00000  Uiso   1.00
C797   C     0.84831   0.78703   0.94894   0.00000  Uiso   1.00
C798   C     0.79156   0.73316   0.59675   0.00000  Uiso   1.00
C799   C     0.85096   0.78627   0.89997   0.00000  Uiso   1.00
C800   C     0.87472   0.76959   0.60699   0.00000  Uiso   1.00
C801   C     0.81203   0.71399   0.89574   0.00000  Uiso   1.00
C802   C     0.87982   0.76431   0.55822   0.00000  Uiso   1.00
H803   H     0.99199   0.74391   0.69525   0.00000  Uiso   1.00
H804   H     0.79427   0.96698   0.81692   0.00000  Uiso   1.00
H805   H     0.75480   0.72531   0.52496   0.00000  Uiso   1.00
H806   H     0.85778   0.81795   0.96760   0.00000  Uiso   1.00
H807   H     0.75769   0.72004   0.61143   0.00000  Uiso   1.00
H808   H     0.86481   0.81568   0.88260   0.00000  Uiso   1.00
H809   H     0.95685   0.70482   0.54636   0.00000  Uiso   1.00
H810   H     0.93218   0.72329   0.98658   0.00000  Uiso   1.00
H811   H     0.99578   0.74121   0.51359   0.00000  Uiso   1.00
H812   H     0.93028   0.80196   0.51503   0.00000  Uiso   1.00
H813   H     0.96296   0.78480   0.57039   0.00000  Uiso   1.00
H814   H     0.67476   0.75312   0.80503   0.00000  Uiso   1.00
H815   H     0.89251   0.64788   0.97841   0.00000  Uiso   1.00
H816   H     0.86950   0.66677   0.53194   0.00000  Uiso   1.00
H817   H     0.85221   0.61198   0.51035   0.00000  Uiso   1.00
H818   H     0.77704   0.66484   0.99057   0.00000  Uiso   1.00
H819   H     0.79842   0.63829   0.94245   0.00000  Uiso   1.00
H820   H     0.86006   0.52729   0.82230   0.00000  Uiso   1.00
H821   H     0.84780   0.97375   0.67964   0.00000  Uiso   1.00
H822   H     0.86549   0.60855   0.82314   0.00000  Uiso   1.00
H823   H     0.85257   0.89288   0.67933   0.00000  Uiso   1.00
H824   H     0.78998   0.61286   0.67765   0.00000  Uiso   1.00
H825   H     0.80117   0.88626   0.81765   0.00000  Uiso   1.00
H826   H     0.78284   0.53172   0.67738   0.00000  Uiso   1.00
I827   I     0.92326   0.81940   0.64560   0.00000  Uiso   1.00
I828   I     0.75517   0.67091   0.85599   0.00000  Uiso   1.00
N829   N     0.83333   0.74999   0.62624   0.00000  Uiso   1.00
N830   N     0.83333   0.75001   0.87377   0.00000  Uiso   1.00
O831   O     0.83334   0.68453   0.78974   0.00000  Uiso   1.00
O832   O     0.83333   0.81546   0.71026   0.00000  Uiso   1.00
O833   O     0.83334   0.68453   0.71026   0.00000  Uiso   1.00
O834   O     0.83333   0.81547   0.78974   0.00000  Uiso   1.00
O835   O     0.75725   0.75000   0.78045   0.00000  Uiso   1.00
O836   O     0.90942   0.75000   0.71956   0.00000  Uiso   1.00
O837   O     0.75725   0.74999   0.70097   0.00000  Uiso   1.00
O838   O     0.90942   0.75000   0.79904   0.00000  Uiso   1.00
Zn839  Zn    0.83333   0.75000   0.80307   0.00000  Uiso   1.00
Zn840  Zn    0.83333   0.74999   0.69693   0.00000  Uiso   1.00
loop_
_geom_bond_atom_site_label_1
_geom_bond_atom_site_label_2
_geom_bond_distance
_geom_bond_site_symmetry_2
_ccdc_geom_bond_type
C1     C14     1.436   .     S
C1     O63     1.288   .     A
C1     O61     1.291   .     A
C2     C4      1.422   .     A
C2     C25     1.530   .     S
C2     C31     1.425   .     A
C3     C23     1.411   .     A
C3     C32     1.422   .     A
C3     C424    1.519   1_554 S
C4     C27     1.412   .     A
C4     C423    1.519   .     S
C5     O67     1.280   .     A
C5     C7      1.400   .     S
C5     O65     1.281   .     A
C6     O68     1.279   .     A
C6     O66     1.282   .     A
C6     C8      1.401   .     S
C7     C148    1.326   1_455 S
C7     H173    1.087   1_455 S
C8     C77     1.326   .     S
C8     H114    1.088   .     S
C9     C20     1.401   .     A
C9     C11     1.381   .     A
C9     H50     1.083   .     S
C10    C21     1.400   .     A
C10    H51     1.083   .     S
C10    C13     1.381   .     A
C11    C14     1.397   .     A
C11    H52     1.084   .     S
C12    O62     1.293   .     A
C12    C15     1.441   .     S
C12    O64     1.289   .     A
C13    H53     1.082   .     S
C13    C15     1.398   .     A
C14    C16     1.399   .     A
C15    C17     1.401   .     A
C16    H54     1.084   .     S
C16    C18     1.380   .     A
C17    H55     1.083   .     S
C17    C19     1.380   .     A
C18    H56     1.083   .     S
C18    C20     1.398   .     A
C19    H34     1.083   .     S
C19    C21     1.398   .     A
C20    C231    1.445   1_545 S
C21    C230    1.445   .     S
C22    H43     1.105   .     S
C22    H42     1.105   .     S
C22    C32     1.530   .     S
C22    C24     1.528   .     S
C23    H35     1.080   .     S
C23    C28     1.407   .     A
C24    H39     1.111   .     S
C24    H41     1.109   .     S
C24    H460    1.106   1_554 S
C25    H48     1.105   .     S
C25    C26     1.528   .     S
C25    H49     1.105   .     S
C26    H45     1.111   .     S
C26    H466    1.107   .     S
C26    H467    1.111   .     S
C27    H36     1.081   .     S
C27    C29     1.407   .     A
C28    N59     1.361   .     A
C28    H37     1.082   .     S
C29    H38     1.081   .     S
C29    N60     1.361   .     A
C30    N59     1.380   .     A
C30    C32     1.425   .     A
C30    I57     2.139   .     S
C31    N60     1.380   .     A
C31    I58     2.141   .     S
H33    C77     1.087   .     S
H40    C444    1.106   .     S
H44    C148    1.088   1_455 S
H46    C446    1.107   1_554 S
H47    C446    1.111   1_554 S
N59    Zn70    2.014   .     S
N60    Zn69    2.014   .     S
O61    Zn69    2.005   .     S
O62    Zn70    2.005   .     S
O63    Zn70    1.992   .     S
O64    Zn69    1.992   .     S
O65    Zn69    1.975   .     S
O66    Zn70    1.975   .     S
O67    Zn70    1.978   .     S
O68    Zn69    1.978   .     S
C71    C84     1.436   .     S
C71    O133    1.288   .     A
C71    O131    1.291   .     A
C72    C74     1.422   .     A
C72    C95     1.530   .     S
C72    C101    1.425   .     A
C73    C93     1.411   .     A
C73    C102    1.422   .     A
C73    C494    1.519   1_554 S
C74    C97     1.412   .     A
C74    C493    1.519   .     S
C75    O137    1.280   .     A
C75    C77     1.400   .     S
C75    O135    1.281   .     A
C76    O138    1.279   .     A
C76    O136    1.282   .     A
C76    C78     1.401   .     S
C78    C147    1.326   .     S
C78    H184    1.088   .     S
C79    C90     1.401   .     A
C79    C81     1.381   .     A
C79    H120    1.083   .     S
C80    C91     1.400   .     A
C80    H121    1.083   .     S
C80    C83     1.381   .     A
C81    C84     1.397   .     A
C81    H122    1.084   .     S
C82    O132    1.293   .     A
C82    C85     1.441   .     S
C82    O134    1.289   .     A
C83    H123    1.082   .     S
C83    C85     1.398   .     A
C84    C86     1.399   .     A
C85    C87     1.401   .     A
C86    H124    1.084   .     S
C86    C88     1.380   .     A
C87    H125    1.083   .     S
C87    C89     1.380   .     A
C88    H126    1.083   .     S
C88    C90     1.398   .     A
C89    H104    1.083   .     S
C89    C91     1.398   .     A
C90    C301    1.445   1_545 S
C91    C300    1.445   .     S
C92    H113    1.105   .     S
C92    H112    1.105   .     S
C92    C102    1.530   .     S
C92    C94     1.528   .     S
C93    H105    1.080   .     S
C93    C98     1.407   .     A
C94    H109    1.111   .     S
C94    H111    1.109   .     S
C94    H530    1.106   1_554 S
C95    H118    1.105   .     S
C95    C96     1.528   .     S
C95    H119    1.105   .     S
C96    H115    1.111   .     S
C96    H536    1.107   .     S
C96    H537    1.111   .     S
C97    H106    1.081   .     S
C97    C99     1.407   .     A
C98    N129    1.361   .     A
C98    H107    1.082   .     S
C99    H108    1.081   .     S
C99    N130    1.361   .     A
C100   N129    1.380   .     A
C100   C102    1.425   .     A
C100   I127    2.139   .     S
C101   N130    1.380   .     A
C101   I128    2.141   .     S
H103   C147    1.087   .     S
H110   C514    1.106   .     S
H116   C516    1.107   1_554 S
H117   C516    1.111   1_554 S
N129   Zn140   2.014   .     S
N130   Zn139   2.014   .     S
O131   Zn139   2.005   .     S
O132   Zn140   2.005   .     S
O133   Zn140   1.992   .     S
O134   Zn139   1.992   .     S
O135   Zn139   1.975   .     S
O136   Zn140   1.975   .     S
O137   Zn140   1.978   .     S
O138   Zn139   1.978   .     S
C141   C154    1.436   .     S
C141   O203    1.288   .     A
C141   O201    1.291   .     A
C142   C144    1.422   .     A
C142   C165    1.530   .     S
C142   C171    1.425   .     A
C143   C163    1.411   .     A
C143   C172    1.422   .     A
C143   C564    1.519   1_554 S
C144   C167    1.412   .     A
C144   C563    1.519   .     S
C145   O207    1.280   .     A
C145   C147    1.400   .     S
C145   O205    1.281   .     A
C146   O208    1.279   .     A
C146   O206    1.282   .     A
C146   C148    1.401   .     S
C148   C7      1.326   1_655 S
C148   H44     1.088   1_655 S
C149   C160    1.401   .     A
C149   C151    1.381   .     A
C149   H190    1.083   .     S
C150   C161    1.400   .     A
C150   H191    1.083   .     S
C150   C153    1.381   .     A
C151   C154    1.397   .     A
C151   H192    1.084   .     S
C152   O202    1.293   .     A
C152   C155    1.441   .     S
C152   O204    1.289   .     A
C153   H193    1.082   .     S
C153   C155    1.398   .     A
C154   C156    1.399   .     A
C155   C157    1.401   .     A
C156   H194    1.084   .     S
C156   C158    1.380   .     A
C157   H195    1.083   .     S
C157   C159    1.380   .     A
C158   H196    1.083   .     S
C158   C160    1.398   .     A
C159   H174    1.083   .     S
C159   C161    1.398   .     A
C160   C371    1.445   1_545 S
C161   C370    1.445   .     S
C162   H183    1.105   .     S
C162   H182    1.105   .     S
C162   C172    1.530   .     S
C162   C164    1.528   .     S
C163   H175    1.080   .     S
C163   C168    1.407   .     A
C164   H179    1.111   .     S
C164   H181    1.109   .     S
C164   H600    1.106   1_554 S
C165   H188    1.105   .     S
C165   C166    1.528   .     S
C165   H189    1.105   .     S
C166   H185    1.111   .     S
C166   H606    1.107   .     S
C166   H607    1.111   .     S
C167   H176    1.081   .     S
C167   C169    1.407   .     A
C168   N199    1.361   .     A
C168   H177    1.082   .     S
C169   H178    1.081   .     S
C169   N200    1.361   .     A
C170   N199    1.380   .     A
C170   C172    1.425   .     A
C170   I197    2.139   .     S
C171   N200    1.380   .     A
C171   I198    2.141   .     S
H173   C7      1.087   1_655 S
H180   C584    1.106   .     S
H186   C586    1.107   1_554 S
H187   C586    1.111   1_554 S
N199   Zn210   2.014   .     S
N200   Zn209   2.014   .     S
O201   Zn209   2.005   .     S
O202   Zn210   2.005   .     S
O203   Zn210   1.992   .     S
O204   Zn209   1.992   .     S
O205   Zn209   1.975   .     S
O206   Zn210   1.975   .     S
O207   Zn210   1.978   .     S
O208   Zn209   1.978   .     S
C211   C224    1.436   .     S
C211   O273    1.288   .     A
C211   O271    1.291   .     A
C212   C214    1.422   .     A
C212   C235    1.530   .     S
C212   C241    1.425   .     A
C213   C233    1.411   .     A
C213   C242    1.422   .     A
C213   C634    1.519   1_554 S
C214   C237    1.412   .     A
C214   C633    1.519   .     S
C215   O277    1.280   .     A
C215   C217    1.400   .     S
C215   O275    1.281   .     A
C216   O278    1.279   .     A
C216   O276    1.282   .     A
C216   C218    1.401   .     S
C217   C358    1.326   1_455 S
C217   H383    1.087   1_455 S
C218   C287    1.326   .     S
C218   H324    1.088   .     S
C219   C230    1.401   .     A
C219   C221    1.381   .     A
C219   H260    1.083   .     S
C220   C231    1.400   .     A
C220   H261    1.083   .     S
C220   C223    1.381   .     A
C221   C224    1.397   .     A
C221   H262    1.084   .     S
C222   O272    1.293   .     A
C222   C225    1.441   .     S
C222   O274    1.289   .     A
C223   H263    1.082   .     S
C223   C225    1.398   .     A
C224   C226    1.399   .     A
C225   C227    1.401   .     A
C226   H264    1.084   .     S
C226   C228    1.380   .     A
C227   H265    1.083   .     S
C227   C229    1.380   .     A
C228   H266    1.083   .     S
C228   C230    1.398   .     A
C229   H244    1.083   .     S
C229   C231    1.398   .     A
C231   C20     1.445   1_565 S
C232   H253    1.105   .     S
C232   H252    1.105   .     S
C232   C242    1.530   .     S
C232   C234    1.528   .     S
C233   H245    1.080   .     S
C233   C238    1.407   .     A
C234   H249    1.111   .     S
C234   H251    1.109   .     S
C234   H670    1.106   1_554 S
C235   H258    1.105   .     S
C235   C236    1.528   .     S
C235   H259    1.105   .     S
C236   H255    1.111   .     S
C236   H676    1.107   .     S
C236   H677    1.111   .     S
C237   H246    1.081   .     S
C237   C239    1.407   .     A
C238   N269    1.361   .     A
C238   H247    1.082   .     S
C239   H248    1.081   .     S
C239   N270    1.361   .     A
C240   N269    1.380   .     A
C240   C242    1.425   .     A
C240   I267    2.139   .     S
C241   N270    1.380   .     A
C241   I268    2.141   .     S
H243   C287    1.087   .     S
H250   C654    1.106   .     S
H254   C358    1.088   1_455 S
H256   C656    1.107   1_554 S
H257   C656    1.111   1_554 S
N269   Zn280   2.014   .     S
N270   Zn279   2.014   .     S
O271   Zn279   2.005   .     S
O272   Zn280   2.005   .     S
O273   Zn280   1.992   .     S
O274   Zn279   1.992   .     S
O275   Zn279   1.975   .     S
O276   Zn280   1.975   .     S
O277   Zn280   1.978   .     S
O278   Zn279   1.978   .     S
C281   C294    1.436   .     S
C281   O343    1.288   .     A
C281   O341    1.291   .     A
C282   C284    1.422   .     A
C282   C305    1.530   .     S
C282   C311    1.425   .     A
C283   C303    1.411   .     A
C283   C312    1.422   .     A
C283   C704    1.519   1_554 S
C284   C307    1.412   .     A
C284   C703    1.519   .     S
C285   O347    1.280   .     A
C285   C287    1.400   .     S
C285   O345    1.281   .     A
C286   O348    1.279   .     A
C286   O346    1.282   .     A
C286   C288    1.401   .     S
C288   C357    1.326   .     S
C288   H394    1.088   .     S
C289   C300    1.401   .     A
C289   C291    1.381   .     A
C289   H330    1.083   .     S
C290   C301    1.400   .     A
C290   H331    1.083   .     S
C290   C293    1.381   .     A
C291   C294    1.397   .     A
C291   H332    1.084   .     S
C292   O342    1.293   .     A
C292   C295    1.441   .     S
C292   O344    1.289   .     A
C293   H333    1.082   .     S
C293   C295    1.398   .     A
C294   C296    1.399   .     A
C295   C297    1.401   .     A
C296   H334    1.084   .     S
C296   C298    1.380   .     A
C297   H335    1.083   .     S
C297   C299    1.380   .     A
C298   H336    1.083   .     S
C298   C300    1.398   .     A
C299   H314    1.083   .     S
C299   C301    1.398   .     A
C301   C90     1.445   1_565 S
C302   H323    1.105   .     S
C302   H322    1.105   .     S
C302   C312    1.530   .     S
C302   C304    1.528   .     S
C303   H315    1.080   .     S
C303   C308    1.407   .     A
C304   H319    1.111   .     S
C304   H321    1.109   .     S
C304   H740    1.106   1_554 S
C305   H328    1.105   .     S
C305   C306    1.528   .     S
C305   H329    1.105   .     S
C306   H325    1.111   .     S
C306   H746    1.107   .     S
C306   H747    1.111   .     S
C307   H316    1.081   .     S
C307   C309    1.407   .     A
C308   N339    1.361   .     A
C308   H317    1.082   .     S
C309   H318    1.081   .     S
C309   N340    1.361   .     A
C310   N339    1.380   .     A
C310   C312    1.425   .     A
C310   I337    2.139   .     S
C311   N340    1.380   .     A
C311   I338    2.141   .     S
H313   C357    1.087   .     S
H320   C724    1.106   .     S
H326   C726    1.107   1_554 S
H327   C726    1.111   1_554 S
N339   Zn350   2.014   .     S
N340   Zn349   2.014   .     S
O341   Zn349   2.005   .     S
O342   Zn350   2.005   .     S
O343   Zn350   1.992   .     S
O344   Zn349   1.992   .     S
O345   Zn349   1.975   .     S
O346   Zn350   1.975   .     S
O347   Zn350   1.978   .     S
O348   Zn349   1.978   .     S
C351   C364    1.436   .     S
C351   O413    1.288   .     A
C351   O411    1.291   .     A
C352   C354    1.422   .     A
C352   C375    1.530   .     S
C352   C381    1.425   .     A
C353   C373    1.411   .     A
C353   C382    1.422   .     A
C353   C774    1.519   1_554 S
C354   C377    1.412   .     A
C354   C773    1.519   .     S
C355   O417    1.280   .     A
C355   C357    1.400   .     S
C355   O415    1.281   .     A
C356   O418    1.279   .     A
C356   O416    1.282   .     A
C356   C358    1.401   .     S
C358   C217    1.326   1_655 S
C358   H254    1.088   1_655 S
C359   C370    1.401   .     A
C359   C361    1.381   .     A
C359   H400    1.083   .     S
C360   C371    1.400   .     A
C360   H401    1.083   .     S
C360   C363    1.381   .     A
C361   C364    1.397   .     A
C361   H402    1.084   .     S
C362   O412    1.293   .     A
C362   C365    1.441   .     S
C362   O414    1.289   .     A
C363   H403    1.082   .     S
C363   C365    1.398   .     A
C364   C366    1.399   .     A
C365   C367    1.401   .     A
C366   H404    1.084   .     S
C366   C368    1.380   .     A
C367   H405    1.083   .     S
C367   C369    1.380   .     A
C368   H406    1.083   .     S
C368   C370    1.398   .     A
C369   H384    1.083   .     S
C369   C371    1.398   .     A
C371   C160    1.445   1_565 S
C372   H393    1.105   .     S
C372   H392    1.105   .     S
C372   C382    1.530   .     S
C372   C374    1.528   .     S
C373   H385    1.080   .     S
C373   C378    1.407   .     A
C374   H389    1.111   .     S
C374   H391    1.109   .     S
C374   H810    1.106   1_554 S
C375   H398    1.105   .     S
C375   C376    1.528   .     S
C375   H399    1.105   .     S
C376   H395    1.111   .     S
C376   H816    1.107   .     S
C376   H817    1.111   .     S
C377   H386    1.081   .     S
C377   C379    1.407   .     A
C378   N409    1.361   .     A
C378   H387    1.082   .     S
C379   H388    1.081   .     S
C379   N410    1.361   .     A
C380   N409    1.380   .     A
C380   C382    1.425   .     A
C380   I407    2.139   .     S
C381   N410    1.380   .     A
C381   I408    2.141   .     S
H383   C217    1.087   1_655 S
H390   C794    1.106   .     S
H396   C796    1.107   1_554 S
H397   C796    1.111   1_554 S
N409   Zn420   2.014   .     S
N410   Zn419   2.014   .     S
O411   Zn419   2.005   .     S
O412   Zn420   2.005   .     S
O413   Zn420   1.992   .     S
O414   Zn419   1.992   .     S
O415   Zn419   1.975   .     S
O416   Zn420   1.975   .     S
O417   Zn420   1.978   .     S
O418   Zn419   1.978   .     S
C421   C434    1.436   .     S
C421   O483    1.288   .     A
C421   O481    1.291   .     A
C422   C424    1.422   .     A
C422   C445    1.530   .     S
C422   C451    1.425   .     A
C423   C443    1.411   .     A
C423   C452    1.422   .     A
C424   C447    1.412   .     A
C424   C3      1.519   1_556 S
C425   O487    1.280   .     A
C425   C427    1.400   .     S
C425   O485    1.281   .     A
C426   O488    1.279   .     A
C426   O486    1.282   .     A
C426   C428    1.401   .     S
C427   C568    1.326   1_455 S
C427   H593    1.087   1_455 S
C428   C497    1.326   .     S
C428   H534    1.088   .     S
C429   C440    1.401   .     A
C429   C431    1.381   .     A
C429   H470    1.083   .     S
C430   C441    1.400   .     A
C430   H471    1.083   .     S
C430   C433    1.381   .     A
C431   C434    1.397   .     A
C431   H472    1.084   .     S
C432   O482    1.293   .     A
C432   C435    1.441   .     S
C432   O484    1.289   .     A
C433   H473    1.082   .     S
C433   C435    1.398   .     A
C434   C436    1.399   .     A
C435   C437    1.401   .     A
C436   H474    1.084   .     S
C436   C438    1.380   .     A
C437   H475    1.083   .     S
C437   C439    1.380   .     A
C438   H476    1.083   .     S
C438   C440    1.398   .     A
C439   H454    1.083   .     S
C439   C441    1.398   .     A
C440   C651    1.445   1_545 S
C441   C650    1.445   .     S
C442   H463    1.105   .     S
C442   H462    1.105   .     S
C442   C452    1.530   .     S
C442   C444    1.528   .     S
C443   H455    1.080   .     S
C443   C448    1.407   .     A
C444   H459    1.111   .     S
C444   H461    1.109   .     S
C445   H468    1.105   .     S
C445   C446    1.528   .     S
C445   H469    1.105   .     S
C446   H465    1.111   .     S
C446   H46     1.107   1_556 S
C446   H47     1.111   1_556 S
C447   H456    1.081   .     S
C447   C449    1.407   .     A
C448   N479    1.361   .     A
C448   H457    1.082   .     S
C449   H458    1.081   .     S
C449   N480    1.361   .     A
C450   N479    1.380   .     A
C450   C452    1.425   .     A
C450   I477    2.139   .     S
C451   N480    1.380   .     A
C451   I478    2.141   .     S
H453   C497    1.087   .     S
H460   C24     1.106   1_556 S
H464   C568    1.088   1_455 S
N479   Zn490   2.014   .     S
N480   Zn489   2.014   .     S
O481   Zn489   2.005   .     S
O482   Zn490   2.005   .     S
O483   Zn490   1.992   .     S
O484   Zn489   1.992   .     S
O485   Zn489   1.975   .     S
O486   Zn490   1.975   .     S
O487   Zn490   1.978   .     S
O488   Zn489   1.978   .     S
C491   C504    1.436   .     S
C491   O553    1.288   .     A
C491   O551    1.291   .     A
C492   C494    1.422   .     A
C492   C515    1.530   .     S
C492   C521    1.425   .     A
C493   C513    1.411   .     A
C493   C522    1.422   .     A
C494   C517    1.412   .     A
C494   C73     1.519   1_556 S
C495   O557    1.280   .     A
C495   C497    1.400   .     S
C495   O555    1.281   .     A
C496   O558    1.279   .     A
C496   O556    1.282   .     A
C496   C498    1.401   .     S
C498   C567    1.326   .     S
C498   H604    1.088   .     S
C499   C510    1.401   .     A
C499   C501    1.381   .     A
C499   H540    1.083   .     S
C500   C511    1.400   .     A
C500   H541    1.083   .     S
C500   C503    1.381   .     A
C501   C504    1.397   .     A
C501   H542    1.084   .     S
C502   O552    1.293   .     A
C502   C505    1.441   .     S
C502   O554    1.289   .     A
C503   H543    1.082   .     S
C503   C505    1.398   .     A
C504   C506    1.399   .     A
C505   C507    1.401   .     A
C506   H544    1.084   .     S
C506   C508    1.380   .     A
C507   H545    1.083   .     S
C507   C509    1.380   .     A
C508   H546    1.083   .     S
C508   C510    1.398   .     A
C509   H524    1.083   .     S
C509   C511    1.398   .     A
C510   C721    1.445   1_545 S
C511   C720    1.445   .     S
C512   H533    1.105   .     S
C512   H532    1.105   .     S
C512   C522    1.530   .     S
C512   C514    1.528   .     S
C513   H525    1.080   .     S
C513   C518    1.407   .     A
C514   H529    1.111   .     S
C514   H531    1.109   .     S
C515   H538    1.105   .     S
C515   C516    1.528   .     S
C515   H539    1.105   .     S
C516   H535    1.111   .     S
C516   H116    1.107   1_556 S
C516   H117    1.111   1_556 S
C517   H526    1.081   .     S
C517   C519    1.407   .     A
C518   N549    1.361   .     A
C518   H527    1.082   .     S
C519   H528    1.081   .     S
C519   N550    1.361   .     A
C520   N549    1.380   .     A
C520   C522    1.425   .     A
C520   I547    2.139   .     S
C521   N550    1.380   .     A
C521   I548    2.141   .     S
H523   C567    1.087   .     S
H530   C94     1.106   1_556 S
N549   Zn560   2.014   .     S
N550   Zn559   2.014   .     S
O551   Zn559   2.005   .     S
O552   Zn560   2.005   .     S
O553   Zn560   1.992   .     S
O554   Zn559   1.992   .     S
O555   Zn559   1.975   .     S
O556   Zn560   1.975   .     S
O557   Zn560   1.978   .     S
O558   Zn559   1.978   .     S
C561   C574    1.436   .     S
C561   O623    1.288   .     A
C561   O621    1.291   .     A
C562   C564    1.422   .     A
C562   C585    1.530   .     S
C562   C591    1.425   .     A
C563   C583    1.411   .     A
C563   C592    1.422   .     A
C564   C587    1.412   .     A
C564   C143    1.519   1_556 S
C565   O627    1.280   .     A
C565   C567    1.400   .     S
C565   O625    1.281   .     A
C566   O628    1.279   .     A
C566   O626    1.282   .     A
C566   C568    1.401   .     S
C568   C427    1.326   1_655 S
C568   H464    1.088   1_655 S
C569   C580    1.401   .     A
C569   C571    1.381   .     A
C569   H610    1.083   .     S
C570   C581    1.400   .     A
C570   H611    1.083   .     S
C570   C573    1.381   .     A
C571   C574    1.397   .     A
C571   H612    1.084   .     S
C572   O622    1.293   .     A
C572   C575    1.441   .     S
C572   O624    1.289   .     A
C573   H613    1.082   .     S
C573   C575    1.398   .     A
C574   C576    1.399   .     A
C575   C577    1.401   .     A
C576   H614    1.084   .     S
C576   C578    1.380   .     A
C577   H615    1.083   .     S
C577   C579    1.380   .     A
C578   H616    1.083   .     S
C578   C580    1.398   .     A
C579   H594    1.083   .     S
C579   C581    1.398   .     A
C580   C791    1.445   1_545 S
C581   C790    1.445   .     S
C582   H603    1.105   .     S
C582   H602    1.105   .     S
C582   C592    1.530   .     S
C582   C584    1.528   .     S
C583   H595    1.080   .     S
C583   C588    1.407   .     A
C584   H599    1.111   .     S
C584   H601    1.109   .     S
C585   H608    1.105   .     S
C585   C586    1.528   .     S
C585   H609    1.105   .     S
C586   H605    1.111   .     S
C586   H186    1.107   1_556 S
C586   H187    1.111   1_556 S
C587   H596    1.081   .     S
C587   C589    1.407   .     A
C588   N619    1.361   .     A
C588   H597    1.082   .     S
C589   H598    1.081   .     S
C589   N620    1.361   .     A
C590   N619    1.380   .     A
C590   C592    1.425   .     A
C590   I617    2.139   .     S
C591   N620    1.380   .     A
C591   I618    2.141   .     S
H593   C427    1.087   1_655 S
H600   C164    1.106   1_556 S
N619   Zn630   2.014   .     S
N620   Zn629   2.014   .     S
O621   Zn629   2.005   .     S
O622   Zn630   2.005   .     S
O623   Zn630   1.992   .     S
O624   Zn629   1.992   .     S
O625   Zn629   1.975   .     S
O626   Zn630   1.975   .     S
O627   Zn630   1.978   .     S
O628   Zn629   1.978   .     S
C631   C644    1.436   .     S
C631   O693    1.288   .     A
C631   O691    1.291   .     A
C632   C634    1.422   .     A
C632   C655    1.530   .     S
C632   C661    1.425   .     A
C633   C653    1.411   .     A
C633   C662    1.422   .     A
C634   C657    1.412   .     A
C634   C213    1.519   1_556 S
C635   O697    1.280   .     A
C635   C637    1.400   .     S
C635   O695    1.281   .     A
C636   O698    1.279   .     A
C636   O696    1.282   .     A
C636   C638    1.401   .     S
C637   C778    1.326   1_455 S
C637   H803    1.087   1_455 S
C638   C707    1.326   .     S
C638   H744    1.088   .     S
C639   C650    1.401   .     A
C639   C641    1.381   .     A
C639   H680    1.083   .     S
C640   C651    1.400   .     A
C640   H681    1.083   .     S
C640   C643    1.381   .     A
C641   C644    1.397   .     A
C641   H682    1.084   .     S
C642   O692    1.293   .     A
C642   C645    1.441   .     S
C642   O694    1.289   .     A
C643   H683    1.082   .     S
C643   C645    1.398   .     A
C644   C646    1.399   .     A
C645   C647    1.401   .     A
C646   H684    1.084   .     S
C646   C648    1.380   .     A
C647   H685    1.083   .     S
C647   C649    1.380   .     A
C648   H686    1.083   .     S
C648   C650    1.398   .     A
C649   H664    1.083   .     S
C649   C651    1.398   .     A
C651   C440    1.445   1_565 S
C652   H673    1.105   .     S
C652   H672    1.105   .     S
C652   C662    1.530   .     S
C652   C654    1.528   .     S
C653   H665    1.080   .     S
C653   C658    1.407   .     A
C654   H669    1.111   .     S
C654   H671    1.109   .     S
C655   H678    1.105   .     S
C655   C656    1.528   .     S
C655   H679    1.105   .     S
C656   H675    1.111   .     S
C656   H256    1.107   1_556 S
C656   H257    1.111   1_556 S
C657   H666    1.081   .     S
C657   C659    1.407   .     A
C658   N689    1.361   .     A
C658   H667    1.082   .     S
C659   H668    1.081   .     S
C659   N690    1.361   .     A
C660   N689    1.380   .     A
C660   C662    1.425   .     A
C660   I687    2.139   .     S
C661   N690    1.380   .     A
C661   I688    2.141   .     S
H663   C707    1.087   .     S
H670   C234    1.106   1_556 S
H674   C778    1.088   1_455 S
N689   Zn700   2.014   .     S
N690   Zn699   2.014   .     S
O691   Zn699   2.005   .     S
O692   Zn700   2.005   .     S
O693   Zn700   1.992   .     S
O694   Zn699   1.992   .     S
O695   Zn699   1.975   .     S
O696   Zn700   1.975   .     S
O697   Zn700   1.978   .     S
O698   Zn699   1.978   .     S
C701   C714    1.436   .     S
C701   O763    1.288   .     A
C701   O761    1.291   .     A
C702   C704    1.422   .     A
C702   C725    1.530   .     S
C702   C731    1.425   .     A
C703   C723    1.411   .     A
C703   C732    1.422   .     A
C704   C727    1.412   .     A
C704   C283    1.519   1_556 S
C705   O767    1.280   .     A
C705   C707    1.400   .     S
C705   O765    1.281   .     A
C706   O768    1.279   .     A
C706   O766    1.282   .     A
C706   C708    1.401   .     S
C708   C777    1.326   .     S
C708   H814    1.088   .     S
C709   C720    1.401   .     A
C709   C711    1.381   .     A
C709   H750    1.083   .     S
C710   C721    1.400   .     A
C710   H751    1.083   .     S
C710   C713    1.381   .     A
C711   C714    1.397   .     A
C711   H752    1.084   .     S
C712   O762    1.293   .     A
C712   C715    1.441   .     S
C712   O764    1.289   .     A
C713   H753    1.082   .     S
C713   C715    1.398   .     A
C714   C716    1.399   .     A
C715   C717    1.401   .     A
C716   H754    1.084   .     S
C716   C718    1.380   .     A
C717   H755    1.083   .     S
C717   C719    1.380   .     A
C718   H756    1.083   .     S
C718   C720    1.398   .     A
C719   H734    1.083   .     S
C719   C721    1.398   .     A
C721   C510    1.445   1_565 S
C722   H743    1.105   .     S
C722   H742    1.105   .     S
C722   C732    1.530   .     S
C722   C724    1.528   .     S
C723   H735    1.080   .     S
C723   C728    1.407   .     A
C724   H739    1.111   .     S
C724   H741    1.109   .     S
C725   H748    1.105   .     S
C725   C726    1.528   .     S
C725   H749    1.105   .     S
C726   H745    1.111   .     S
C726   H326    1.107   1_556 S
C726   H327    1.111   1_556 S
C727   H736    1.081   .     S
C727   C729    1.407   .     A
C728   N759    1.361   .     A
C728   H737    1.082   .     S
C729   H738    1.081   .     S
C729   N760    1.361   .     A
C730   N759    1.380   .     A
C730   C732    1.425   .     A
C730   I757    2.139   .     S
C731   N760    1.380   .     A
C731   I758    2.141   .     S
H733   C777    1.087   .     S
H740   C304    1.106   1_556 S
N759   Zn770   2.014   .     S
N760   Zn769   2.014   .     S
O761   Zn769   2.005   .     S
O762   Zn770   2.005   .     S
O763   Zn770   1.992   .     S
O764   Zn769   1.992   .     S
O765   Zn769   1.975   .     S
O766   Zn770   1.975   .     S
O767   Zn770   1.978   .     S
O768   Zn769   1.978   .     S
C771   C784    1.436   .     S
C771   O833    1.288   .     A
C771   O831    1.291   .     A
C772   C774    1.422   .     A
C772   C795    1.530   .     S
C772   C801    1.425   .     A
C773   C793    1.411   .     A
C773   C802    1.422   .     A
C774   C797    1.412   .     A
C774   C353    1.519   1_556 S
C775   O837    1.280   .     A
C775   C777    1.400   .     S
C775   O835    1.281   .     A
C776   O838    1.279   .     A
C776   O836    1.282   .     A
C776   C778    1.401   .     S
C778   C637    1.326   1_655 S
C778   H674    1.088   1_655 S
C779   C790    1.401   .     A
C779   C781    1.381   .     A
C779   H820    1.083   .     S
C780   C791    1.400   .     A
C780   H821    1.083   .     S
C780   C783    1.381   .     A
C781   C784    1.397   .     A
C781   H822    1.084   .     S
C782   O832    1.293   .     A
C782   C785    1.441   .     S
C782   O834    1.289   .     A
C783   H823    1.082   .     S
C783   C785    1.398   .     A
C784   C786    1.399   .     A
C785   C787    1.401   .     A
C786   H824    1.084   .     S
C786   C788    1.380   .     A
C787   H825    1.083   .     S
C787   C789    1.380   .     A
C788   H826    1.083   .     S
C788   C790    1.398   .     A
C789   H804    1.083   .     S
C789   C791    1.398   .     A
C791   C580    1.445   1_565 S
C792   H813    1.105   .     S
C792   H812    1.105   .     S
C792   C802    1.530   .     S
C792   C794    1.528   .     S
C793   H805    1.080   .     S
C793   C798    1.407   .     A
C794   H809    1.111   .     S
C794   H811    1.109   .     S
C795   H818    1.105   .     S
C795   C796    1.528   .     S
C795   H819    1.105   .     S
C796   H815    1.111   .     S
C796   H396    1.107   1_556 S
C796   H397    1.111   1_556 S
C797   H806    1.081   .     S
C797   C799    1.407   .     A
C798   N829    1.361   .     A
C798   H807    1.082   .     S
C799   H808    1.081   .     S
C799   N830    1.361   .     A
C800   N829    1.380   .     A
C800   C802    1.425   .     A
C800   I827    2.139   .     S
C801   N830    1.380   .     A
C801   I828    2.141   .     S
H803   C637    1.087   1_655 S
H810   C374    1.106   1_556 S
N829   Zn840   2.014   .     S
N830   Zn839   2.014   .     S
O831   Zn839   2.005   .     S
O832   Zn840   2.005   .     S
O833   Zn840   1.992   .     S
O834   Zn839   1.992   .     S
O835   Zn839   1.975   .     S
O836   Zn840   1.975   .     S
O837   Zn840   1.978   .     S
O838   Zn839   1.978   .     S
