data_str_m2_o2_o10_pcu_sym.183
_audit_creation_date              2020-01-03
_audit_creation_method            'Materials Studio'
_symmetry_space_group_name_H-M    'P1'
_symmetry_Int_Tables_number       1
_symmetry_cell_setting            triclinic
loop_
_symmetry_equiv_pos_as_xyz
  x,y,z
_cell_length_a                    26.1992
_cell_length_b                    30.1803
_cell_length_c                    27.7387
_cell_angle_alpha                 89.8867
_cell_angle_beta                  97.9370
_cell_angle_gamma                 90.1690
loop_
_atom_site_label
_atom_site_type_symbol
_atom_site_fract_x
_atom_site_fract_y
_atom_site_fract_z
_atom_site_U_iso_or_equiv
_atom_site_adp_type
_atom_site_occupancy
C1     C     0.16684   0.16492   0.25007   0.00000  Uiso   1.00
C2     C     0.16688   0.33506   0.24997   0.00000  Uiso   1.00
C3     C     0.19101   0.28399   0.05708   0.00000  Uiso   1.00
C4     C     0.12684   0.22957   0.44091   0.00000  Uiso   1.00
C5     C     0.19086   0.28319   0.10779   0.00000  Uiso   1.00
C6     C     0.12777   0.22965   0.39031   0.00000  Uiso   1.00
C7     C     0.14252   0.21683   0.10160   0.00000  Uiso   1.00
C8     C     0.20557   0.27034   0.40033   0.00000  Uiso   1.00
C9     C     0.14240   0.21602   0.05087   0.00000  Uiso   1.00
C10    C     0.20653   0.27045   0.45119   0.00000  Uiso   1.00
C11    C     0.16670   0.25001   0.02735   0.00000  Uiso   1.00
C12    C     0.16669   0.25002   0.47267   0.00000  Uiso   1.00
C13    C     0.06790   0.24999   0.23756   0.00000  Uiso   1.00
C14    C     0.26544   0.25002   0.26245   0.00000  Uiso   1.00
C15    C     0.01263   0.25002   0.23069   0.00000  Uiso   1.00
C16    C     0.32070   0.25001   0.26932   0.00000  Uiso   1.00
C17    C     0.19559   0.04803   0.29143   0.00000  Uiso   1.00
C18    C     0.19707   0.45199   0.21710   0.00000  Uiso   1.00
C19    C     0.19305   0.09412   0.29119   0.00000  Uiso   1.00
C20    C     0.19453   0.40588   0.21667   0.00000  Uiso   1.00
C21    C     0.16811   0.11664   0.25042   0.00000  Uiso   1.00
C22    C     0.16815   0.38332   0.24992   0.00000  Uiso   1.00
C23    C     0.14508   0.09284   0.20985   0.00000  Uiso   1.00
C24    C     0.14362   0.40704   0.28340   0.00000  Uiso   1.00
C25    C     0.14630   0.04681   0.21036   0.00000  Uiso   1.00
C26    C     0.14480   0.45307   0.28314   0.00000  Uiso   1.00
C27    C     0.17182   0.02420   0.25081   0.00000  Uiso   1.00
C28    C     0.17179   0.47576   0.25042   0.00000  Uiso   1.00
Cu29   Cu    0.16667   0.24999   0.29822   0.00000  Uiso   1.00
Cu30   Cu    0.16667   0.25000   0.20179   0.00000  Uiso   1.00
H31    H     0.32598   0.25006   0.19363   0.00000  Uiso   1.00
H32    H     0.00735   0.24997   0.30639   0.00000  Uiso   1.00
H33    H     0.21162   0.11239   0.32239   0.00000  Uiso   1.00
H34    H     0.21423   0.38763   0.19117   0.00000  Uiso   1.00
H35    H     0.12546   0.10982   0.17817   0.00000  Uiso   1.00
H36    H     0.12288   0.38999   0.30913   0.00000  Uiso   1.00
H37    H     0.12745   0.02871   0.17915   0.00000  Uiso   1.00
H38    H     0.12479   0.47113   0.30856   0.00000  Uiso   1.00
H39    H     0.20957   0.31155   0.04147   0.00000  Uiso   1.00
H40    H     0.09455   0.21400   0.45471   0.00000  Uiso   1.00
H41    H     0.21007   0.30941   0.12986   0.00000  Uiso   1.00
H42    H     0.09702   0.21344   0.36675   0.00000  Uiso   1.00
H43    H     0.12330   0.19058   0.11876   0.00000  Uiso   1.00
H44    H     0.23632   0.28652   0.38469   0.00000  Uiso   1.00
H45    H     0.12387   0.18846   0.03054   0.00000  Uiso   1.00
H46    H     0.23882   0.28603   0.47332   0.00000  Uiso   1.00
N47    N     0.16667   0.25001   0.12935   0.00000  Uiso   1.00
N48    N     0.16667   0.24999   0.37066   0.00000  Uiso   1.00
O49    O     0.16667   0.18572   0.29072   0.00000  Uiso   1.00
O50    O     0.16666   0.31427   0.20929   0.00000  Uiso   1.00
O51    O     0.16667   0.18573   0.20928   0.00000  Uiso   1.00
O52    O     0.16666   0.31427   0.29072   0.00000  Uiso   1.00
O53    O     0.09161   0.24999   0.28132   0.00000  Uiso   1.00
O54    O     0.24172   0.25000   0.21868   0.00000  Uiso   1.00
O55    O     0.09161   0.25000   0.19989   0.00000  Uiso   1.00
O56    O     0.24172   0.25000   0.30012   0.00000  Uiso   1.00
I57    I     0.23807   0.01690   0.35296   0.00000  Uiso   1.00
I58    I     0.24188   0.48324   0.16851   0.00000  Uiso   1.00
C59    C     0.50018   0.16492   0.25007   0.00000  Uiso   1.00
C60    C     0.50021   0.33506   0.24997   0.00000  Uiso   1.00
C61    C     0.52435   0.28399   0.05708   0.00000  Uiso   1.00
C62    C     0.46017   0.22957   0.44091   0.00000  Uiso   1.00
C63    C     0.52419   0.28319   0.10779   0.00000  Uiso   1.00
C64    C     0.46111   0.22965   0.39031   0.00000  Uiso   1.00
C65    C     0.47585   0.21683   0.10160   0.00000  Uiso   1.00
C66    C     0.53890   0.27034   0.40033   0.00000  Uiso   1.00
C67    C     0.47573   0.21602   0.05087   0.00000  Uiso   1.00
C68    C     0.53986   0.27045   0.45119   0.00000  Uiso   1.00
C69    C     0.50004   0.25001   0.02735   0.00000  Uiso   1.00
C70    C     0.50002   0.25002   0.47267   0.00000  Uiso   1.00
C71    C     0.40123   0.24999   0.23756   0.00000  Uiso   1.00
C72    C     0.59877   0.25002   0.26245   0.00000  Uiso   1.00
C73    C     0.34596   0.25002   0.23069   0.00000  Uiso   1.00
C74    C     0.65404   0.25001   0.26932   0.00000  Uiso   1.00
C75    C     0.52892   0.04803   0.29143   0.00000  Uiso   1.00
C76    C     0.53041   0.45199   0.21710   0.00000  Uiso   1.00
C77    C     0.52638   0.09412   0.29119   0.00000  Uiso   1.00
C78    C     0.52787   0.40588   0.21667   0.00000  Uiso   1.00
C79    C     0.50144   0.11664   0.25042   0.00000  Uiso   1.00
C80    C     0.50148   0.38332   0.24992   0.00000  Uiso   1.00
C81    C     0.47841   0.09284   0.20985   0.00000  Uiso   1.00
C82    C     0.47695   0.40704   0.28340   0.00000  Uiso   1.00
C83    C     0.47964   0.04681   0.21036   0.00000  Uiso   1.00
C84    C     0.47813   0.45307   0.28314   0.00000  Uiso   1.00
C85    C     0.50515   0.02420   0.25081   0.00000  Uiso   1.00
C86    C     0.50512   0.47576   0.25042   0.00000  Uiso   1.00
Cu87   Cu    0.50000   0.24999   0.29822   0.00000  Uiso   1.00
Cu88   Cu    0.50000   0.25000   0.20179   0.00000  Uiso   1.00
H89    H     0.65932   0.25006   0.19363   0.00000  Uiso   1.00
H90    H     0.34068   0.24997   0.30639   0.00000  Uiso   1.00
H91    H     0.54495   0.11239   0.32239   0.00000  Uiso   1.00
H92    H     0.54757   0.38763   0.19117   0.00000  Uiso   1.00
H93    H     0.45880   0.10982   0.17817   0.00000  Uiso   1.00
H94    H     0.45621   0.38999   0.30913   0.00000  Uiso   1.00
H95    H     0.46078   0.02871   0.17915   0.00000  Uiso   1.00
H96    H     0.45812   0.47113   0.30856   0.00000  Uiso   1.00
H97    H     0.54290   0.31155   0.04147   0.00000  Uiso   1.00
H98    H     0.42788   0.21400   0.45471   0.00000  Uiso   1.00
H99    H     0.54341   0.30941   0.12986   0.00000  Uiso   1.00
H100   H     0.43035   0.21344   0.36675   0.00000  Uiso   1.00
H101   H     0.45664   0.19058   0.11876   0.00000  Uiso   1.00
H102   H     0.56965   0.28652   0.38469   0.00000  Uiso   1.00
H103   H     0.45721   0.18846   0.03054   0.00000  Uiso   1.00
H104   H     0.57216   0.28603   0.47332   0.00000  Uiso   1.00
N105   N     0.50000   0.25001   0.12935   0.00000  Uiso   1.00
N106   N     0.50000   0.24999   0.37066   0.00000  Uiso   1.00
O107   O     0.50000   0.18572   0.29072   0.00000  Uiso   1.00
O108   O     0.50000   0.31427   0.20929   0.00000  Uiso   1.00
O109   O     0.50000   0.18573   0.20928   0.00000  Uiso   1.00
O110   O     0.50000   0.31427   0.29072   0.00000  Uiso   1.00
O111   O     0.42495   0.24999   0.28132   0.00000  Uiso   1.00
O112   O     0.57505   0.25000   0.21868   0.00000  Uiso   1.00
O113   O     0.42495   0.25000   0.19989   0.00000  Uiso   1.00
O114   O     0.57505   0.25000   0.30012   0.00000  Uiso   1.00
I115   I     0.57140   0.01690   0.35296   0.00000  Uiso   1.00
I116   I     0.57521   0.48324   0.16851   0.00000  Uiso   1.00
C117   C     0.83351   0.16492   0.25007   0.00000  Uiso   1.00
C118   C     0.83354   0.33506   0.24997   0.00000  Uiso   1.00
C119   C     0.85768   0.28399   0.05708   0.00000  Uiso   1.00
C120   C     0.79351   0.22957   0.44091   0.00000  Uiso   1.00
C121   C     0.85752   0.28319   0.10779   0.00000  Uiso   1.00
C122   C     0.79444   0.22965   0.39031   0.00000  Uiso   1.00
C123   C     0.80919   0.21683   0.10160   0.00000  Uiso   1.00
C124   C     0.87224   0.27034   0.40033   0.00000  Uiso   1.00
C125   C     0.80907   0.21602   0.05087   0.00000  Uiso   1.00
C126   C     0.87319   0.27045   0.45119   0.00000  Uiso   1.00
C127   C     0.83337   0.25001   0.02735   0.00000  Uiso   1.00
C128   C     0.83336   0.25002   0.47267   0.00000  Uiso   1.00
C129   C     0.73456   0.24999   0.23756   0.00000  Uiso   1.00
C130   C     0.93210   0.25002   0.26245   0.00000  Uiso   1.00
C131   C     0.67930   0.25002   0.23069   0.00000  Uiso   1.00
C132   C     0.98737   0.25001   0.26932   0.00000  Uiso   1.00
C133   C     0.86225   0.04803   0.29143   0.00000  Uiso   1.00
C134   C     0.86374   0.45199   0.21710   0.00000  Uiso   1.00
C135   C     0.85972   0.09412   0.29119   0.00000  Uiso   1.00
C136   C     0.86120   0.40588   0.21667   0.00000  Uiso   1.00
C137   C     0.83478   0.11664   0.25042   0.00000  Uiso   1.00
C138   C     0.83482   0.38332   0.24992   0.00000  Uiso   1.00
C139   C     0.81174   0.09284   0.20985   0.00000  Uiso   1.00
C140   C     0.81029   0.40704   0.28340   0.00000  Uiso   1.00
C141   C     0.81297   0.04681   0.21036   0.00000  Uiso   1.00
C142   C     0.81147   0.45307   0.28314   0.00000  Uiso   1.00
C143   C     0.83848   0.02420   0.25081   0.00000  Uiso   1.00
C144   C     0.83846   0.47576   0.25042   0.00000  Uiso   1.00
Cu145  Cu    0.83333   0.24999   0.29822   0.00000  Uiso   1.00
Cu146  Cu    0.83333   0.25000   0.20179   0.00000  Uiso   1.00
H147   H     0.99265   0.25006   0.19363   0.00000  Uiso   1.00
H148   H     0.67401   0.24997   0.30639   0.00000  Uiso   1.00
H149   H     0.87829   0.11239   0.32239   0.00000  Uiso   1.00
H150   H     0.88090   0.38763   0.19117   0.00000  Uiso   1.00
H151   H     0.79213   0.10982   0.17817   0.00000  Uiso   1.00
H152   H     0.78954   0.38999   0.30913   0.00000  Uiso   1.00
H153   H     0.79411   0.02871   0.17915   0.00000  Uiso   1.00
H154   H     0.79145   0.47113   0.30856   0.00000  Uiso   1.00
H155   H     0.87623   0.31155   0.04147   0.00000  Uiso   1.00
H156   H     0.76121   0.21400   0.45471   0.00000  Uiso   1.00
H157   H     0.87674   0.30941   0.12986   0.00000  Uiso   1.00
H158   H     0.76368   0.21344   0.36675   0.00000  Uiso   1.00
H159   H     0.78997   0.19058   0.11876   0.00000  Uiso   1.00
H160   H     0.90299   0.28652   0.38469   0.00000  Uiso   1.00
H161   H     0.79054   0.18846   0.03054   0.00000  Uiso   1.00
H162   H     0.90549   0.28603   0.47332   0.00000  Uiso   1.00
N163   N     0.83333   0.25001   0.12935   0.00000  Uiso   1.00
N164   N     0.83333   0.24999   0.37066   0.00000  Uiso   1.00
O165   O     0.83334   0.18572   0.29072   0.00000  Uiso   1.00
O166   O     0.83333   0.31427   0.20929   0.00000  Uiso   1.00
O167   O     0.83334   0.18573   0.20928   0.00000  Uiso   1.00
O168   O     0.83333   0.31427   0.29072   0.00000  Uiso   1.00
O169   O     0.75828   0.24999   0.28132   0.00000  Uiso   1.00
O170   O     0.90839   0.25000   0.21868   0.00000  Uiso   1.00
O171   O     0.75828   0.25000   0.19989   0.00000  Uiso   1.00
O172   O     0.90839   0.25000   0.30012   0.00000  Uiso   1.00
I173   I     0.90473   0.01690   0.35296   0.00000  Uiso   1.00
I174   I     0.90855   0.48324   0.16851   0.00000  Uiso   1.00
C175   C     0.16684   0.66492   0.25007   0.00000  Uiso   1.00
C176   C     0.16688   0.83506   0.24997   0.00000  Uiso   1.00
C177   C     0.19101   0.78399   0.05708   0.00000  Uiso   1.00
C178   C     0.12684   0.72957   0.44091   0.00000  Uiso   1.00
C179   C     0.19086   0.78319   0.10779   0.00000  Uiso   1.00
C180   C     0.12777   0.72965   0.39031   0.00000  Uiso   1.00
C181   C     0.14252   0.71683   0.10160   0.00000  Uiso   1.00
C182   C     0.20557   0.77034   0.40033   0.00000  Uiso   1.00
C183   C     0.14240   0.71602   0.05087   0.00000  Uiso   1.00
C184   C     0.20653   0.77045   0.45119   0.00000  Uiso   1.00
C185   C     0.16670   0.75001   0.02735   0.00000  Uiso   1.00
C186   C     0.16669   0.75002   0.47267   0.00000  Uiso   1.00
C187   C     0.06790   0.74999   0.23756   0.00000  Uiso   1.00
C188   C     0.26544   0.75002   0.26245   0.00000  Uiso   1.00
C189   C     0.01263   0.75002   0.23069   0.00000  Uiso   1.00
C190   C     0.32070   0.75001   0.26932   0.00000  Uiso   1.00
C191   C     0.19559   0.54803   0.29143   0.00000  Uiso   1.00
C192   C     0.19707   0.95199   0.21710   0.00000  Uiso   1.00
C193   C     0.19305   0.59412   0.29119   0.00000  Uiso   1.00
C194   C     0.19453   0.90588   0.21667   0.00000  Uiso   1.00
C195   C     0.16811   0.61664   0.25042   0.00000  Uiso   1.00
C196   C     0.16815   0.88332   0.24992   0.00000  Uiso   1.00
C197   C     0.14508   0.59284   0.20985   0.00000  Uiso   1.00
C198   C     0.14362   0.90704   0.28340   0.00000  Uiso   1.00
C199   C     0.14630   0.54681   0.21036   0.00000  Uiso   1.00
C200   C     0.14480   0.95307   0.28314   0.00000  Uiso   1.00
C201   C     0.17182   0.52420   0.25081   0.00000  Uiso   1.00
C202   C     0.17179   0.97576   0.25042   0.00000  Uiso   1.00
Cu203  Cu    0.16667   0.74999   0.29822   0.00000  Uiso   1.00
Cu204  Cu    0.16667   0.75000   0.20179   0.00000  Uiso   1.00
H205   H     0.32598   0.75006   0.19363   0.00000  Uiso   1.00
H206   H     0.00735   0.74997   0.30639   0.00000  Uiso   1.00
H207   H     0.21162   0.61239   0.32239   0.00000  Uiso   1.00
H208   H     0.21423   0.88763   0.19117   0.00000  Uiso   1.00
H209   H     0.12546   0.60982   0.17817   0.00000  Uiso   1.00
H210   H     0.12288   0.88999   0.30913   0.00000  Uiso   1.00
H211   H     0.12745   0.52871   0.17915   0.00000  Uiso   1.00
H212   H     0.12479   0.97113   0.30856   0.00000  Uiso   1.00
H213   H     0.20957   0.81155   0.04147   0.00000  Uiso   1.00
H214   H     0.09455   0.71400   0.45471   0.00000  Uiso   1.00
H215   H     0.21007   0.80941   0.12986   0.00000  Uiso   1.00
H216   H     0.09702   0.71344   0.36675   0.00000  Uiso   1.00
H217   H     0.12330   0.69058   0.11876   0.00000  Uiso   1.00
H218   H     0.23632   0.78652   0.38469   0.00000  Uiso   1.00
H219   H     0.12387   0.68846   0.03054   0.00000  Uiso   1.00
H220   H     0.23882   0.78603   0.47332   0.00000  Uiso   1.00
N221   N     0.16667   0.75001   0.12935   0.00000  Uiso   1.00
N222   N     0.16667   0.74999   0.37066   0.00000  Uiso   1.00
O223   O     0.16667   0.68572   0.29072   0.00000  Uiso   1.00
O224   O     0.16666   0.81427   0.20929   0.00000  Uiso   1.00
O225   O     0.16667   0.68573   0.20928   0.00000  Uiso   1.00
O226   O     0.16666   0.81427   0.29072   0.00000  Uiso   1.00
O227   O     0.09161   0.74999   0.28132   0.00000  Uiso   1.00
O228   O     0.24172   0.75000   0.21868   0.00000  Uiso   1.00
O229   O     0.09161   0.75000   0.19989   0.00000  Uiso   1.00
O230   O     0.24172   0.75000   0.30012   0.00000  Uiso   1.00
I231   I     0.23807   0.51690   0.35296   0.00000  Uiso   1.00
I232   I     0.24188   0.98324   0.16851   0.00000  Uiso   1.00
C233   C     0.50018   0.66492   0.25007   0.00000  Uiso   1.00
C234   C     0.50021   0.83506   0.24997   0.00000  Uiso   1.00
C235   C     0.52435   0.78399   0.05708   0.00000  Uiso   1.00
C236   C     0.46017   0.72957   0.44091   0.00000  Uiso   1.00
C237   C     0.52419   0.78319   0.10779   0.00000  Uiso   1.00
C238   C     0.46111   0.72965   0.39031   0.00000  Uiso   1.00
C239   C     0.47585   0.71683   0.10160   0.00000  Uiso   1.00
C240   C     0.53890   0.77034   0.40033   0.00000  Uiso   1.00
C241   C     0.47573   0.71602   0.05087   0.00000  Uiso   1.00
C242   C     0.53986   0.77045   0.45119   0.00000  Uiso   1.00
C243   C     0.50004   0.75001   0.02735   0.00000  Uiso   1.00
C244   C     0.50002   0.75002   0.47267   0.00000  Uiso   1.00
C245   C     0.40123   0.74999   0.23756   0.00000  Uiso   1.00
C246   C     0.59877   0.75002   0.26245   0.00000  Uiso   1.00
C247   C     0.34596   0.75002   0.23069   0.00000  Uiso   1.00
C248   C     0.65404   0.75001   0.26932   0.00000  Uiso   1.00
C249   C     0.52892   0.54803   0.29143   0.00000  Uiso   1.00
C250   C     0.53041   0.95199   0.21710   0.00000  Uiso   1.00
C251   C     0.52638   0.59412   0.29119   0.00000  Uiso   1.00
C252   C     0.52787   0.90588   0.21667   0.00000  Uiso   1.00
C253   C     0.50144   0.61664   0.25042   0.00000  Uiso   1.00
C254   C     0.50148   0.88332   0.24992   0.00000  Uiso   1.00
C255   C     0.47841   0.59284   0.20985   0.00000  Uiso   1.00
C256   C     0.47695   0.90704   0.28340   0.00000  Uiso   1.00
C257   C     0.47964   0.54681   0.21036   0.00000  Uiso   1.00
C258   C     0.47813   0.95307   0.28314   0.00000  Uiso   1.00
C259   C     0.50515   0.52420   0.25081   0.00000  Uiso   1.00
C260   C     0.50512   0.97576   0.25042   0.00000  Uiso   1.00
Cu261  Cu    0.50000   0.74999   0.29822   0.00000  Uiso   1.00
Cu262  Cu    0.50000   0.75000   0.20179   0.00000  Uiso   1.00
H263   H     0.65932   0.75006   0.19363   0.00000  Uiso   1.00
H264   H     0.34068   0.74997   0.30639   0.00000  Uiso   1.00
H265   H     0.54495   0.61239   0.32239   0.00000  Uiso   1.00
H266   H     0.54757   0.88763   0.19117   0.00000  Uiso   1.00
H267   H     0.45880   0.60982   0.17817   0.00000  Uiso   1.00
H268   H     0.45621   0.88999   0.30913   0.00000  Uiso   1.00
H269   H     0.46078   0.52871   0.17915   0.00000  Uiso   1.00
H270   H     0.45812   0.97113   0.30856   0.00000  Uiso   1.00
H271   H     0.54290   0.81155   0.04147   0.00000  Uiso   1.00
H272   H     0.42788   0.71400   0.45471   0.00000  Uiso   1.00
H273   H     0.54341   0.80941   0.12986   0.00000  Uiso   1.00
H274   H     0.43035   0.71344   0.36675   0.00000  Uiso   1.00
H275   H     0.45664   0.69058   0.11876   0.00000  Uiso   1.00
H276   H     0.56965   0.78652   0.38469   0.00000  Uiso   1.00
H277   H     0.45721   0.68846   0.03054   0.00000  Uiso   1.00
H278   H     0.57216   0.78603   0.47332   0.00000  Uiso   1.00
N279   N     0.50000   0.75001   0.12935   0.00000  Uiso   1.00
N280   N     0.50000   0.74999   0.37066   0.00000  Uiso   1.00
O281   O     0.50000   0.68572   0.29072   0.00000  Uiso   1.00
O282   O     0.50000   0.81427   0.20929   0.00000  Uiso   1.00
O283   O     0.50000   0.68573   0.20928   0.00000  Uiso   1.00
O284   O     0.50000   0.81427   0.29072   0.00000  Uiso   1.00
O285   O     0.42495   0.74999   0.28132   0.00000  Uiso   1.00
O286   O     0.57505   0.75000   0.21868   0.00000  Uiso   1.00
O287   O     0.42495   0.75000   0.19989   0.00000  Uiso   1.00
O288   O     0.57505   0.75000   0.30012   0.00000  Uiso   1.00
I289   I     0.57140   0.51690   0.35296   0.00000  Uiso   1.00
I290   I     0.57521   0.98324   0.16851   0.00000  Uiso   1.00
C291   C     0.83351   0.66492   0.25007   0.00000  Uiso   1.00
C292   C     0.83354   0.83506   0.24997   0.00000  Uiso   1.00
C293   C     0.85768   0.78399   0.05708   0.00000  Uiso   1.00
C294   C     0.79351   0.72957   0.44091   0.00000  Uiso   1.00
C295   C     0.85752   0.78319   0.10779   0.00000  Uiso   1.00
C296   C     0.79444   0.72965   0.39031   0.00000  Uiso   1.00
C297   C     0.80919   0.71683   0.10160   0.00000  Uiso   1.00
C298   C     0.87224   0.77034   0.40033   0.00000  Uiso   1.00
C299   C     0.80907   0.71602   0.05087   0.00000  Uiso   1.00
C300   C     0.87319   0.77045   0.45119   0.00000  Uiso   1.00
C301   C     0.83337   0.75001   0.02735   0.00000  Uiso   1.00
C302   C     0.83336   0.75002   0.47267   0.00000  Uiso   1.00
C303   C     0.73456   0.74999   0.23756   0.00000  Uiso   1.00
C304   C     0.93210   0.75002   0.26245   0.00000  Uiso   1.00
C305   C     0.67930   0.75002   0.23069   0.00000  Uiso   1.00
C306   C     0.98737   0.75001   0.26932   0.00000  Uiso   1.00
C307   C     0.86225   0.54803   0.29143   0.00000  Uiso   1.00
C308   C     0.86374   0.95199   0.21710   0.00000  Uiso   1.00
C309   C     0.85972   0.59412   0.29119   0.00000  Uiso   1.00
C310   C     0.86120   0.90588   0.21667   0.00000  Uiso   1.00
C311   C     0.83478   0.61664   0.25042   0.00000  Uiso   1.00
C312   C     0.83482   0.88332   0.24992   0.00000  Uiso   1.00
C313   C     0.81174   0.59284   0.20985   0.00000  Uiso   1.00
C314   C     0.81029   0.90704   0.28340   0.00000  Uiso   1.00
C315   C     0.81297   0.54681   0.21036   0.00000  Uiso   1.00
C316   C     0.81147   0.95307   0.28314   0.00000  Uiso   1.00
C317   C     0.83848   0.52420   0.25081   0.00000  Uiso   1.00
C318   C     0.83846   0.97576   0.25042   0.00000  Uiso   1.00
Cu319  Cu    0.83333   0.74999   0.29822   0.00000  Uiso   1.00
Cu320  Cu    0.83333   0.75000   0.20179   0.00000  Uiso   1.00
H321   H     0.99265   0.75006   0.19363   0.00000  Uiso   1.00
H322   H     0.67401   0.74997   0.30639   0.00000  Uiso   1.00
H323   H     0.87829   0.61239   0.32239   0.00000  Uiso   1.00
H324   H     0.88090   0.88763   0.19117   0.00000  Uiso   1.00
H325   H     0.79213   0.60982   0.17817   0.00000  Uiso   1.00
H326   H     0.78954   0.88999   0.30913   0.00000  Uiso   1.00
H327   H     0.79411   0.52871   0.17915   0.00000  Uiso   1.00
H328   H     0.79145   0.97113   0.30856   0.00000  Uiso   1.00
H329   H     0.87623   0.81155   0.04147   0.00000  Uiso   1.00
H330   H     0.76121   0.71400   0.45471   0.00000  Uiso   1.00
H331   H     0.87674   0.80941   0.12986   0.00000  Uiso   1.00
H332   H     0.76368   0.71344   0.36675   0.00000  Uiso   1.00
H333   H     0.78997   0.69058   0.11876   0.00000  Uiso   1.00
H334   H     0.90299   0.78652   0.38469   0.00000  Uiso   1.00
H335   H     0.79054   0.68846   0.03054   0.00000  Uiso   1.00
H336   H     0.90549   0.78603   0.47332   0.00000  Uiso   1.00
N337   N     0.83333   0.75001   0.12935   0.00000  Uiso   1.00
N338   N     0.83333   0.74999   0.37066   0.00000  Uiso   1.00
O339   O     0.83334   0.68572   0.29072   0.00000  Uiso   1.00
O340   O     0.83333   0.81427   0.20929   0.00000  Uiso   1.00
O341   O     0.83334   0.68573   0.20928   0.00000  Uiso   1.00
O342   O     0.83333   0.81427   0.29072   0.00000  Uiso   1.00
O343   O     0.75828   0.74999   0.28132   0.00000  Uiso   1.00
O344   O     0.90839   0.75000   0.21868   0.00000  Uiso   1.00
O345   O     0.75828   0.75000   0.19989   0.00000  Uiso   1.00
O346   O     0.90839   0.75000   0.30012   0.00000  Uiso   1.00
I347   I     0.90473   0.51690   0.35296   0.00000  Uiso   1.00
I348   I     0.90855   0.98324   0.16851   0.00000  Uiso   1.00
C349   C     0.16684   0.16492   0.75007   0.00000  Uiso   1.00
C350   C     0.16688   0.33506   0.74997   0.00000  Uiso   1.00
C351   C     0.19101   0.28399   0.55708   0.00000  Uiso   1.00
C352   C     0.12684   0.22957   0.94091   0.00000  Uiso   1.00
C353   C     0.19086   0.28319   0.60779   0.00000  Uiso   1.00
C354   C     0.12777   0.22965   0.89031   0.00000  Uiso   1.00
C355   C     0.14252   0.21683   0.60160   0.00000  Uiso   1.00
C356   C     0.20557   0.27034   0.90033   0.00000  Uiso   1.00
C357   C     0.14240   0.21602   0.55087   0.00000  Uiso   1.00
C358   C     0.20653   0.27045   0.95119   0.00000  Uiso   1.00
C359   C     0.16670   0.25001   0.52735   0.00000  Uiso   1.00
C360   C     0.16669   0.25002   0.97267   0.00000  Uiso   1.00
C361   C     0.06790   0.24999   0.73756   0.00000  Uiso   1.00
C362   C     0.26544   0.25002   0.76245   0.00000  Uiso   1.00
C363   C     0.01263   0.25002   0.73069   0.00000  Uiso   1.00
C364   C     0.32070   0.25001   0.76932   0.00000  Uiso   1.00
C365   C     0.19559   0.04803   0.79143   0.00000  Uiso   1.00
C366   C     0.19707   0.45199   0.71710   0.00000  Uiso   1.00
C367   C     0.19305   0.09412   0.79119   0.00000  Uiso   1.00
C368   C     0.19453   0.40588   0.71667   0.00000  Uiso   1.00
C369   C     0.16811   0.11664   0.75042   0.00000  Uiso   1.00
C370   C     0.16815   0.38332   0.74992   0.00000  Uiso   1.00
C371   C     0.14508   0.09284   0.70985   0.00000  Uiso   1.00
C372   C     0.14362   0.40704   0.78340   0.00000  Uiso   1.00
C373   C     0.14630   0.04681   0.71036   0.00000  Uiso   1.00
C374   C     0.14480   0.45307   0.78314   0.00000  Uiso   1.00
C375   C     0.17182   0.02420   0.75081   0.00000  Uiso   1.00
C376   C     0.17179   0.47576   0.75042   0.00000  Uiso   1.00
Cu377  Cu    0.16667   0.24999   0.79822   0.00000  Uiso   1.00
Cu378  Cu    0.16667   0.25000   0.70179   0.00000  Uiso   1.00
H379   H     0.32598   0.25006   0.69363   0.00000  Uiso   1.00
H380   H     0.00735   0.24997   0.80639   0.00000  Uiso   1.00
H381   H     0.21162   0.11239   0.82239   0.00000  Uiso   1.00
H382   H     0.21423   0.38763   0.69117   0.00000  Uiso   1.00
H383   H     0.12546   0.10982   0.67817   0.00000  Uiso   1.00
H384   H     0.12288   0.38999   0.80913   0.00000  Uiso   1.00
H385   H     0.12745   0.02871   0.67915   0.00000  Uiso   1.00
H386   H     0.12479   0.47113   0.80856   0.00000  Uiso   1.00
H387   H     0.20957   0.31155   0.54147   0.00000  Uiso   1.00
H388   H     0.09455   0.21400   0.95471   0.00000  Uiso   1.00
H389   H     0.21007   0.30941   0.62986   0.00000  Uiso   1.00
H390   H     0.09702   0.21344   0.86675   0.00000  Uiso   1.00
H391   H     0.12330   0.19058   0.61876   0.00000  Uiso   1.00
H392   H     0.23632   0.28652   0.88469   0.00000  Uiso   1.00
H393   H     0.12387   0.18846   0.53054   0.00000  Uiso   1.00
H394   H     0.23882   0.28603   0.97332   0.00000  Uiso   1.00
N395   N     0.16667   0.25001   0.62935   0.00000  Uiso   1.00
N396   N     0.16667   0.24999   0.87066   0.00000  Uiso   1.00
O397   O     0.16667   0.18572   0.79072   0.00000  Uiso   1.00
O398   O     0.16666   0.31427   0.70929   0.00000  Uiso   1.00
O399   O     0.16667   0.18573   0.70928   0.00000  Uiso   1.00
O400   O     0.16666   0.31427   0.79072   0.00000  Uiso   1.00
O401   O     0.09161   0.24999   0.78132   0.00000  Uiso   1.00
O402   O     0.24172   0.25000   0.71868   0.00000  Uiso   1.00
O403   O     0.09161   0.25000   0.69989   0.00000  Uiso   1.00
O404   O     0.24172   0.25000   0.80012   0.00000  Uiso   1.00
I405   I     0.23807   0.01690   0.85296   0.00000  Uiso   1.00
I406   I     0.24188   0.48324   0.66851   0.00000  Uiso   1.00
C407   C     0.50018   0.16492   0.75007   0.00000  Uiso   1.00
C408   C     0.50021   0.33506   0.74997   0.00000  Uiso   1.00
C409   C     0.52435   0.28399   0.55708   0.00000  Uiso   1.00
C410   C     0.46017   0.22957   0.94091   0.00000  Uiso   1.00
C411   C     0.52419   0.28319   0.60779   0.00000  Uiso   1.00
C412   C     0.46111   0.22965   0.89031   0.00000  Uiso   1.00
C413   C     0.47585   0.21683   0.60160   0.00000  Uiso   1.00
C414   C     0.53890   0.27034   0.90033   0.00000  Uiso   1.00
C415   C     0.47573   0.21602   0.55087   0.00000  Uiso   1.00
C416   C     0.53986   0.27045   0.95119   0.00000  Uiso   1.00
C417   C     0.50004   0.25001   0.52735   0.00000  Uiso   1.00
C418   C     0.50002   0.25002   0.97267   0.00000  Uiso   1.00
C419   C     0.40123   0.24999   0.73756   0.00000  Uiso   1.00
C420   C     0.59877   0.25002   0.76245   0.00000  Uiso   1.00
C421   C     0.34596   0.25002   0.73069   0.00000  Uiso   1.00
C422   C     0.65404   0.25001   0.76932   0.00000  Uiso   1.00
C423   C     0.52892   0.04803   0.79143   0.00000  Uiso   1.00
C424   C     0.53041   0.45199   0.71710   0.00000  Uiso   1.00
C425   C     0.52638   0.09412   0.79119   0.00000  Uiso   1.00
C426   C     0.52787   0.40588   0.71667   0.00000  Uiso   1.00
C427   C     0.50144   0.11664   0.75042   0.00000  Uiso   1.00
C428   C     0.50148   0.38332   0.74992   0.00000  Uiso   1.00
C429   C     0.47841   0.09284   0.70985   0.00000  Uiso   1.00
C430   C     0.47695   0.40704   0.78340   0.00000  Uiso   1.00
C431   C     0.47964   0.04681   0.71036   0.00000  Uiso   1.00
C432   C     0.47813   0.45307   0.78314   0.00000  Uiso   1.00
C433   C     0.50515   0.02420   0.75081   0.00000  Uiso   1.00
C434   C     0.50512   0.47576   0.75042   0.00000  Uiso   1.00
Cu435  Cu    0.50000   0.24999   0.79822   0.00000  Uiso   1.00
Cu436  Cu    0.50000   0.25000   0.70179   0.00000  Uiso   1.00
H437   H     0.65932   0.25006   0.69363   0.00000  Uiso   1.00
H438   H     0.34068   0.24997   0.80639   0.00000  Uiso   1.00
H439   H     0.54495   0.11239   0.82239   0.00000  Uiso   1.00
H440   H     0.54757   0.38763   0.69117   0.00000  Uiso   1.00
H441   H     0.45880   0.10982   0.67817   0.00000  Uiso   1.00
H442   H     0.45621   0.38999   0.80913   0.00000  Uiso   1.00
H443   H     0.46078   0.02871   0.67915   0.00000  Uiso   1.00
H444   H     0.45812   0.47113   0.80856   0.00000  Uiso   1.00
H445   H     0.54290   0.31155   0.54147   0.00000  Uiso   1.00
H446   H     0.42788   0.21400   0.95471   0.00000  Uiso   1.00
H447   H     0.54341   0.30941   0.62986   0.00000  Uiso   1.00
H448   H     0.43035   0.21344   0.86675   0.00000  Uiso   1.00
H449   H     0.45664   0.19058   0.61876   0.00000  Uiso   1.00
H450   H     0.56965   0.28652   0.88469   0.00000  Uiso   1.00
H451   H     0.45721   0.18846   0.53054   0.00000  Uiso   1.00
H452   H     0.57216   0.28603   0.97332   0.00000  Uiso   1.00
N453   N     0.50000   0.25001   0.62935   0.00000  Uiso   1.00
N454   N     0.50000   0.24999   0.87066   0.00000  Uiso   1.00
O455   O     0.50000   0.18572   0.79072   0.00000  Uiso   1.00
O456   O     0.50000   0.31427   0.70929   0.00000  Uiso   1.00
O457   O     0.50000   0.18573   0.70928   0.00000  Uiso   1.00
O458   O     0.50000   0.31427   0.79072   0.00000  Uiso   1.00
O459   O     0.42495   0.24999   0.78132   0.00000  Uiso   1.00
O460   O     0.57505   0.25000   0.71868   0.00000  Uiso   1.00
O461   O     0.42495   0.25000   0.69989   0.00000  Uiso   1.00
O462   O     0.57505   0.25000   0.80012   0.00000  Uiso   1.00
I463   I     0.57140   0.01690   0.85296   0.00000  Uiso   1.00
I464   I     0.57521   0.48324   0.66851   0.00000  Uiso   1.00
C465   C     0.83351   0.16492   0.75007   0.00000  Uiso   1.00
C466   C     0.83354   0.33506   0.74997   0.00000  Uiso   1.00
C467   C     0.85768   0.28399   0.55708   0.00000  Uiso   1.00
C468   C     0.79351   0.22957   0.94091   0.00000  Uiso   1.00
C469   C     0.85752   0.28319   0.60779   0.00000  Uiso   1.00
C470   C     0.79444   0.22965   0.89031   0.00000  Uiso   1.00
C471   C     0.80919   0.21683   0.60160   0.00000  Uiso   1.00
C472   C     0.87224   0.27034   0.90033   0.00000  Uiso   1.00
C473   C     0.80907   0.21602   0.55087   0.00000  Uiso   1.00
C474   C     0.87319   0.27045   0.95119   0.00000  Uiso   1.00
C475   C     0.83337   0.25001   0.52735   0.00000  Uiso   1.00
C476   C     0.83336   0.25002   0.97267   0.00000  Uiso   1.00
C477   C     0.73456   0.24999   0.73756   0.00000  Uiso   1.00
C478   C     0.93210   0.25002   0.76245   0.00000  Uiso   1.00
C479   C     0.67930   0.25002   0.73069   0.00000  Uiso   1.00
C480   C     0.98737   0.25001   0.76932   0.00000  Uiso   1.00
C481   C     0.86225   0.04803   0.79143   0.00000  Uiso   1.00
C482   C     0.86374   0.45199   0.71710   0.00000  Uiso   1.00
C483   C     0.85972   0.09412   0.79119   0.00000  Uiso   1.00
C484   C     0.86120   0.40588   0.71667   0.00000  Uiso   1.00
C485   C     0.83478   0.11664   0.75042   0.00000  Uiso   1.00
C486   C     0.83482   0.38332   0.74992   0.00000  Uiso   1.00
C487   C     0.81174   0.09284   0.70985   0.00000  Uiso   1.00
C488   C     0.81029   0.40704   0.78340   0.00000  Uiso   1.00
C489   C     0.81297   0.04681   0.71036   0.00000  Uiso   1.00
C490   C     0.81147   0.45307   0.78314   0.00000  Uiso   1.00
C491   C     0.83848   0.02420   0.75081   0.00000  Uiso   1.00
C492   C     0.83846   0.47576   0.75042   0.00000  Uiso   1.00
Cu493  Cu    0.83333   0.24999   0.79822   0.00000  Uiso   1.00
Cu494  Cu    0.83333   0.25000   0.70179   0.00000  Uiso   1.00
H495   H     0.99265   0.25006   0.69363   0.00000  Uiso   1.00
H496   H     0.67401   0.24997   0.80639   0.00000  Uiso   1.00
H497   H     0.87829   0.11239   0.82239   0.00000  Uiso   1.00
H498   H     0.88090   0.38763   0.69117   0.00000  Uiso   1.00
H499   H     0.79213   0.10982   0.67817   0.00000  Uiso   1.00
H500   H     0.78954   0.38999   0.80913   0.00000  Uiso   1.00
H501   H     0.79411   0.02871   0.67915   0.00000  Uiso   1.00
H502   H     0.79145   0.47113   0.80856   0.00000  Uiso   1.00
H503   H     0.87623   0.31155   0.54147   0.00000  Uiso   1.00
H504   H     0.76121   0.21400   0.95471   0.00000  Uiso   1.00
H505   H     0.87674   0.30941   0.62986   0.00000  Uiso   1.00
H506   H     0.76368   0.21344   0.86675   0.00000  Uiso   1.00
H507   H     0.78997   0.19058   0.61876   0.00000  Uiso   1.00
H508   H     0.90299   0.28652   0.88469   0.00000  Uiso   1.00
H509   H     0.79054   0.18846   0.53054   0.00000  Uiso   1.00
H510   H     0.90549   0.28603   0.97332   0.00000  Uiso   1.00
N511   N     0.83333   0.25001   0.62935   0.00000  Uiso   1.00
N512   N     0.83333   0.24999   0.87066   0.00000  Uiso   1.00
O513   O     0.83334   0.18572   0.79072   0.00000  Uiso   1.00
O514   O     0.83333   0.31427   0.70929   0.00000  Uiso   1.00
O515   O     0.83334   0.18573   0.70928   0.00000  Uiso   1.00
O516   O     0.83333   0.31427   0.79072   0.00000  Uiso   1.00
O517   O     0.75828   0.24999   0.78132   0.00000  Uiso   1.00
O518   O     0.90839   0.25000   0.71868   0.00000  Uiso   1.00
O519   O     0.75828   0.25000   0.69989   0.00000  Uiso   1.00
O520   O     0.90839   0.25000   0.80012   0.00000  Uiso   1.00
I521   I     0.90473   0.01690   0.85296   0.00000  Uiso   1.00
I522   I     0.90855   0.48324   0.66851   0.00000  Uiso   1.00
C523   C     0.16684   0.66492   0.75007   0.00000  Uiso   1.00
C524   C     0.16688   0.83506   0.74997   0.00000  Uiso   1.00
C525   C     0.19101   0.78399   0.55708   0.00000  Uiso   1.00
C526   C     0.12684   0.72957   0.94091   0.00000  Uiso   1.00
C527   C     0.19086   0.78319   0.60779   0.00000  Uiso   1.00
C528   C     0.12777   0.72965   0.89031   0.00000  Uiso   1.00
C529   C     0.14252   0.71683   0.60160   0.00000  Uiso   1.00
C530   C     0.20557   0.77034   0.90033   0.00000  Uiso   1.00
C531   C     0.14240   0.71602   0.55087   0.00000  Uiso   1.00
C532   C     0.20653   0.77045   0.95119   0.00000  Uiso   1.00
C533   C     0.16670   0.75001   0.52735   0.00000  Uiso   1.00
C534   C     0.16669   0.75002   0.97267   0.00000  Uiso   1.00
C535   C     0.06790   0.74999   0.73756   0.00000  Uiso   1.00
C536   C     0.26544   0.75002   0.76245   0.00000  Uiso   1.00
C537   C     0.01263   0.75002   0.73069   0.00000  Uiso   1.00
C538   C     0.32070   0.75001   0.76932   0.00000  Uiso   1.00
C539   C     0.19559   0.54803   0.79143   0.00000  Uiso   1.00
C540   C     0.19707   0.95199   0.71710   0.00000  Uiso   1.00
C541   C     0.19305   0.59412   0.79119   0.00000  Uiso   1.00
C542   C     0.19453   0.90588   0.71667   0.00000  Uiso   1.00
C543   C     0.16811   0.61664   0.75042   0.00000  Uiso   1.00
C544   C     0.16815   0.88332   0.74992   0.00000  Uiso   1.00
C545   C     0.14508   0.59284   0.70985   0.00000  Uiso   1.00
C546   C     0.14362   0.90704   0.78340   0.00000  Uiso   1.00
C547   C     0.14630   0.54681   0.71036   0.00000  Uiso   1.00
C548   C     0.14480   0.95307   0.78314   0.00000  Uiso   1.00
C549   C     0.17182   0.52420   0.75081   0.00000  Uiso   1.00
C550   C     0.17179   0.97576   0.75042   0.00000  Uiso   1.00
Cu551  Cu    0.16667   0.74999   0.79822   0.00000  Uiso   1.00
Cu552  Cu    0.16667   0.75000   0.70179   0.00000  Uiso   1.00
H553   H     0.32598   0.75006   0.69363   0.00000  Uiso   1.00
H554   H     0.00735   0.74997   0.80639   0.00000  Uiso   1.00
H555   H     0.21162   0.61239   0.82239   0.00000  Uiso   1.00
H556   H     0.21423   0.88763   0.69117   0.00000  Uiso   1.00
H557   H     0.12546   0.60982   0.67817   0.00000  Uiso   1.00
H558   H     0.12288   0.88999   0.80913   0.00000  Uiso   1.00
H559   H     0.12745   0.52871   0.67915   0.00000  Uiso   1.00
H560   H     0.12479   0.97113   0.80856   0.00000  Uiso   1.00
H561   H     0.20957   0.81155   0.54147   0.00000  Uiso   1.00
H562   H     0.09455   0.71400   0.95471   0.00000  Uiso   1.00
H563   H     0.21007   0.80941   0.62986   0.00000  Uiso   1.00
H564   H     0.09702   0.71344   0.86675   0.00000  Uiso   1.00
H565   H     0.12330   0.69058   0.61876   0.00000  Uiso   1.00
H566   H     0.23632   0.78652   0.88469   0.00000  Uiso   1.00
H567   H     0.12387   0.68846   0.53054   0.00000  Uiso   1.00
H568   H     0.23882   0.78603   0.97332   0.00000  Uiso   1.00
N569   N     0.16667   0.75001   0.62935   0.00000  Uiso   1.00
N570   N     0.16667   0.74999   0.87066   0.00000  Uiso   1.00
O571   O     0.16667   0.68572   0.79072   0.00000  Uiso   1.00
O572   O     0.16666   0.81427   0.70929   0.00000  Uiso   1.00
O573   O     0.16667   0.68573   0.70928   0.00000  Uiso   1.00
O574   O     0.16666   0.81427   0.79072   0.00000  Uiso   1.00
O575   O     0.09161   0.74999   0.78132   0.00000  Uiso   1.00
O576   O     0.24172   0.75000   0.71868   0.00000  Uiso   1.00
O577   O     0.09161   0.75000   0.69989   0.00000  Uiso   1.00
O578   O     0.24172   0.75000   0.80012   0.00000  Uiso   1.00
I579   I     0.23807   0.51690   0.85296   0.00000  Uiso   1.00
I580   I     0.24188   0.98324   0.66851   0.00000  Uiso   1.00
C581   C     0.50018   0.66492   0.75007   0.00000  Uiso   1.00
C582   C     0.50021   0.83506   0.74997   0.00000  Uiso   1.00
C583   C     0.52435   0.78399   0.55708   0.00000  Uiso   1.00
C584   C     0.46017   0.72957   0.94091   0.00000  Uiso   1.00
C585   C     0.52419   0.78319   0.60779   0.00000  Uiso   1.00
C586   C     0.46111   0.72965   0.89031   0.00000  Uiso   1.00
C587   C     0.47585   0.71683   0.60160   0.00000  Uiso   1.00
C588   C     0.53890   0.77034   0.90033   0.00000  Uiso   1.00
C589   C     0.47573   0.71602   0.55087   0.00000  Uiso   1.00
C590   C     0.53986   0.77045   0.95119   0.00000  Uiso   1.00
C591   C     0.50004   0.75001   0.52735   0.00000  Uiso   1.00
C592   C     0.50002   0.75002   0.97267   0.00000  Uiso   1.00
C593   C     0.40123   0.74999   0.73756   0.00000  Uiso   1.00
C594   C     0.59877   0.75002   0.76245   0.00000  Uiso   1.00
C595   C     0.34596   0.75002   0.73069   0.00000  Uiso   1.00
C596   C     0.65404   0.75001   0.76932   0.00000  Uiso   1.00
C597   C     0.52892   0.54803   0.79143   0.00000  Uiso   1.00
C598   C     0.53041   0.95199   0.71710   0.00000  Uiso   1.00
C599   C     0.52638   0.59412   0.79119   0.00000  Uiso   1.00
C600   C     0.52787   0.90588   0.71667   0.00000  Uiso   1.00
C601   C     0.50144   0.61664   0.75042   0.00000  Uiso   1.00
C602   C     0.50148   0.88332   0.74992   0.00000  Uiso   1.00
C603   C     0.47841   0.59284   0.70985   0.00000  Uiso   1.00
C604   C     0.47695   0.90704   0.78340   0.00000  Uiso   1.00
C605   C     0.47964   0.54681   0.71036   0.00000  Uiso   1.00
C606   C     0.47813   0.95307   0.78314   0.00000  Uiso   1.00
C607   C     0.50515   0.52420   0.75081   0.00000  Uiso   1.00
C608   C     0.50512   0.97576   0.75042   0.00000  Uiso   1.00
Cu609  Cu    0.50000   0.74999   0.79822   0.00000  Uiso   1.00
Cu610  Cu    0.50000   0.75000   0.70179   0.00000  Uiso   1.00
H611   H     0.65932   0.75006   0.69363   0.00000  Uiso   1.00
H612   H     0.34068   0.74997   0.80639   0.00000  Uiso   1.00
H613   H     0.54495   0.61239   0.82239   0.00000  Uiso   1.00
H614   H     0.54757   0.88763   0.69117   0.00000  Uiso   1.00
H615   H     0.45880   0.60982   0.67817   0.00000  Uiso   1.00
H616   H     0.45621   0.88999   0.80913   0.00000  Uiso   1.00
H617   H     0.46078   0.52871   0.67915   0.00000  Uiso   1.00
H618   H     0.45812   0.97113   0.80856   0.00000  Uiso   1.00
H619   H     0.54290   0.81155   0.54147   0.00000  Uiso   1.00
H620   H     0.42788   0.71400   0.95471   0.00000  Uiso   1.00
H621   H     0.54341   0.80941   0.62986   0.00000  Uiso   1.00
H622   H     0.43035   0.71344   0.86675   0.00000  Uiso   1.00
H623   H     0.45664   0.69058   0.61876   0.00000  Uiso   1.00
H624   H     0.56965   0.78652   0.88469   0.00000  Uiso   1.00
H625   H     0.45721   0.68846   0.53054   0.00000  Uiso   1.00
H626   H     0.57216   0.78603   0.97332   0.00000  Uiso   1.00
N627   N     0.50000   0.75001   0.62935   0.00000  Uiso   1.00
N628   N     0.50000   0.74999   0.87066   0.00000  Uiso   1.00
O629   O     0.50000   0.68572   0.79072   0.00000  Uiso   1.00
O630   O     0.50000   0.81427   0.70929   0.00000  Uiso   1.00
O631   O     0.50000   0.68573   0.70928   0.00000  Uiso   1.00
O632   O     0.50000   0.81427   0.79072   0.00000  Uiso   1.00
O633   O     0.42495   0.74999   0.78132   0.00000  Uiso   1.00
O634   O     0.57505   0.75000   0.71868   0.00000  Uiso   1.00
O635   O     0.42495   0.75000   0.69989   0.00000  Uiso   1.00
O636   O     0.57505   0.75000   0.80012   0.00000  Uiso   1.00
I637   I     0.57140   0.51690   0.85296   0.00000  Uiso   1.00
I638   I     0.57521   0.98324   0.66851   0.00000  Uiso   1.00
C639   C     0.83351   0.66492   0.75007   0.00000  Uiso   1.00
C640   C     0.83354   0.83506   0.74997   0.00000  Uiso   1.00
C641   C     0.85768   0.78399   0.55708   0.00000  Uiso   1.00
C642   C     0.79351   0.72957   0.94091   0.00000  Uiso   1.00
C643   C     0.85752   0.78319   0.60779   0.00000  Uiso   1.00
C644   C     0.79444   0.72965   0.89031   0.00000  Uiso   1.00
C645   C     0.80919   0.71683   0.60160   0.00000  Uiso   1.00
C646   C     0.87224   0.77034   0.90033   0.00000  Uiso   1.00
C647   C     0.80907   0.71602   0.55087   0.00000  Uiso   1.00
C648   C     0.87319   0.77045   0.95119   0.00000  Uiso   1.00
C649   C     0.83337   0.75001   0.52735   0.00000  Uiso   1.00
C650   C     0.83336   0.75002   0.97267   0.00000  Uiso   1.00
C651   C     0.73456   0.74999   0.73756   0.00000  Uiso   1.00
C652   C     0.93210   0.75002   0.76245   0.00000  Uiso   1.00
C653   C     0.67930   0.75002   0.73069   0.00000  Uiso   1.00
C654   C     0.98737   0.75001   0.76932   0.00000  Uiso   1.00
C655   C     0.86225   0.54803   0.79143   0.00000  Uiso   1.00
C656   C     0.86374   0.95199   0.71710   0.00000  Uiso   1.00
C657   C     0.85972   0.59412   0.79119   0.00000  Uiso   1.00
C658   C     0.86120   0.90588   0.71667   0.00000  Uiso   1.00
C659   C     0.83478   0.61664   0.75042   0.00000  Uiso   1.00
C660   C     0.83482   0.88332   0.74992   0.00000  Uiso   1.00
C661   C     0.81174   0.59284   0.70985   0.00000  Uiso   1.00
C662   C     0.81029   0.90704   0.78340   0.00000  Uiso   1.00
C663   C     0.81297   0.54681   0.71036   0.00000  Uiso   1.00
C664   C     0.81147   0.95307   0.78314   0.00000  Uiso   1.00
C665   C     0.83848   0.52420   0.75081   0.00000  Uiso   1.00
C666   C     0.83846   0.97576   0.75042   0.00000  Uiso   1.00
Cu667  Cu    0.83333   0.74999   0.79822   0.00000  Uiso   1.00
Cu668  Cu    0.83333   0.75000   0.70179   0.00000  Uiso   1.00
H669   H     0.99265   0.75006   0.69363   0.00000  Uiso   1.00
H670   H     0.67401   0.74997   0.80639   0.00000  Uiso   1.00
H671   H     0.87829   0.61239   0.82239   0.00000  Uiso   1.00
H672   H     0.88090   0.88763   0.69117   0.00000  Uiso   1.00
H673   H     0.79213   0.60982   0.67817   0.00000  Uiso   1.00
H674   H     0.78954   0.88999   0.80913   0.00000  Uiso   1.00
H675   H     0.79411   0.52871   0.67915   0.00000  Uiso   1.00
H676   H     0.79145   0.97113   0.80856   0.00000  Uiso   1.00
H677   H     0.87623   0.81155   0.54147   0.00000  Uiso   1.00
H678   H     0.76121   0.71400   0.95471   0.00000  Uiso   1.00
H679   H     0.87674   0.80941   0.62986   0.00000  Uiso   1.00
H680   H     0.76368   0.71344   0.86675   0.00000  Uiso   1.00
H681   H     0.78997   0.69058   0.61876   0.00000  Uiso   1.00
H682   H     0.90299   0.78652   0.88469   0.00000  Uiso   1.00
H683   H     0.79054   0.68846   0.53054   0.00000  Uiso   1.00
H684   H     0.90549   0.78603   0.97332   0.00000  Uiso   1.00
N685   N     0.83333   0.75001   0.62935   0.00000  Uiso   1.00
N686   N     0.83333   0.74999   0.87066   0.00000  Uiso   1.00
O687   O     0.83334   0.68572   0.79072   0.00000  Uiso   1.00
O688   O     0.83333   0.81427   0.70929   0.00000  Uiso   1.00
O689   O     0.83334   0.68573   0.70928   0.00000  Uiso   1.00
O690   O     0.83333   0.81427   0.79072   0.00000  Uiso   1.00
O691   O     0.75828   0.74999   0.78132   0.00000  Uiso   1.00
O692   O     0.90839   0.75000   0.71868   0.00000  Uiso   1.00
O693   O     0.75828   0.75000   0.69989   0.00000  Uiso   1.00
O694   O     0.90839   0.75000   0.80012   0.00000  Uiso   1.00
I695   I     0.90473   0.51690   0.85296   0.00000  Uiso   1.00
I696   I     0.90855   0.98324   0.66851   0.00000  Uiso   1.00
loop_
_geom_bond_atom_site_label_1
_geom_bond_atom_site_label_2
_geom_bond_distance
_geom_bond_site_symmetry_2
_ccdc_geom_bond_type
C1     C21     1.458   .     S
C1     O51     1.292   .     A
C1     O49     1.292   .     A
C2     C22     1.457   .     S
C2     O52     1.292   .     A
C2     O50     1.292   .     A
C3     H39     1.081   .     S
C3     C5      1.407   .     A
C3     C11     1.411   .     A
C4     H40     1.081   .     S
C4     C6      1.407   .     A
C4     C12     1.411   .     A
C5     N47     1.364   .     A
C5     H41     1.081   .     S
C6     H42     1.081   .     S
C6     N48     1.364   .     A
C7     H43     1.081   .     S
C7     N47     1.364   .     A
C7     C9      1.407   .     A
C8     N48     1.364   .     A
C8     C10     1.407   .     A
C8     H44     1.081   .     S
C9     C11     1.411   .     A
C9     H45     1.081   .     S
C10    C12     1.411   .     A
C10    H46     1.081   .     S
C11    C360    1.517   1_554 S
C12    C359    1.517   .     S
C13    O53     1.285   .     A
C13    C15     1.434   .     S
C13    O55     1.287   .     A
C14    O56     1.287   .     A
C14    O54     1.285   .     A
C14    C16     1.434   .     S
C15    C132    1.335   1_455 S
C15    H147    1.087   1_455 S
C16    C73     1.335   .     S
C16    H90     1.087   .     S
C17    C19     1.393   .     A
C17    C27     1.408   .     A
C17    I57     2.124   .     S
C18    C28     1.408   .     A
C18    C20     1.393   .     A
C18    I58     2.124   .     S
C19    H33     1.083   .     S
C19    C21     1.401   .     A
C20    H34     1.083   .     S
C20    C22     1.401   .     A
C21    C23     1.400   .     A
C22    C24     1.399   .     A
C23    H35     1.083   .     S
C23    C25     1.390   .     A
C24    H36     1.083   .     S
C24    C26     1.390   .     A
C25    H37     1.084   .     S
C25    C27     1.401   .     A
C26    C28     1.402   .     A
C26    H38     1.084   .     S
C27    C202    1.462   1_545 S
C28    C201    1.462   .     S
Cu29   Cu30    2.675   .     S
Cu29   O56     1.960   .     S
Cu29   O49     1.951   .     S
Cu29   O53     1.957   .     S
Cu29   N48     2.009   .     S
Cu29   O52     1.951   .     S
Cu30   O51     1.951   .     S
Cu30   O55     1.960   .     S
Cu30   N47     2.009   .     S
Cu30   O54     1.957   .     S
Cu30   O50     1.951   .     S
H31    C73     1.087   .     S
H32    C132    1.087   1_455 S
C59    C79     1.458   .     S
C59    O109    1.292   .     A
C59    O107    1.292   .     A
C60    C80     1.457   .     S
C60    O110    1.292   .     A
C60    O108    1.292   .     A
C61    H97     1.081   .     S
C61    C63     1.407   .     A
C61    C69     1.411   .     A
C62    H98     1.081   .     S
C62    C64     1.407   .     A
C62    C70     1.411   .     A
C63    N105    1.364   .     A
C63    H99     1.081   .     S
C64    H100    1.081   .     S
C64    N106    1.364   .     A
C65    H101    1.081   .     S
C65    N105    1.364   .     A
C65    C67     1.407   .     A
C66    N106    1.364   .     A
C66    C68     1.407   .     A
C66    H102    1.081   .     S
C67    C69     1.411   .     A
C67    H103    1.081   .     S
C68    C70     1.411   .     A
C68    H104    1.081   .     S
C69    C418    1.517   1_554 S
C70    C417    1.517   .     S
C71    O111    1.285   .     A
C71    C73     1.434   .     S
C71    O113    1.287   .     A
C72    O114    1.287   .     A
C72    O112    1.285   .     A
C72    C74     1.434   .     S
C74    C131    1.335   .     S
C74    H148    1.087   .     S
C75    C77     1.393   .     A
C75    C85     1.408   .     A
C75    I115    2.124   .     S
C76    C86     1.408   .     A
C76    C78     1.393   .     A
C76    I116    2.124   .     S
C77    H91     1.083   .     S
C77    C79     1.401   .     A
C78    H92     1.083   .     S
C78    C80     1.401   .     A
C79    C81     1.400   .     A
C80    C82     1.399   .     A
C81    H93     1.083   .     S
C81    C83     1.390   .     A
C82    H94     1.083   .     S
C82    C84     1.390   .     A
C83    H95     1.084   .     S
C83    C85     1.401   .     A
C84    C86     1.402   .     A
C84    H96     1.084   .     S
C85    C260    1.462   1_545 S
C86    C259    1.462   .     S
Cu87   Cu88    2.675   .     S
Cu87   O114    1.960   .     S
Cu87   O107    1.951   .     S
Cu87   O111    1.957   .     S
Cu87   N106    2.009   .     S
Cu87   O110    1.951   .     S
Cu88   O109    1.951   .     S
Cu88   O113    1.960   .     S
Cu88   N105    2.009   .     S
Cu88   O112    1.957   .     S
Cu88   O108    1.951   .     S
H89    C131    1.087   .     S
C117   C137    1.458   .     S
C117   O167    1.292   .     A
C117   O165    1.292   .     A
C118   C138    1.457   .     S
C118   O168    1.292   .     A
C118   O166    1.292   .     A
C119   H155    1.081   .     S
C119   C121    1.407   .     A
C119   C127    1.411   .     A
C120   H156    1.081   .     S
C120   C122    1.407   .     A
C120   C128    1.411   .     A
C121   N163    1.364   .     A
C121   H157    1.081   .     S
C122   H158    1.081   .     S
C122   N164    1.364   .     A
C123   H159    1.081   .     S
C123   N163    1.364   .     A
C123   C125    1.407   .     A
C124   N164    1.364   .     A
C124   C126    1.407   .     A
C124   H160    1.081   .     S
C125   C127    1.411   .     A
C125   H161    1.081   .     S
C126   C128    1.411   .     A
C126   H162    1.081   .     S
C127   C476    1.517   1_554 S
C128   C475    1.517   .     S
C129   O169    1.285   .     A
C129   C131    1.434   .     S
C129   O171    1.287   .     A
C130   O172    1.287   .     A
C130   O170    1.285   .     A
C130   C132    1.434   .     S
C132   C15     1.335   1_655 S
C132   H32     1.087   1_655 S
C133   C135    1.393   .     A
C133   C143    1.408   .     A
C133   I173    2.124   .     S
C134   C144    1.408   .     A
C134   C136    1.393   .     A
C134   I174    2.124   .     S
C135   H149    1.083   .     S
C135   C137    1.401   .     A
C136   H150    1.083   .     S
C136   C138    1.401   .     A
C137   C139    1.400   .     A
C138   C140    1.399   .     A
C139   H151    1.083   .     S
C139   C141    1.390   .     A
C140   H152    1.083   .     S
C140   C142    1.390   .     A
C141   H153    1.084   .     S
C141   C143    1.401   .     A
C142   C144    1.402   .     A
C142   H154    1.084   .     S
C143   C318    1.462   1_545 S
C144   C317    1.462   .     S
Cu145  Cu146   2.675   .     S
Cu145  O172    1.960   .     S
Cu145  O165    1.951   .     S
Cu145  O169    1.957   .     S
Cu145  N164    2.009   .     S
Cu145  O168    1.951   .     S
Cu146  O167    1.951   .     S
Cu146  O171    1.960   .     S
Cu146  N163    2.009   .     S
Cu146  O170    1.957   .     S
Cu146  O166    1.951   .     S
H147   C15     1.087   1_655 S
C175   C195    1.458   .     S
C175   O225    1.292   .     A
C175   O223    1.292   .     A
C176   C196    1.457   .     S
C176   O226    1.292   .     A
C176   O224    1.292   .     A
C177   H213    1.081   .     S
C177   C179    1.407   .     A
C177   C185    1.411   .     A
C178   H214    1.081   .     S
C178   C180    1.407   .     A
C178   C186    1.411   .     A
C179   N221    1.364   .     A
C179   H215    1.081   .     S
C180   H216    1.081   .     S
C180   N222    1.364   .     A
C181   H217    1.081   .     S
C181   N221    1.364   .     A
C181   C183    1.407   .     A
C182   N222    1.364   .     A
C182   C184    1.407   .     A
C182   H218    1.081   .     S
C183   C185    1.411   .     A
C183   H219    1.081   .     S
C184   C186    1.411   .     A
C184   H220    1.081   .     S
C185   C534    1.517   1_554 S
C186   C533    1.517   .     S
C187   O227    1.285   .     A
C187   C189    1.434   .     S
C187   O229    1.287   .     A
C188   O230    1.287   .     A
C188   O228    1.285   .     A
C188   C190    1.434   .     S
C189   C306    1.335   1_455 S
C189   H321    1.087   1_455 S
C190   C247    1.335   .     S
C190   H264    1.087   .     S
C191   C193    1.393   .     A
C191   C201    1.408   .     A
C191   I231    2.124   .     S
C192   C202    1.408   .     A
C192   C194    1.393   .     A
C192   I232    2.124   .     S
C193   H207    1.083   .     S
C193   C195    1.401   .     A
C194   H208    1.083   .     S
C194   C196    1.401   .     A
C195   C197    1.400   .     A
C196   C198    1.399   .     A
C197   H209    1.083   .     S
C197   C199    1.390   .     A
C198   H210    1.083   .     S
C198   C200    1.390   .     A
C199   H211    1.084   .     S
C199   C201    1.401   .     A
C200   C202    1.402   .     A
C200   H212    1.084   .     S
C202   C27     1.462   1_565 S
Cu203  Cu204   2.675   .     S
Cu203  O230    1.960   .     S
Cu203  O223    1.951   .     S
Cu203  O227    1.957   .     S
Cu203  N222    2.009   .     S
Cu203  O226    1.951   .     S
Cu204  O225    1.951   .     S
Cu204  O229    1.960   .     S
Cu204  N221    2.009   .     S
Cu204  O228    1.957   .     S
Cu204  O224    1.951   .     S
H205   C247    1.087   .     S
H206   C306    1.087   1_455 S
C233   C253    1.458   .     S
C233   O283    1.292   .     A
C233   O281    1.292   .     A
C234   C254    1.457   .     S
C234   O284    1.292   .     A
C234   O282    1.292   .     A
C235   H271    1.081   .     S
C235   C237    1.407   .     A
C235   C243    1.411   .     A
C236   H272    1.081   .     S
C236   C238    1.407   .     A
C236   C244    1.411   .     A
C237   N279    1.364   .     A
C237   H273    1.081   .     S
C238   H274    1.081   .     S
C238   N280    1.364   .     A
C239   H275    1.081   .     S
C239   N279    1.364   .     A
C239   C241    1.407   .     A
C240   N280    1.364   .     A
C240   C242    1.407   .     A
C240   H276    1.081   .     S
C241   C243    1.411   .     A
C241   H277    1.081   .     S
C242   C244    1.411   .     A
C242   H278    1.081   .     S
C243   C592    1.517   1_554 S
C244   C591    1.517   .     S
C245   O285    1.285   .     A
C245   C247    1.434   .     S
C245   O287    1.287   .     A
C246   O288    1.287   .     A
C246   O286    1.285   .     A
C246   C248    1.434   .     S
C248   C305    1.335   .     S
C248   H322    1.087   .     S
C249   C251    1.393   .     A
C249   C259    1.408   .     A
C249   I289    2.124   .     S
C250   C260    1.408   .     A
C250   C252    1.393   .     A
C250   I290    2.124   .     S
C251   H265    1.083   .     S
C251   C253    1.401   .     A
C252   H266    1.083   .     S
C252   C254    1.401   .     A
C253   C255    1.400   .     A
C254   C256    1.399   .     A
C255   H267    1.083   .     S
C255   C257    1.390   .     A
C256   H268    1.083   .     S
C256   C258    1.390   .     A
C257   H269    1.084   .     S
C257   C259    1.401   .     A
C258   C260    1.402   .     A
C258   H270    1.084   .     S
C260   C85     1.462   1_565 S
Cu261  Cu262   2.675   .     S
Cu261  O288    1.960   .     S
Cu261  O281    1.951   .     S
Cu261  O285    1.957   .     S
Cu261  N280    2.009   .     S
Cu261  O284    1.951   .     S
Cu262  O283    1.951   .     S
Cu262  O287    1.960   .     S
Cu262  N279    2.009   .     S
Cu262  O286    1.957   .     S
Cu262  O282    1.951   .     S
H263   C305    1.087   .     S
C291   C311    1.458   .     S
C291   O341    1.292   .     A
C291   O339    1.292   .     A
C292   C312    1.457   .     S
C292   O342    1.292   .     A
C292   O340    1.292   .     A
C293   H329    1.081   .     S
C293   C295    1.407   .     A
C293   C301    1.411   .     A
C294   H330    1.081   .     S
C294   C296    1.407   .     A
C294   C302    1.411   .     A
C295   N337    1.364   .     A
C295   H331    1.081   .     S
C296   H332    1.081   .     S
C296   N338    1.364   .     A
C297   H333    1.081   .     S
C297   N337    1.364   .     A
C297   C299    1.407   .     A
C298   N338    1.364   .     A
C298   C300    1.407   .     A
C298   H334    1.081   .     S
C299   C301    1.411   .     A
C299   H335    1.081   .     S
C300   C302    1.411   .     A
C300   H336    1.081   .     S
C301   C650    1.517   1_554 S
C302   C649    1.517   .     S
C303   O343    1.285   .     A
C303   C305    1.434   .     S
C303   O345    1.287   .     A
C304   O346    1.287   .     A
C304   O344    1.285   .     A
C304   C306    1.434   .     S
C306   C189    1.335   1_655 S
C306   H206    1.087   1_655 S
C307   C309    1.393   .     A
C307   C317    1.408   .     A
C307   I347    2.124   .     S
C308   C318    1.408   .     A
C308   C310    1.393   .     A
C308   I348    2.124   .     S
C309   H323    1.083   .     S
C309   C311    1.401   .     A
C310   H324    1.083   .     S
C310   C312    1.401   .     A
C311   C313    1.400   .     A
C312   C314    1.399   .     A
C313   H325    1.083   .     S
C313   C315    1.390   .     A
C314   H326    1.083   .     S
C314   C316    1.390   .     A
C315   H327    1.084   .     S
C315   C317    1.401   .     A
C316   C318    1.402   .     A
C316   H328    1.084   .     S
C318   C143    1.462   1_565 S
Cu319  Cu320   2.675   .     S
Cu319  O346    1.960   .     S
Cu319  O339    1.951   .     S
Cu319  O343    1.957   .     S
Cu319  N338    2.009   .     S
Cu319  O342    1.951   .     S
Cu320  O341    1.951   .     S
Cu320  O345    1.960   .     S
Cu320  N337    2.009   .     S
Cu320  O344    1.957   .     S
Cu320  O340    1.951   .     S
H321   C189    1.087   1_655 S
C349   C369    1.458   .     S
C349   O399    1.292   .     A
C349   O397    1.292   .     A
C350   C370    1.457   .     S
C350   O400    1.292   .     A
C350   O398    1.292   .     A
C351   H387    1.081   .     S
C351   C353    1.407   .     A
C351   C359    1.411   .     A
C352   H388    1.081   .     S
C352   C354    1.407   .     A
C352   C360    1.411   .     A
C353   N395    1.364   .     A
C353   H389    1.081   .     S
C354   H390    1.081   .     S
C354   N396    1.364   .     A
C355   H391    1.081   .     S
C355   N395    1.364   .     A
C355   C357    1.407   .     A
C356   N396    1.364   .     A
C356   C358    1.407   .     A
C356   H392    1.081   .     S
C357   C359    1.411   .     A
C357   H393    1.081   .     S
C358   C360    1.411   .     A
C358   H394    1.081   .     S
C360   C11     1.517   1_556 S
C361   O401    1.285   .     A
C361   C363    1.434   .     S
C361   O403    1.287   .     A
C362   O404    1.287   .     A
C362   O402    1.285   .     A
C362   C364    1.434   .     S
C363   C480    1.335   1_455 S
C363   H495    1.087   1_455 S
C364   C421    1.335   .     S
C364   H438    1.087   .     S
C365   C367    1.393   .     A
C365   C375    1.408   .     A
C365   I405    2.124   .     S
C366   C376    1.408   .     A
C366   C368    1.393   .     A
C366   I406    2.124   .     S
C367   H381    1.083   .     S
C367   C369    1.401   .     A
C368   H382    1.083   .     S
C368   C370    1.401   .     A
C369   C371    1.400   .     A
C370   C372    1.399   .     A
C371   H383    1.083   .     S
C371   C373    1.390   .     A
C372   H384    1.083   .     S
C372   C374    1.390   .     A
C373   H385    1.084   .     S
C373   C375    1.401   .     A
C374   C376    1.402   .     A
C374   H386    1.084   .     S
C375   C550    1.462   1_545 S
C376   C549    1.462   .     S
Cu377  Cu378   2.675   .     S
Cu377  O404    1.960   .     S
Cu377  O397    1.951   .     S
Cu377  O401    1.957   .     S
Cu377  N396    2.009   .     S
Cu377  O400    1.951   .     S
Cu378  O399    1.951   .     S
Cu378  O403    1.960   .     S
Cu378  N395    2.009   .     S
Cu378  O402    1.957   .     S
Cu378  O398    1.951   .     S
H379   C421    1.087   .     S
H380   C480    1.087   1_455 S
C407   C427    1.458   .     S
C407   O457    1.292   .     A
C407   O455    1.292   .     A
C408   C428    1.457   .     S
C408   O458    1.292   .     A
C408   O456    1.292   .     A
C409   H445    1.081   .     S
C409   C411    1.407   .     A
C409   C417    1.411   .     A
C410   H446    1.081   .     S
C410   C412    1.407   .     A
C410   C418    1.411   .     A
C411   N453    1.364   .     A
C411   H447    1.081   .     S
C412   H448    1.081   .     S
C412   N454    1.364   .     A
C413   H449    1.081   .     S
C413   N453    1.364   .     A
C413   C415    1.407   .     A
C414   N454    1.364   .     A
C414   C416    1.407   .     A
C414   H450    1.081   .     S
C415   C417    1.411   .     A
C415   H451    1.081   .     S
C416   C418    1.411   .     A
C416   H452    1.081   .     S
C418   C69     1.517   1_556 S
C419   O459    1.285   .     A
C419   C421    1.434   .     S
C419   O461    1.287   .     A
C420   O462    1.287   .     A
C420   O460    1.285   .     A
C420   C422    1.434   .     S
C422   C479    1.335   .     S
C422   H496    1.087   .     S
C423   C425    1.393   .     A
C423   C433    1.408   .     A
C423   I463    2.124   .     S
C424   C434    1.408   .     A
C424   C426    1.393   .     A
C424   I464    2.124   .     S
C425   H439    1.083   .     S
C425   C427    1.401   .     A
C426   H440    1.083   .     S
C426   C428    1.401   .     A
C427   C429    1.400   .     A
C428   C430    1.399   .     A
C429   H441    1.083   .     S
C429   C431    1.390   .     A
C430   H442    1.083   .     S
C430   C432    1.390   .     A
C431   H443    1.084   .     S
C431   C433    1.401   .     A
C432   C434    1.402   .     A
C432   H444    1.084   .     S
C433   C608    1.462   1_545 S
C434   C607    1.462   .     S
Cu435  Cu436   2.675   .     S
Cu435  O462    1.960   .     S
Cu435  O455    1.951   .     S
Cu435  O459    1.957   .     S
Cu435  N454    2.009   .     S
Cu435  O458    1.951   .     S
Cu436  O457    1.951   .     S
Cu436  O461    1.960   .     S
Cu436  N453    2.009   .     S
Cu436  O460    1.957   .     S
Cu436  O456    1.951   .     S
H437   C479    1.087   .     S
C465   C485    1.458   .     S
C465   O515    1.292   .     A
C465   O513    1.292   .     A
C466   C486    1.457   .     S
C466   O516    1.292   .     A
C466   O514    1.292   .     A
C467   H503    1.081   .     S
C467   C469    1.407   .     A
C467   C475    1.411   .     A
C468   H504    1.081   .     S
C468   C470    1.407   .     A
C468   C476    1.411   .     A
C469   N511    1.364   .     A
C469   H505    1.081   .     S
C470   H506    1.081   .     S
C470   N512    1.364   .     A
C471   H507    1.081   .     S
C471   N511    1.364   .     A
C471   C473    1.407   .     A
C472   N512    1.364   .     A
C472   C474    1.407   .     A
C472   H508    1.081   .     S
C473   C475    1.411   .     A
C473   H509    1.081   .     S
C474   C476    1.411   .     A
C474   H510    1.081   .     S
C476   C127    1.517   1_556 S
C477   O517    1.285   .     A
C477   C479    1.434   .     S
C477   O519    1.287   .     A
C478   O520    1.287   .     A
C478   O518    1.285   .     A
C478   C480    1.434   .     S
C480   C363    1.335   1_655 S
C480   H380    1.087   1_655 S
C481   C483    1.393   .     A
C481   C491    1.408   .     A
C481   I521    2.124   .     S
C482   C492    1.408   .     A
C482   C484    1.393   .     A
C482   I522    2.124   .     S
C483   H497    1.083   .     S
C483   C485    1.401   .     A
C484   H498    1.083   .     S
C484   C486    1.401   .     A
C485   C487    1.400   .     A
C486   C488    1.399   .     A
C487   H499    1.083   .     S
C487   C489    1.390   .     A
C488   H500    1.083   .     S
C488   C490    1.390   .     A
C489   H501    1.084   .     S
C489   C491    1.401   .     A
C490   C492    1.402   .     A
C490   H502    1.084   .     S
C491   C666    1.462   1_545 S
C492   C665    1.462   .     S
Cu493  Cu494   2.675   .     S
Cu493  O520    1.960   .     S
Cu493  O513    1.951   .     S
Cu493  O517    1.957   .     S
Cu493  N512    2.009   .     S
Cu493  O516    1.951   .     S
Cu494  O515    1.951   .     S
Cu494  O519    1.960   .     S
Cu494  N511    2.009   .     S
Cu494  O518    1.957   .     S
Cu494  O514    1.951   .     S
H495   C363    1.087   1_655 S
C523   C543    1.458   .     S
C523   O573    1.292   .     A
C523   O571    1.292   .     A
C524   C544    1.457   .     S
C524   O574    1.292   .     A
C524   O572    1.292   .     A
C525   H561    1.081   .     S
C525   C527    1.407   .     A
C525   C533    1.411   .     A
C526   H562    1.081   .     S
C526   C528    1.407   .     A
C526   C534    1.411   .     A
C527   N569    1.364   .     A
C527   H563    1.081   .     S
C528   H564    1.081   .     S
C528   N570    1.364   .     A
C529   H565    1.081   .     S
C529   N569    1.364   .     A
C529   C531    1.407   .     A
C530   N570    1.364   .     A
C530   C532    1.407   .     A
C530   H566    1.081   .     S
C531   C533    1.411   .     A
C531   H567    1.081   .     S
C532   C534    1.411   .     A
C532   H568    1.081   .     S
C534   C185    1.517   1_556 S
C535   O575    1.285   .     A
C535   C537    1.434   .     S
C535   O577    1.287   .     A
C536   O578    1.287   .     A
C536   O576    1.285   .     A
C536   C538    1.434   .     S
C537   C654    1.335   1_455 S
C537   H669    1.087   1_455 S
C538   C595    1.335   .     S
C538   H612    1.087   .     S
C539   C541    1.393   .     A
C539   C549    1.408   .     A
C539   I579    2.124   .     S
C540   C550    1.408   .     A
C540   C542    1.393   .     A
C540   I580    2.124   .     S
C541   H555    1.083   .     S
C541   C543    1.401   .     A
C542   H556    1.083   .     S
C542   C544    1.401   .     A
C543   C545    1.400   .     A
C544   C546    1.399   .     A
C545   H557    1.083   .     S
C545   C547    1.390   .     A
C546   H558    1.083   .     S
C546   C548    1.390   .     A
C547   H559    1.084   .     S
C547   C549    1.401   .     A
C548   C550    1.402   .     A
C548   H560    1.084   .     S
C550   C375    1.462   1_565 S
Cu551  Cu552   2.675   .     S
Cu551  O578    1.960   .     S
Cu551  O571    1.951   .     S
Cu551  O575    1.957   .     S
Cu551  N570    2.009   .     S
Cu551  O574    1.951   .     S
Cu552  O573    1.951   .     S
Cu552  O577    1.960   .     S
Cu552  N569    2.009   .     S
Cu552  O576    1.957   .     S
Cu552  O572    1.951   .     S
H553   C595    1.087   .     S
H554   C654    1.087   1_455 S
C581   C601    1.458   .     S
C581   O631    1.292   .     A
C581   O629    1.292   .     A
C582   C602    1.457   .     S
C582   O632    1.292   .     A
C582   O630    1.292   .     A
C583   H619    1.081   .     S
C583   C585    1.407   .     A
C583   C591    1.411   .     A
C584   H620    1.081   .     S
C584   C586    1.407   .     A
C584   C592    1.411   .     A
C585   N627    1.364   .     A
C585   H621    1.081   .     S
C586   H622    1.081   .     S
C586   N628    1.364   .     A
C587   H623    1.081   .     S
C587   N627    1.364   .     A
C587   C589    1.407   .     A
C588   N628    1.364   .     A
C588   C590    1.407   .     A
C588   H624    1.081   .     S
C589   C591    1.411   .     A
C589   H625    1.081   .     S
C590   C592    1.411   .     A
C590   H626    1.081   .     S
C592   C243    1.517   1_556 S
C593   O633    1.285   .     A
C593   C595    1.434   .     S
C593   O635    1.287   .     A
C594   O636    1.287   .     A
C594   O634    1.285   .     A
C594   C596    1.434   .     S
C596   C653    1.335   .     S
C596   H670    1.087   .     S
C597   C599    1.393   .     A
C597   C607    1.408   .     A
C597   I637    2.124   .     S
C598   C608    1.408   .     A
C598   C600    1.393   .     A
C598   I638    2.124   .     S
C599   H613    1.083   .     S
C599   C601    1.401   .     A
C600   H614    1.083   .     S
C600   C602    1.401   .     A
C601   C603    1.400   .     A
C602   C604    1.399   .     A
C603   H615    1.083   .     S
C603   C605    1.390   .     A
C604   H616    1.083   .     S
C604   C606    1.390   .     A
C605   H617    1.084   .     S
C605   C607    1.401   .     A
C606   C608    1.402   .     A
C606   H618    1.084   .     S
C608   C433    1.462   1_565 S
Cu609  Cu610   2.675   .     S
Cu609  O636    1.960   .     S
Cu609  O629    1.951   .     S
Cu609  O633    1.957   .     S
Cu609  N628    2.009   .     S
Cu609  O632    1.951   .     S
Cu610  O631    1.951   .     S
Cu610  O635    1.960   .     S
Cu610  N627    2.009   .     S
Cu610  O634    1.957   .     S
Cu610  O630    1.951   .     S
H611   C653    1.087   .     S
C639   C659    1.458   .     S
C639   O689    1.292   .     A
C639   O687    1.292   .     A
C640   C660    1.457   .     S
C640   O690    1.292   .     A
C640   O688    1.292   .     A
C641   H677    1.081   .     S
C641   C643    1.407   .     A
C641   C649    1.411   .     A
C642   H678    1.081   .     S
C642   C644    1.407   .     A
C642   C650    1.411   .     A
C643   N685    1.364   .     A
C643   H679    1.081   .     S
C644   H680    1.081   .     S
C644   N686    1.364   .     A
C645   H681    1.081   .     S
C645   N685    1.364   .     A
C645   C647    1.407   .     A
C646   N686    1.364   .     A
C646   C648    1.407   .     A
C646   H682    1.081   .     S
C647   C649    1.411   .     A
C647   H683    1.081   .     S
C648   C650    1.411   .     A
C648   H684    1.081   .     S
C650   C301    1.517   1_556 S
C651   O691    1.285   .     A
C651   C653    1.434   .     S
C651   O693    1.287   .     A
C652   O694    1.287   .     A
C652   O692    1.285   .     A
C652   C654    1.434   .     S
C654   C537    1.335   1_655 S
C654   H554    1.087   1_655 S
C655   C657    1.393   .     A
C655   C665    1.408   .     A
C655   I695    2.124   .     S
C656   C666    1.408   .     A
C656   C658    1.393   .     A
C656   I696    2.124   .     S
C657   H671    1.083   .     S
C657   C659    1.401   .     A
C658   H672    1.083   .     S
C658   C660    1.401   .     A
C659   C661    1.400   .     A
C660   C662    1.399   .     A
C661   H673    1.083   .     S
C661   C663    1.390   .     A
C662   H674    1.083   .     S
C662   C664    1.390   .     A
C663   H675    1.084   .     S
C663   C665    1.401   .     A
C664   C666    1.402   .     A
C664   H676    1.084   .     S
C666   C491    1.462   1_565 S
Cu667  Cu668   2.675   .     S
Cu667  O694    1.960   .     S
Cu667  O687    1.951   .     S
Cu667  O691    1.957   .     S
Cu667  N686    2.009   .     S
Cu667  O690    1.951   .     S
Cu668  O689    1.951   .     S
Cu668  O693    1.960   .     S
Cu668  N685    2.009   .     S
Cu668  O692    1.957   .     S
Cu668  O688    1.951   .     S
H669   C537    1.087   1_655 S
