data_str_m3_o1_o1_pcu_sym.70
_audit_creation_date              2020-01-03
_audit_creation_method            'Materials Studio'
_symmetry_space_group_name_H-M    'P1'
_symmetry_Int_Tables_number       1
_symmetry_cell_setting            triclinic
loop_
_symmetry_equiv_pos_as_xyz
  x,y,z
_cell_length_a                    30.3602
_cell_length_b                    30.0292
_cell_length_c                    29.5666
_cell_angle_alpha                 91.0242
_cell_angle_beta                  91.2811
_cell_angle_gamma                 89.7457
loop_
_atom_site_label
_atom_site_type_symbol
_atom_site_fract_x
_atom_site_fract_y
_atom_site_fract_z
_atom_site_U_iso_or_equiv
_atom_site_adp_type
_atom_site_occupancy
C1     C     0.06025   0.19052   0.16683   0.00000  Uiso   1.00
C2     C     0.00213   0.21093   0.30871   0.00000  Uiso   1.00
C3     C     0.00214   0.21093   0.02331   0.00000  Uiso   1.00
C4     C     0.49786   0.28907   0.31002   0.00000  Uiso   1.00
C5     C     0.24787   0.03907   0.02462   0.00000  Uiso   1.00
C6     C     0.25213   0.46093   0.30871   0.00000  Uiso   1.00
C7     C     0.25214   0.46093   0.02331   0.00000  Uiso   1.00
C8     C     0.24786   0.03907   0.31002   0.00000  Uiso   1.00
C9     C     0.40908   0.12089   0.13539   0.00000  Uiso   1.00
C10    C     0.09093   0.37911   0.19795   0.00000  Uiso   1.00
C11    C     0.13010   0.33623   0.13948   0.00000  Uiso   1.00
C12    C     0.43976   0.30948   0.16651   0.00000  Uiso   1.00
C13    C     0.36989   0.16378   0.19385   0.00000  Uiso   1.00
C14    C     0.13563   0.16791   0.18424   0.00000  Uiso   1.00
C15    C     0.36438   0.33210   0.14904   0.00000  Uiso   1.00
C16    C     0.41786   0.38557   0.18295   0.00000  Uiso   1.00
C17    C     0.08213   0.11442   0.15044   0.00000  Uiso   1.00
C18    C     0.15908   0.37089   0.13539   0.00000  Uiso   1.00
C19    C     0.34092   0.12912   0.19794   0.00000  Uiso   1.00
C20    C     0.38011   0.08623   0.13949   0.00000  Uiso   1.00
C21    C     0.11990   0.41377   0.19385   0.00000  Uiso   1.00
C22    C     0.38562   0.41790   0.18429   0.00000  Uiso   1.00
C23    C     0.43974   0.19030   0.16587   0.00000  Uiso   1.00
C24    C     0.11436   0.08208   0.14909   0.00000  Uiso   1.00
C25    C     0.16787   0.13558   0.18289   0.00000  Uiso   1.00
C26    C     0.33214   0.36444   0.15039   0.00000  Uiso   1.00
C27    C     0.09497   0.34127   0.16946   0.00000  Uiso   1.00
C28    C     0.40503   0.15873   0.16387   0.00000  Uiso   1.00
C29    C     0.40694   0.34279   0.16592   0.00000  Uiso   1.00
C30    C     0.09306   0.15721   0.16741   0.00000  Uiso   1.00
C31    C     0.34497   0.09127   0.16946   0.00000  Uiso   1.00
C32    C     0.15503   0.40873   0.16387   0.00000  Uiso   1.00
C33    C     0.15694   0.09279   0.16592   0.00000  Uiso   1.00
C34    C     0.06026   0.30970   0.16746   0.00000  Uiso   1.00
C35    C     0.34306   0.40721   0.16741   0.00000  Uiso   1.00
C36    C     0.31024   0.44052   0.16683   0.00000  Uiso   1.00
C37    C     0.18975   0.05948   0.16651   0.00000  Uiso   1.00
C38    C     0.18974   0.44030   0.16587   0.00000  Uiso   1.00
C39    C     0.31026   0.05970   0.16746   0.00000  Uiso   1.00
C40    C     0.49787   0.28907   0.02462   0.00000  Uiso   1.00
H41    H     0.49618   0.32032   0.04327   0.00000  Uiso   1.00
H42    H     0.06006   0.35993   0.24973   0.00000  Uiso   1.00
H43    H     0.12349   0.27245   0.12789   0.00000  Uiso   1.00
H44    H     0.37651   0.22755   0.20543   0.00000  Uiso   1.00
H45    H     0.12322   0.23106   0.19852   0.00000  Uiso   1.00
H46    H     0.37678   0.26894   0.13481   0.00000  Uiso   1.00
H47    H     0.48170   0.37653   0.18526   0.00000  Uiso   1.00
H48    H     0.01829   0.12347   0.14815   0.00000  Uiso   1.00
H49    H     0.18995   0.39007   0.08361   0.00000  Uiso   1.00
H50    H     0.31004   0.10995   0.24972   0.00000  Uiso   1.00
H51    H     0.37349   0.02245   0.12790   0.00000  Uiso   1.00
H52    H     0.00382   0.17968   0.29006   0.00000  Uiso   1.00
H53    H     0.12651   0.47754   0.20544   0.00000  Uiso   1.00
H54    H     0.37322   0.48106   0.19852   0.00000  Uiso   1.00
H55    H     0.12678   0.01894   0.13482   0.00000  Uiso   1.00
H56    H     0.23171   0.12655   0.18513   0.00000  Uiso   1.00
H57    H     0.26831   0.37347   0.14808   0.00000  Uiso   1.00
H58    H     0.00390   0.17969   0.04092   0.00000  Uiso   1.00
H59    H     0.49610   0.32031   0.29242   0.00000  Uiso   1.00
H60    H     0.24617   0.07032   0.04327   0.00000  Uiso   1.00
H61    H     0.25383   0.42968   0.29006   0.00000  Uiso   1.00
H62    H     0.25390   0.42969   0.04092   0.00000  Uiso   1.00
H63    H     0.24610   0.07031   0.29242   0.00000  Uiso   1.00
H64    H     0.43995   0.14006   0.08361   0.00000  Uiso   1.00
N65    N     0.00000   0.25000   0.28573   0.00000  Uiso   1.00
N66    N     0.00000   0.25000   0.04760   0.00000  Uiso   1.00
N67    N     0.25000   0.00000   0.28573   0.00000  Uiso   1.00
N68    N     0.25000   0.00000   0.04760   0.00000  Uiso   1.00
O69    O     0.04581   0.20419   0.20487   0.00000  Uiso   1.00
O70    O     0.20420   0.04581   0.12846   0.00000  Uiso   1.00
O71    O     0.20420   0.04581   0.20487   0.00000  Uiso   1.00
O72    O     0.29581   0.45419   0.12846   0.00000  Uiso   1.00
O73    O     0.20420   0.45419   0.12846   0.00000  Uiso   1.00
O74    O     0.29581   0.04581   0.20487   0.00000  Uiso   1.00
O75    O     0.29581   0.04581   0.12846   0.00000  Uiso   1.00
O76    O     0.20420   0.45419   0.20487   0.00000  Uiso   1.00
O77    O     0.44288   0.11558   0.10549   0.00000  Uiso   1.00
O78    O     0.05713   0.38441   0.22786   0.00000  Uiso   1.00
O79    O     0.13702   0.29829   0.11332   0.00000  Uiso   1.00
O80    O     0.45420   0.29581   0.12846   0.00000  Uiso   1.00
O81    O     0.36298   0.20172   0.22001   0.00000  Uiso   1.00
O82    O     0.14782   0.20960   0.20099   0.00000  Uiso   1.00
O83    O     0.35221   0.29043   0.13225   0.00000  Uiso   1.00
O84    O     0.45977   0.39743   0.19795   0.00000  Uiso   1.00
O85    O     0.04020   0.10255   0.13549   0.00000  Uiso   1.00
O86    O     0.19288   0.36558   0.10548   0.00000  Uiso   1.00
O87    O     0.30711   0.13442   0.22784   0.00000  Uiso   1.00
O88    O     0.38702   0.04828   0.11333   0.00000  Uiso   1.00
O89    O     0.11299   0.45171   0.22002   0.00000  Uiso   1.00
O90    O     0.39779   0.45957   0.20108   0.00000  Uiso   1.00
O91    O     0.45420   0.29581   0.20487   0.00000  Uiso   1.00
O92    O     0.10218   0.04040   0.13235   0.00000  Uiso   1.00
O93    O     0.20980   0.14745   0.19783   0.00000  Uiso   1.00
O94    O     0.29023   0.35258   0.13538   0.00000  Uiso   1.00
O95    O     0.04581   0.20419   0.12846   0.00000  Uiso   1.00
O96    O     0.45420   0.20419   0.12846   0.00000  Uiso   1.00
O97    O     0.04581   0.29581   0.20487   0.00000  Uiso   1.00
O98    O     0.04581   0.29581   0.12846   0.00000  Uiso   1.00
O99    O     0.45420   0.20419   0.20487   0.00000  Uiso   1.00
O100   O     0.29581   0.45419   0.20487   0.00000  Uiso   1.00
Zn101  Zn    0.00000   0.25000   0.21771   0.00000  Uiso   1.00
Zn102  Zn    0.00000   0.25000   0.11563   0.00000  Uiso   1.00
Zn103  Zn    0.25000   0.00000   0.21771   0.00000  Uiso   1.00
Zn104  Zn    0.25000   0.00000   0.11563   0.00000  Uiso   1.00
C105   C     0.56025   0.19052   0.16683   0.00000  Uiso   1.00
C106   C     0.50213   0.21093   0.30871   0.00000  Uiso   1.00
C107   C     0.50214   0.21093   0.02331   0.00000  Uiso   1.00
C108   C     0.99786   0.28907   0.31002   0.00000  Uiso   1.00
C109   C     0.74787   0.03907   0.02462   0.00000  Uiso   1.00
C110   C     0.75213   0.46093   0.30871   0.00000  Uiso   1.00
C111   C     0.75214   0.46093   0.02331   0.00000  Uiso   1.00
C112   C     0.74786   0.03907   0.31002   0.00000  Uiso   1.00
C113   C     0.90908   0.12089   0.13539   0.00000  Uiso   1.00
C114   C     0.59093   0.37911   0.19795   0.00000  Uiso   1.00
C115   C     0.63010   0.33623   0.13948   0.00000  Uiso   1.00
C116   C     0.93976   0.30948   0.16651   0.00000  Uiso   1.00
C117   C     0.86989   0.16378   0.19385   0.00000  Uiso   1.00
C118   C     0.63563   0.16791   0.18424   0.00000  Uiso   1.00
C119   C     0.86438   0.33210   0.14904   0.00000  Uiso   1.00
C120   C     0.91786   0.38557   0.18295   0.00000  Uiso   1.00
C121   C     0.58213   0.11442   0.15044   0.00000  Uiso   1.00
C122   C     0.65908   0.37089   0.13539   0.00000  Uiso   1.00
C123   C     0.84092   0.12912   0.19794   0.00000  Uiso   1.00
C124   C     0.88011   0.08623   0.13949   0.00000  Uiso   1.00
C125   C     0.61990   0.41377   0.19385   0.00000  Uiso   1.00
C126   C     0.88562   0.41790   0.18429   0.00000  Uiso   1.00
C127   C     0.93974   0.19030   0.16587   0.00000  Uiso   1.00
C128   C     0.61436   0.08208   0.14909   0.00000  Uiso   1.00
C129   C     0.66787   0.13558   0.18289   0.00000  Uiso   1.00
C130   C     0.83214   0.36444   0.15039   0.00000  Uiso   1.00
C131   C     0.59497   0.34127   0.16946   0.00000  Uiso   1.00
C132   C     0.90503   0.15873   0.16387   0.00000  Uiso   1.00
C133   C     0.90694   0.34279   0.16592   0.00000  Uiso   1.00
C134   C     0.59306   0.15721   0.16741   0.00000  Uiso   1.00
C135   C     0.84497   0.09127   0.16946   0.00000  Uiso   1.00
C136   C     0.65503   0.40873   0.16387   0.00000  Uiso   1.00
C137   C     0.65694   0.09279   0.16592   0.00000  Uiso   1.00
C138   C     0.56026   0.30970   0.16746   0.00000  Uiso   1.00
C139   C     0.84306   0.40721   0.16741   0.00000  Uiso   1.00
C140   C     0.81024   0.44052   0.16683   0.00000  Uiso   1.00
C141   C     0.68975   0.05948   0.16651   0.00000  Uiso   1.00
C142   C     0.68974   0.44030   0.16587   0.00000  Uiso   1.00
C143   C     0.81026   0.05970   0.16746   0.00000  Uiso   1.00
C144   C     0.99787   0.28907   0.02462   0.00000  Uiso   1.00
H145   H     0.99618   0.32032   0.04327   0.00000  Uiso   1.00
H146   H     0.56006   0.35993   0.24973   0.00000  Uiso   1.00
H147   H     0.62349   0.27245   0.12789   0.00000  Uiso   1.00
H148   H     0.87651   0.22755   0.20543   0.00000  Uiso   1.00
H149   H     0.62322   0.23106   0.19852   0.00000  Uiso   1.00
H150   H     0.87678   0.26894   0.13481   0.00000  Uiso   1.00
H151   H     0.98170   0.37653   0.18526   0.00000  Uiso   1.00
H152   H     0.51829   0.12347   0.14815   0.00000  Uiso   1.00
H153   H     0.68995   0.39007   0.08361   0.00000  Uiso   1.00
H154   H     0.81004   0.10995   0.24972   0.00000  Uiso   1.00
H155   H     0.87349   0.02245   0.12790   0.00000  Uiso   1.00
H156   H     0.50382   0.17968   0.29006   0.00000  Uiso   1.00
H157   H     0.62651   0.47754   0.20544   0.00000  Uiso   1.00
H158   H     0.87322   0.48106   0.19852   0.00000  Uiso   1.00
H159   H     0.62678   0.01894   0.13482   0.00000  Uiso   1.00
H160   H     0.73171   0.12655   0.18513   0.00000  Uiso   1.00
H161   H     0.76831   0.37347   0.14808   0.00000  Uiso   1.00
H162   H     0.50390   0.17969   0.04092   0.00000  Uiso   1.00
H163   H     0.99610   0.32031   0.29242   0.00000  Uiso   1.00
H164   H     0.74617   0.07032   0.04327   0.00000  Uiso   1.00
H165   H     0.75383   0.42968   0.29006   0.00000  Uiso   1.00
H166   H     0.75390   0.42969   0.04092   0.00000  Uiso   1.00
H167   H     0.74610   0.07031   0.29242   0.00000  Uiso   1.00
H168   H     0.93995   0.14006   0.08361   0.00000  Uiso   1.00
N169   N     0.50000   0.25000   0.28573   0.00000  Uiso   1.00
N170   N     0.50000   0.25000   0.04760   0.00000  Uiso   1.00
N171   N     0.75000   0.00000   0.28573   0.00000  Uiso   1.00
N172   N     0.75000   0.00000   0.04760   0.00000  Uiso   1.00
O173   O     0.54581   0.20419   0.20487   0.00000  Uiso   1.00
O174   O     0.70420   0.04581   0.12846   0.00000  Uiso   1.00
O175   O     0.70420   0.04581   0.20487   0.00000  Uiso   1.00
O176   O     0.79581   0.45419   0.12846   0.00000  Uiso   1.00
O177   O     0.70420   0.45419   0.12846   0.00000  Uiso   1.00
O178   O     0.79581   0.04581   0.20487   0.00000  Uiso   1.00
O179   O     0.79581   0.04581   0.12846   0.00000  Uiso   1.00
O180   O     0.70420   0.45419   0.20487   0.00000  Uiso   1.00
O181   O     0.94288   0.11558   0.10549   0.00000  Uiso   1.00
O182   O     0.55713   0.38441   0.22786   0.00000  Uiso   1.00
O183   O     0.63702   0.29829   0.11332   0.00000  Uiso   1.00
O184   O     0.95420   0.29581   0.12846   0.00000  Uiso   1.00
O185   O     0.86298   0.20172   0.22001   0.00000  Uiso   1.00
O186   O     0.64782   0.20960   0.20099   0.00000  Uiso   1.00
O187   O     0.85221   0.29043   0.13225   0.00000  Uiso   1.00
O188   O     0.95977   0.39743   0.19795   0.00000  Uiso   1.00
O189   O     0.54020   0.10255   0.13549   0.00000  Uiso   1.00
O190   O     0.69288   0.36558   0.10548   0.00000  Uiso   1.00
O191   O     0.80711   0.13442   0.22784   0.00000  Uiso   1.00
O192   O     0.88702   0.04828   0.11333   0.00000  Uiso   1.00
O193   O     0.61299   0.45171   0.22002   0.00000  Uiso   1.00
O194   O     0.89779   0.45957   0.20108   0.00000  Uiso   1.00
O195   O     0.95420   0.29581   0.20487   0.00000  Uiso   1.00
O196   O     0.60218   0.04040   0.13235   0.00000  Uiso   1.00
O197   O     0.70980   0.14745   0.19783   0.00000  Uiso   1.00
O198   O     0.79023   0.35258   0.13538   0.00000  Uiso   1.00
O199   O     0.54581   0.20419   0.12846   0.00000  Uiso   1.00
O200   O     0.95420   0.20419   0.12846   0.00000  Uiso   1.00
O201   O     0.54581   0.29581   0.20487   0.00000  Uiso   1.00
O202   O     0.54581   0.29581   0.12846   0.00000  Uiso   1.00
O203   O     0.95420   0.20419   0.20487   0.00000  Uiso   1.00
O204   O     0.79581   0.45419   0.20487   0.00000  Uiso   1.00
Zn205  Zn    0.50000   0.25000   0.21771   0.00000  Uiso   1.00
Zn206  Zn    0.50000   0.25000   0.11563   0.00000  Uiso   1.00
Zn207  Zn    0.75000   0.00000   0.21771   0.00000  Uiso   1.00
Zn208  Zn    0.75000   0.00000   0.11563   0.00000  Uiso   1.00
C209   C     0.06025   0.69052   0.16683   0.00000  Uiso   1.00
C210   C     0.00213   0.71093   0.30871   0.00000  Uiso   1.00
C211   C     0.00214   0.71093   0.02331   0.00000  Uiso   1.00
C212   C     0.49786   0.78907   0.31002   0.00000  Uiso   1.00
C213   C     0.24787   0.53907   0.02462   0.00000  Uiso   1.00
C214   C     0.25213   0.96093   0.30871   0.00000  Uiso   1.00
C215   C     0.25214   0.96093   0.02331   0.00000  Uiso   1.00
C216   C     0.24786   0.53907   0.31002   0.00000  Uiso   1.00
C217   C     0.40908   0.62089   0.13539   0.00000  Uiso   1.00
C218   C     0.09093   0.87911   0.19795   0.00000  Uiso   1.00
C219   C     0.13010   0.83623   0.13948   0.00000  Uiso   1.00
C220   C     0.43976   0.80948   0.16651   0.00000  Uiso   1.00
C221   C     0.36989   0.66378   0.19385   0.00000  Uiso   1.00
C222   C     0.13563   0.66791   0.18424   0.00000  Uiso   1.00
C223   C     0.36438   0.83210   0.14904   0.00000  Uiso   1.00
C224   C     0.41786   0.88557   0.18295   0.00000  Uiso   1.00
C225   C     0.08213   0.61442   0.15044   0.00000  Uiso   1.00
C226   C     0.15908   0.87089   0.13539   0.00000  Uiso   1.00
C227   C     0.34092   0.62912   0.19794   0.00000  Uiso   1.00
C228   C     0.38011   0.58623   0.13949   0.00000  Uiso   1.00
C229   C     0.11990   0.91377   0.19385   0.00000  Uiso   1.00
C230   C     0.38562   0.91790   0.18429   0.00000  Uiso   1.00
C231   C     0.43974   0.69030   0.16587   0.00000  Uiso   1.00
C232   C     0.11436   0.58208   0.14909   0.00000  Uiso   1.00
C233   C     0.16787   0.63558   0.18289   0.00000  Uiso   1.00
C234   C     0.33214   0.86444   0.15039   0.00000  Uiso   1.00
C235   C     0.09497   0.84127   0.16946   0.00000  Uiso   1.00
C236   C     0.40503   0.65873   0.16387   0.00000  Uiso   1.00
C237   C     0.40694   0.84279   0.16592   0.00000  Uiso   1.00
C238   C     0.09306   0.65721   0.16741   0.00000  Uiso   1.00
C239   C     0.34497   0.59127   0.16946   0.00000  Uiso   1.00
C240   C     0.15503   0.90873   0.16387   0.00000  Uiso   1.00
C241   C     0.15694   0.59279   0.16592   0.00000  Uiso   1.00
C242   C     0.06026   0.80970   0.16746   0.00000  Uiso   1.00
C243   C     0.34306   0.90721   0.16741   0.00000  Uiso   1.00
C244   C     0.31024   0.94052   0.16683   0.00000  Uiso   1.00
C245   C     0.18975   0.55948   0.16651   0.00000  Uiso   1.00
C246   C     0.18974   0.94030   0.16587   0.00000  Uiso   1.00
C247   C     0.31026   0.55970   0.16746   0.00000  Uiso   1.00
C248   C     0.49787   0.78907   0.02462   0.00000  Uiso   1.00
H249   H     0.49618   0.82032   0.04327   0.00000  Uiso   1.00
H250   H     0.06006   0.85993   0.24973   0.00000  Uiso   1.00
H251   H     0.12349   0.77245   0.12789   0.00000  Uiso   1.00
H252   H     0.37651   0.72755   0.20543   0.00000  Uiso   1.00
H253   H     0.12322   0.73106   0.19852   0.00000  Uiso   1.00
H254   H     0.37678   0.76894   0.13481   0.00000  Uiso   1.00
H255   H     0.48170   0.87653   0.18526   0.00000  Uiso   1.00
H256   H     0.01829   0.62347   0.14815   0.00000  Uiso   1.00
H257   H     0.18995   0.89007   0.08361   0.00000  Uiso   1.00
H258   H     0.31004   0.60995   0.24972   0.00000  Uiso   1.00
H259   H     0.37349   0.52245   0.12790   0.00000  Uiso   1.00
H260   H     0.00382   0.67968   0.29006   0.00000  Uiso   1.00
H261   H     0.12651   0.97754   0.20544   0.00000  Uiso   1.00
H262   H     0.37322   0.98106   0.19852   0.00000  Uiso   1.00
H263   H     0.12678   0.51894   0.13482   0.00000  Uiso   1.00
H264   H     0.23171   0.62655   0.18513   0.00000  Uiso   1.00
H265   H     0.26831   0.87347   0.14808   0.00000  Uiso   1.00
H266   H     0.00390   0.67969   0.04092   0.00000  Uiso   1.00
H267   H     0.49610   0.82031   0.29242   0.00000  Uiso   1.00
H268   H     0.24617   0.57032   0.04327   0.00000  Uiso   1.00
H269   H     0.25383   0.92968   0.29006   0.00000  Uiso   1.00
H270   H     0.25390   0.92969   0.04092   0.00000  Uiso   1.00
H271   H     0.24610   0.57031   0.29242   0.00000  Uiso   1.00
H272   H     0.43995   0.64006   0.08361   0.00000  Uiso   1.00
N273   N     0.00000   0.75000   0.28573   0.00000  Uiso   1.00
N274   N     0.00000   0.75000   0.04760   0.00000  Uiso   1.00
N275   N     0.25000   0.50000   0.28573   0.00000  Uiso   1.00
N276   N     0.25000   0.50000   0.04760   0.00000  Uiso   1.00
O277   O     0.04581   0.70419   0.20487   0.00000  Uiso   1.00
O278   O     0.20420   0.54581   0.12846   0.00000  Uiso   1.00
O279   O     0.20420   0.54581   0.20487   0.00000  Uiso   1.00
O280   O     0.29581   0.95419   0.12846   0.00000  Uiso   1.00
O281   O     0.20420   0.95419   0.12846   0.00000  Uiso   1.00
O282   O     0.29581   0.54581   0.20487   0.00000  Uiso   1.00
O283   O     0.29581   0.54581   0.12846   0.00000  Uiso   1.00
O284   O     0.20420   0.95419   0.20487   0.00000  Uiso   1.00
O285   O     0.44288   0.61558   0.10549   0.00000  Uiso   1.00
O286   O     0.05713   0.88441   0.22786   0.00000  Uiso   1.00
O287   O     0.13702   0.79829   0.11332   0.00000  Uiso   1.00
O288   O     0.45420   0.79581   0.12846   0.00000  Uiso   1.00
O289   O     0.36298   0.70172   0.22001   0.00000  Uiso   1.00
O290   O     0.14782   0.70960   0.20099   0.00000  Uiso   1.00
O291   O     0.35221   0.79043   0.13225   0.00000  Uiso   1.00
O292   O     0.45977   0.89743   0.19795   0.00000  Uiso   1.00
O293   O     0.04020   0.60255   0.13549   0.00000  Uiso   1.00
O294   O     0.19288   0.86558   0.10548   0.00000  Uiso   1.00
O295   O     0.30711   0.63442   0.22784   0.00000  Uiso   1.00
O296   O     0.38702   0.54828   0.11333   0.00000  Uiso   1.00
O297   O     0.11299   0.95171   0.22002   0.00000  Uiso   1.00
O298   O     0.39779   0.95957   0.20108   0.00000  Uiso   1.00
O299   O     0.45420   0.79581   0.20487   0.00000  Uiso   1.00
O300   O     0.10218   0.54040   0.13235   0.00000  Uiso   1.00
O301   O     0.20980   0.64745   0.19783   0.00000  Uiso   1.00
O302   O     0.29023   0.85258   0.13538   0.00000  Uiso   1.00
O303   O     0.04581   0.70419   0.12846   0.00000  Uiso   1.00
O304   O     0.45420   0.70419   0.12846   0.00000  Uiso   1.00
O305   O     0.04581   0.79581   0.20487   0.00000  Uiso   1.00
O306   O     0.04581   0.79581   0.12846   0.00000  Uiso   1.00
O307   O     0.45420   0.70419   0.20487   0.00000  Uiso   1.00
O308   O     0.29581   0.95419   0.20487   0.00000  Uiso   1.00
Zn309  Zn    0.00000   0.75000   0.21771   0.00000  Uiso   1.00
Zn310  Zn    0.00000   0.75000   0.11563   0.00000  Uiso   1.00
Zn311  Zn    0.25000   0.50000   0.21771   0.00000  Uiso   1.00
Zn312  Zn    0.25000   0.50000   0.11563   0.00000  Uiso   1.00
C313   C     0.56025   0.69052   0.16683   0.00000  Uiso   1.00
C314   C     0.50213   0.71093   0.30871   0.00000  Uiso   1.00
C315   C     0.50214   0.71093   0.02331   0.00000  Uiso   1.00
C316   C     0.99786   0.78907   0.31002   0.00000  Uiso   1.00
C317   C     0.74787   0.53907   0.02462   0.00000  Uiso   1.00
C318   C     0.75213   0.96093   0.30871   0.00000  Uiso   1.00
C319   C     0.75214   0.96093   0.02331   0.00000  Uiso   1.00
C320   C     0.74786   0.53907   0.31002   0.00000  Uiso   1.00
C321   C     0.90908   0.62089   0.13539   0.00000  Uiso   1.00
C322   C     0.59093   0.87911   0.19795   0.00000  Uiso   1.00
C323   C     0.63010   0.83623   0.13948   0.00000  Uiso   1.00
C324   C     0.93976   0.80948   0.16651   0.00000  Uiso   1.00
C325   C     0.86989   0.66378   0.19385   0.00000  Uiso   1.00
C326   C     0.63563   0.66791   0.18424   0.00000  Uiso   1.00
C327   C     0.86438   0.83210   0.14904   0.00000  Uiso   1.00
C328   C     0.91786   0.88557   0.18295   0.00000  Uiso   1.00
C329   C     0.58213   0.61442   0.15044   0.00000  Uiso   1.00
C330   C     0.65908   0.87089   0.13539   0.00000  Uiso   1.00
C331   C     0.84092   0.62912   0.19794   0.00000  Uiso   1.00
C332   C     0.88011   0.58623   0.13949   0.00000  Uiso   1.00
C333   C     0.61990   0.91377   0.19385   0.00000  Uiso   1.00
C334   C     0.88562   0.91790   0.18429   0.00000  Uiso   1.00
C335   C     0.93974   0.69030   0.16587   0.00000  Uiso   1.00
C336   C     0.61436   0.58208   0.14909   0.00000  Uiso   1.00
C337   C     0.66787   0.63558   0.18289   0.00000  Uiso   1.00
C338   C     0.83214   0.86444   0.15039   0.00000  Uiso   1.00
C339   C     0.59497   0.84127   0.16946   0.00000  Uiso   1.00
C340   C     0.90503   0.65873   0.16387   0.00000  Uiso   1.00
C341   C     0.90694   0.84279   0.16592   0.00000  Uiso   1.00
C342   C     0.59306   0.65721   0.16741   0.00000  Uiso   1.00
C343   C     0.84497   0.59127   0.16946   0.00000  Uiso   1.00
C344   C     0.65503   0.90873   0.16387   0.00000  Uiso   1.00
C345   C     0.65694   0.59279   0.16592   0.00000  Uiso   1.00
C346   C     0.56026   0.80970   0.16746   0.00000  Uiso   1.00
C347   C     0.84306   0.90721   0.16741   0.00000  Uiso   1.00
C348   C     0.81024   0.94052   0.16683   0.00000  Uiso   1.00
C349   C     0.68975   0.55948   0.16651   0.00000  Uiso   1.00
C350   C     0.68974   0.94030   0.16587   0.00000  Uiso   1.00
C351   C     0.81026   0.55970   0.16746   0.00000  Uiso   1.00
C352   C     0.99787   0.78907   0.02462   0.00000  Uiso   1.00
H353   H     0.99618   0.82032   0.04327   0.00000  Uiso   1.00
H354   H     0.56006   0.85993   0.24973   0.00000  Uiso   1.00
H355   H     0.62349   0.77245   0.12789   0.00000  Uiso   1.00
H356   H     0.87651   0.72755   0.20543   0.00000  Uiso   1.00
H357   H     0.62322   0.73106   0.19852   0.00000  Uiso   1.00
H358   H     0.87678   0.76894   0.13481   0.00000  Uiso   1.00
H359   H     0.98170   0.87653   0.18526   0.00000  Uiso   1.00
H360   H     0.51829   0.62347   0.14815   0.00000  Uiso   1.00
H361   H     0.68995   0.89007   0.08361   0.00000  Uiso   1.00
H362   H     0.81004   0.60995   0.24972   0.00000  Uiso   1.00
H363   H     0.87349   0.52245   0.12790   0.00000  Uiso   1.00
H364   H     0.50382   0.67968   0.29006   0.00000  Uiso   1.00
H365   H     0.62651   0.97754   0.20544   0.00000  Uiso   1.00
H366   H     0.87322   0.98106   0.19852   0.00000  Uiso   1.00
H367   H     0.62678   0.51894   0.13482   0.00000  Uiso   1.00
H368   H     0.73171   0.62655   0.18513   0.00000  Uiso   1.00
H369   H     0.76831   0.87347   0.14808   0.00000  Uiso   1.00
H370   H     0.50390   0.67969   0.04092   0.00000  Uiso   1.00
H371   H     0.99610   0.82031   0.29242   0.00000  Uiso   1.00
H372   H     0.74617   0.57032   0.04327   0.00000  Uiso   1.00
H373   H     0.75383   0.92968   0.29006   0.00000  Uiso   1.00
H374   H     0.75390   0.92969   0.04092   0.00000  Uiso   1.00
H375   H     0.74610   0.57031   0.29242   0.00000  Uiso   1.00
H376   H     0.93995   0.64006   0.08361   0.00000  Uiso   1.00
N377   N     0.50000   0.75000   0.28573   0.00000  Uiso   1.00
N378   N     0.50000   0.75000   0.04760   0.00000  Uiso   1.00
N379   N     0.75000   0.50000   0.28573   0.00000  Uiso   1.00
N380   N     0.75000   0.50000   0.04760   0.00000  Uiso   1.00
O381   O     0.54581   0.70419   0.20487   0.00000  Uiso   1.00
O382   O     0.70420   0.54581   0.12846   0.00000  Uiso   1.00
O383   O     0.70420   0.54581   0.20487   0.00000  Uiso   1.00
O384   O     0.79581   0.95419   0.12846   0.00000  Uiso   1.00
O385   O     0.70420   0.95419   0.12846   0.00000  Uiso   1.00
O386   O     0.79581   0.54581   0.20487   0.00000  Uiso   1.00
O387   O     0.79581   0.54581   0.12846   0.00000  Uiso   1.00
O388   O     0.70420   0.95419   0.20487   0.00000  Uiso   1.00
O389   O     0.94288   0.61558   0.10549   0.00000  Uiso   1.00
O390   O     0.55713   0.88441   0.22786   0.00000  Uiso   1.00
O391   O     0.63702   0.79829   0.11332   0.00000  Uiso   1.00
O392   O     0.95420   0.79581   0.12846   0.00000  Uiso   1.00
O393   O     0.86298   0.70172   0.22001   0.00000  Uiso   1.00
O394   O     0.64782   0.70960   0.20099   0.00000  Uiso   1.00
O395   O     0.85221   0.79043   0.13225   0.00000  Uiso   1.00
O396   O     0.95977   0.89743   0.19795   0.00000  Uiso   1.00
O397   O     0.54020   0.60255   0.13549   0.00000  Uiso   1.00
O398   O     0.69288   0.86558   0.10548   0.00000  Uiso   1.00
O399   O     0.80711   0.63442   0.22784   0.00000  Uiso   1.00
O400   O     0.88702   0.54828   0.11333   0.00000  Uiso   1.00
O401   O     0.61299   0.95171   0.22002   0.00000  Uiso   1.00
O402   O     0.89779   0.95957   0.20108   0.00000  Uiso   1.00
O403   O     0.95420   0.79581   0.20487   0.00000  Uiso   1.00
O404   O     0.60218   0.54040   0.13235   0.00000  Uiso   1.00
O405   O     0.70980   0.64745   0.19783   0.00000  Uiso   1.00
O406   O     0.79023   0.85258   0.13538   0.00000  Uiso   1.00
O407   O     0.54581   0.70419   0.12846   0.00000  Uiso   1.00
O408   O     0.95420   0.70419   0.12846   0.00000  Uiso   1.00
O409   O     0.54581   0.79581   0.20487   0.00000  Uiso   1.00
O410   O     0.54581   0.79581   0.12846   0.00000  Uiso   1.00
O411   O     0.95420   0.70419   0.20487   0.00000  Uiso   1.00
O412   O     0.79581   0.95419   0.20487   0.00000  Uiso   1.00
Zn413  Zn    0.50000   0.75000   0.21771   0.00000  Uiso   1.00
Zn414  Zn    0.50000   0.75000   0.11563   0.00000  Uiso   1.00
Zn415  Zn    0.75000   0.50000   0.21771   0.00000  Uiso   1.00
Zn416  Zn    0.75000   0.50000   0.11563   0.00000  Uiso   1.00
C417   C     0.06025   0.19052   0.50016   0.00000  Uiso   1.00
C418   C     0.00213   0.21093   0.64205   0.00000  Uiso   1.00
C419   C     0.00214   0.21093   0.35664   0.00000  Uiso   1.00
C420   C     0.49786   0.28907   0.64335   0.00000  Uiso   1.00
C421   C     0.24787   0.03907   0.35795   0.00000  Uiso   1.00
C422   C     0.25213   0.46093   0.64205   0.00000  Uiso   1.00
C423   C     0.25214   0.46093   0.35665   0.00000  Uiso   1.00
C424   C     0.24786   0.03907   0.64335   0.00000  Uiso   1.00
C425   C     0.40908   0.12089   0.46873   0.00000  Uiso   1.00
C426   C     0.09093   0.37911   0.53128   0.00000  Uiso   1.00
C427   C     0.13010   0.33623   0.47281   0.00000  Uiso   1.00
C428   C     0.43976   0.30948   0.49984   0.00000  Uiso   1.00
C429   C     0.36989   0.16378   0.52718   0.00000  Uiso   1.00
C430   C     0.13563   0.16791   0.51758   0.00000  Uiso   1.00
C431   C     0.36438   0.33210   0.48237   0.00000  Uiso   1.00
C432   C     0.41786   0.38557   0.51628   0.00000  Uiso   1.00
C433   C     0.08213   0.11442   0.48378   0.00000  Uiso   1.00
C434   C     0.15908   0.37089   0.46872   0.00000  Uiso   1.00
C435   C     0.34092   0.12912   0.53127   0.00000  Uiso   1.00
C436   C     0.38011   0.08623   0.47282   0.00000  Uiso   1.00
C437   C     0.11990   0.41377   0.52719   0.00000  Uiso   1.00
C438   C     0.38562   0.41790   0.51763   0.00000  Uiso   1.00
C439   C     0.43974   0.19030   0.49920   0.00000  Uiso   1.00
C440   C     0.11436   0.08208   0.48243   0.00000  Uiso   1.00
C441   C     0.16787   0.13558   0.51622   0.00000  Uiso   1.00
C442   C     0.33214   0.36444   0.48372   0.00000  Uiso   1.00
C443   C     0.09497   0.34127   0.50280   0.00000  Uiso   1.00
C444   C     0.40503   0.15873   0.49720   0.00000  Uiso   1.00
C445   C     0.40694   0.34279   0.49926   0.00000  Uiso   1.00
C446   C     0.09306   0.15721   0.50075   0.00000  Uiso   1.00
C447   C     0.34497   0.09127   0.50280   0.00000  Uiso   1.00
C448   C     0.15503   0.40873   0.49720   0.00000  Uiso   1.00
C449   C     0.15694   0.09279   0.49925   0.00000  Uiso   1.00
C450   C     0.06026   0.30970   0.50080   0.00000  Uiso   1.00
C451   C     0.34306   0.40721   0.50074   0.00000  Uiso   1.00
C452   C     0.31024   0.44052   0.50016   0.00000  Uiso   1.00
C453   C     0.18975   0.05948   0.49984   0.00000  Uiso   1.00
C454   C     0.18974   0.44030   0.49920   0.00000  Uiso   1.00
C455   C     0.31026   0.05970   0.50080   0.00000  Uiso   1.00
C456   C     0.49787   0.28907   0.35795   0.00000  Uiso   1.00
H457   H     0.49618   0.32032   0.37661   0.00000  Uiso   1.00
H458   H     0.06006   0.35993   0.58307   0.00000  Uiso   1.00
H459   H     0.12349   0.27245   0.46123   0.00000  Uiso   1.00
H460   H     0.37651   0.22755   0.53877   0.00000  Uiso   1.00
H461   H     0.12322   0.23106   0.53185   0.00000  Uiso   1.00
H462   H     0.37678   0.26894   0.46815   0.00000  Uiso   1.00
H463   H     0.48170   0.37653   0.51860   0.00000  Uiso   1.00
H464   H     0.01829   0.12347   0.48149   0.00000  Uiso   1.00
H465   H     0.18995   0.39007   0.41694   0.00000  Uiso   1.00
H466   H     0.31004   0.10995   0.58305   0.00000  Uiso   1.00
H467   H     0.37349   0.02245   0.46123   0.00000  Uiso   1.00
H468   H     0.00382   0.17968   0.62339   0.00000  Uiso   1.00
H469   H     0.12651   0.47754   0.53878   0.00000  Uiso   1.00
H470   H     0.37322   0.48106   0.53185   0.00000  Uiso   1.00
H471   H     0.12678   0.01894   0.46815   0.00000  Uiso   1.00
H472   H     0.23171   0.12655   0.51846   0.00000  Uiso   1.00
H473   H     0.26831   0.37347   0.48142   0.00000  Uiso   1.00
H474   H     0.00390   0.17969   0.37425   0.00000  Uiso   1.00
H475   H     0.49610   0.32031   0.62575   0.00000  Uiso   1.00
H476   H     0.24617   0.07032   0.37661   0.00000  Uiso   1.00
H477   H     0.25383   0.42968   0.62339   0.00000  Uiso   1.00
H478   H     0.25390   0.42969   0.37425   0.00000  Uiso   1.00
H479   H     0.24610   0.07031   0.62575   0.00000  Uiso   1.00
H480   H     0.43995   0.14006   0.41694   0.00000  Uiso   1.00
N481   N     0.00000   0.25000   0.61907   0.00000  Uiso   1.00
N482   N     0.00000   0.25000   0.38093   0.00000  Uiso   1.00
N483   N     0.25000   0.00000   0.61907   0.00000  Uiso   1.00
N484   N     0.25000   0.00000   0.38093   0.00000  Uiso   1.00
O485   O     0.04581   0.20419   0.53821   0.00000  Uiso   1.00
O486   O     0.20420   0.04581   0.46179   0.00000  Uiso   1.00
O487   O     0.20420   0.04581   0.53821   0.00000  Uiso   1.00
O488   O     0.29581   0.45419   0.46179   0.00000  Uiso   1.00
O489   O     0.20420   0.45419   0.46179   0.00000  Uiso   1.00
O490   O     0.29581   0.04581   0.53821   0.00000  Uiso   1.00
O491   O     0.29581   0.04581   0.46179   0.00000  Uiso   1.00
O492   O     0.20420   0.45419   0.53821   0.00000  Uiso   1.00
O493   O     0.44288   0.11558   0.43882   0.00000  Uiso   1.00
O494   O     0.05713   0.38441   0.56119   0.00000  Uiso   1.00
O495   O     0.13702   0.29829   0.44665   0.00000  Uiso   1.00
O496   O     0.45420   0.29581   0.46179   0.00000  Uiso   1.00
O497   O     0.36298   0.20172   0.55334   0.00000  Uiso   1.00
O498   O     0.14782   0.20960   0.53432   0.00000  Uiso   1.00
O499   O     0.35221   0.29043   0.46559   0.00000  Uiso   1.00
O500   O     0.45977   0.39743   0.53129   0.00000  Uiso   1.00
O501   O     0.04020   0.10255   0.46882   0.00000  Uiso   1.00
O502   O     0.19288   0.36558   0.43881   0.00000  Uiso   1.00
O503   O     0.30711   0.13442   0.56117   0.00000  Uiso   1.00
O504   O     0.38702   0.04828   0.44666   0.00000  Uiso   1.00
O505   O     0.11299   0.45171   0.55335   0.00000  Uiso   1.00
O506   O     0.39779   0.45957   0.53441   0.00000  Uiso   1.00
O507   O     0.45420   0.29581   0.53821   0.00000  Uiso   1.00
O508   O     0.10218   0.04040   0.46569   0.00000  Uiso   1.00
O509   O     0.20980   0.14745   0.53117   0.00000  Uiso   1.00
O510   O     0.29023   0.35258   0.46872   0.00000  Uiso   1.00
O511   O     0.04581   0.20419   0.46179   0.00000  Uiso   1.00
O512   O     0.45420   0.20419   0.46179   0.00000  Uiso   1.00
O513   O     0.04581   0.29581   0.53821   0.00000  Uiso   1.00
O514   O     0.04581   0.29581   0.46179   0.00000  Uiso   1.00
O515   O     0.45420   0.20419   0.53821   0.00000  Uiso   1.00
O516   O     0.29581   0.45419   0.53821   0.00000  Uiso   1.00
Zn517  Zn    0.00000   0.25000   0.55104   0.00000  Uiso   1.00
Zn518  Zn    0.00000   0.25000   0.44896   0.00000  Uiso   1.00
Zn519  Zn    0.25000   0.00000   0.55104   0.00000  Uiso   1.00
Zn520  Zn    0.25000   0.00000   0.44896   0.00000  Uiso   1.00
C521   C     0.56025   0.19052   0.50016   0.00000  Uiso   1.00
C522   C     0.50213   0.21093   0.64205   0.00000  Uiso   1.00
C523   C     0.50214   0.21093   0.35664   0.00000  Uiso   1.00
C524   C     0.99786   0.28907   0.64335   0.00000  Uiso   1.00
C525   C     0.74787   0.03907   0.35795   0.00000  Uiso   1.00
C526   C     0.75213   0.46093   0.64205   0.00000  Uiso   1.00
C527   C     0.75214   0.46093   0.35665   0.00000  Uiso   1.00
C528   C     0.74786   0.03907   0.64335   0.00000  Uiso   1.00
C529   C     0.90908   0.12089   0.46873   0.00000  Uiso   1.00
C530   C     0.59093   0.37911   0.53128   0.00000  Uiso   1.00
C531   C     0.63010   0.33623   0.47281   0.00000  Uiso   1.00
C532   C     0.93976   0.30948   0.49984   0.00000  Uiso   1.00
C533   C     0.86989   0.16378   0.52718   0.00000  Uiso   1.00
C534   C     0.63563   0.16791   0.51758   0.00000  Uiso   1.00
C535   C     0.86438   0.33210   0.48237   0.00000  Uiso   1.00
C536   C     0.91786   0.38557   0.51628   0.00000  Uiso   1.00
C537   C     0.58213   0.11442   0.48378   0.00000  Uiso   1.00
C538   C     0.65908   0.37089   0.46872   0.00000  Uiso   1.00
C539   C     0.84092   0.12912   0.53127   0.00000  Uiso   1.00
C540   C     0.88011   0.08623   0.47282   0.00000  Uiso   1.00
C541   C     0.61990   0.41377   0.52719   0.00000  Uiso   1.00
C542   C     0.88562   0.41790   0.51763   0.00000  Uiso   1.00
C543   C     0.93974   0.19030   0.49920   0.00000  Uiso   1.00
C544   C     0.61436   0.08208   0.48243   0.00000  Uiso   1.00
C545   C     0.66787   0.13558   0.51622   0.00000  Uiso   1.00
C546   C     0.83214   0.36444   0.48372   0.00000  Uiso   1.00
C547   C     0.59497   0.34127   0.50280   0.00000  Uiso   1.00
C548   C     0.90503   0.15873   0.49720   0.00000  Uiso   1.00
C549   C     0.90694   0.34279   0.49926   0.00000  Uiso   1.00
C550   C     0.59306   0.15721   0.50075   0.00000  Uiso   1.00
C551   C     0.84497   0.09127   0.50280   0.00000  Uiso   1.00
C552   C     0.65503   0.40873   0.49720   0.00000  Uiso   1.00
C553   C     0.65694   0.09279   0.49925   0.00000  Uiso   1.00
C554   C     0.56026   0.30970   0.50080   0.00000  Uiso   1.00
C555   C     0.84306   0.40721   0.50074   0.00000  Uiso   1.00
C556   C     0.81024   0.44052   0.50016   0.00000  Uiso   1.00
C557   C     0.68975   0.05948   0.49984   0.00000  Uiso   1.00
C558   C     0.68974   0.44030   0.49920   0.00000  Uiso   1.00
C559   C     0.81026   0.05970   0.50080   0.00000  Uiso   1.00
C560   C     0.99787   0.28907   0.35795   0.00000  Uiso   1.00
H561   H     0.99618   0.32032   0.37661   0.00000  Uiso   1.00
H562   H     0.56006   0.35993   0.58307   0.00000  Uiso   1.00
H563   H     0.62349   0.27245   0.46123   0.00000  Uiso   1.00
H564   H     0.87651   0.22755   0.53877   0.00000  Uiso   1.00
H565   H     0.62322   0.23106   0.53185   0.00000  Uiso   1.00
H566   H     0.87678   0.26894   0.46815   0.00000  Uiso   1.00
H567   H     0.98170   0.37653   0.51860   0.00000  Uiso   1.00
H568   H     0.51829   0.12347   0.48149   0.00000  Uiso   1.00
H569   H     0.68995   0.39007   0.41694   0.00000  Uiso   1.00
H570   H     0.81004   0.10995   0.58305   0.00000  Uiso   1.00
H571   H     0.87349   0.02245   0.46123   0.00000  Uiso   1.00
H572   H     0.50382   0.17968   0.62339   0.00000  Uiso   1.00
H573   H     0.62651   0.47754   0.53878   0.00000  Uiso   1.00
H574   H     0.87322   0.48106   0.53185   0.00000  Uiso   1.00
H575   H     0.62678   0.01894   0.46815   0.00000  Uiso   1.00
H576   H     0.73171   0.12655   0.51846   0.00000  Uiso   1.00
H577   H     0.76831   0.37347   0.48142   0.00000  Uiso   1.00
H578   H     0.50390   0.17969   0.37425   0.00000  Uiso   1.00
H579   H     0.99610   0.32031   0.62575   0.00000  Uiso   1.00
H580   H     0.74617   0.07032   0.37661   0.00000  Uiso   1.00
H581   H     0.75383   0.42968   0.62339   0.00000  Uiso   1.00
H582   H     0.75390   0.42969   0.37425   0.00000  Uiso   1.00
H583   H     0.74610   0.07031   0.62575   0.00000  Uiso   1.00
H584   H     0.93995   0.14006   0.41694   0.00000  Uiso   1.00
N585   N     0.50000   0.25000   0.61907   0.00000  Uiso   1.00
N586   N     0.50000   0.25000   0.38093   0.00000  Uiso   1.00
N587   N     0.75000   0.00000   0.61907   0.00000  Uiso   1.00
N588   N     0.75000   0.00000   0.38093   0.00000  Uiso   1.00
O589   O     0.54581   0.20419   0.53821   0.00000  Uiso   1.00
O590   O     0.70420   0.04581   0.46179   0.00000  Uiso   1.00
O591   O     0.70420   0.04581   0.53821   0.00000  Uiso   1.00
O592   O     0.79581   0.45419   0.46179   0.00000  Uiso   1.00
O593   O     0.70420   0.45419   0.46179   0.00000  Uiso   1.00
O594   O     0.79581   0.04581   0.53821   0.00000  Uiso   1.00
O595   O     0.79581   0.04581   0.46179   0.00000  Uiso   1.00
O596   O     0.70420   0.45419   0.53821   0.00000  Uiso   1.00
O597   O     0.94288   0.11558   0.43882   0.00000  Uiso   1.00
O598   O     0.55713   0.38441   0.56119   0.00000  Uiso   1.00
O599   O     0.63702   0.29829   0.44665   0.00000  Uiso   1.00
O600   O     0.95420   0.29581   0.46179   0.00000  Uiso   1.00
O601   O     0.86298   0.20172   0.55334   0.00000  Uiso   1.00
O602   O     0.64782   0.20960   0.53432   0.00000  Uiso   1.00
O603   O     0.85221   0.29043   0.46559   0.00000  Uiso   1.00
O604   O     0.95977   0.39743   0.53129   0.00000  Uiso   1.00
O605   O     0.54020   0.10255   0.46882   0.00000  Uiso   1.00
O606   O     0.69288   0.36558   0.43881   0.00000  Uiso   1.00
O607   O     0.80711   0.13442   0.56117   0.00000  Uiso   1.00
O608   O     0.88702   0.04828   0.44666   0.00000  Uiso   1.00
O609   O     0.61299   0.45171   0.55335   0.00000  Uiso   1.00
O610   O     0.89779   0.45957   0.53441   0.00000  Uiso   1.00
O611   O     0.95420   0.29581   0.53821   0.00000  Uiso   1.00
O612   O     0.60218   0.04040   0.46569   0.00000  Uiso   1.00
O613   O     0.70980   0.14745   0.53117   0.00000  Uiso   1.00
O614   O     0.79023   0.35258   0.46872   0.00000  Uiso   1.00
O615   O     0.54581   0.20419   0.46179   0.00000  Uiso   1.00
O616   O     0.95420   0.20419   0.46179   0.00000  Uiso   1.00
O617   O     0.54581   0.29581   0.53821   0.00000  Uiso   1.00
O618   O     0.54581   0.29581   0.46179   0.00000  Uiso   1.00
O619   O     0.95420   0.20419   0.53821   0.00000  Uiso   1.00
O620   O     0.79581   0.45419   0.53821   0.00000  Uiso   1.00
Zn621  Zn    0.50000   0.25000   0.55104   0.00000  Uiso   1.00
Zn622  Zn    0.50000   0.25000   0.44896   0.00000  Uiso   1.00
Zn623  Zn    0.75000   0.00000   0.55104   0.00000  Uiso   1.00
Zn624  Zn    0.75000   0.00000   0.44896   0.00000  Uiso   1.00
C625   C     0.06025   0.69052   0.50016   0.00000  Uiso   1.00
C626   C     0.00213   0.71093   0.64205   0.00000  Uiso   1.00
C627   C     0.00214   0.71093   0.35664   0.00000  Uiso   1.00
C628   C     0.49786   0.78907   0.64335   0.00000  Uiso   1.00
C629   C     0.24787   0.53907   0.35795   0.00000  Uiso   1.00
C630   C     0.25213   0.96093   0.64205   0.00000  Uiso   1.00
C631   C     0.25214   0.96093   0.35665   0.00000  Uiso   1.00
C632   C     0.24786   0.53907   0.64335   0.00000  Uiso   1.00
C633   C     0.40908   0.62089   0.46873   0.00000  Uiso   1.00
C634   C     0.09093   0.87911   0.53128   0.00000  Uiso   1.00
C635   C     0.13010   0.83623   0.47281   0.00000  Uiso   1.00
C636   C     0.43976   0.80948   0.49984   0.00000  Uiso   1.00
C637   C     0.36989   0.66378   0.52718   0.00000  Uiso   1.00
C638   C     0.13563   0.66791   0.51758   0.00000  Uiso   1.00
C639   C     0.36438   0.83210   0.48237   0.00000  Uiso   1.00
C640   C     0.41786   0.88557   0.51628   0.00000  Uiso   1.00
C641   C     0.08213   0.61442   0.48378   0.00000  Uiso   1.00
C642   C     0.15908   0.87089   0.46872   0.00000  Uiso   1.00
C643   C     0.34092   0.62912   0.53127   0.00000  Uiso   1.00
C644   C     0.38011   0.58623   0.47282   0.00000  Uiso   1.00
C645   C     0.11990   0.91377   0.52719   0.00000  Uiso   1.00
C646   C     0.38562   0.91790   0.51763   0.00000  Uiso   1.00
C647   C     0.43974   0.69030   0.49920   0.00000  Uiso   1.00
C648   C     0.11436   0.58208   0.48243   0.00000  Uiso   1.00
C649   C     0.16787   0.63558   0.51622   0.00000  Uiso   1.00
C650   C     0.33214   0.86444   0.48372   0.00000  Uiso   1.00
C651   C     0.09497   0.84127   0.50280   0.00000  Uiso   1.00
C652   C     0.40503   0.65873   0.49720   0.00000  Uiso   1.00
C653   C     0.40694   0.84279   0.49926   0.00000  Uiso   1.00
C654   C     0.09306   0.65721   0.50075   0.00000  Uiso   1.00
C655   C     0.34497   0.59127   0.50280   0.00000  Uiso   1.00
C656   C     0.15503   0.90873   0.49720   0.00000  Uiso   1.00
C657   C     0.15694   0.59279   0.49925   0.00000  Uiso   1.00
C658   C     0.06026   0.80970   0.50080   0.00000  Uiso   1.00
C659   C     0.34306   0.90721   0.50074   0.00000  Uiso   1.00
C660   C     0.31024   0.94052   0.50016   0.00000  Uiso   1.00
C661   C     0.18975   0.55948   0.49984   0.00000  Uiso   1.00
C662   C     0.18974   0.94030   0.49920   0.00000  Uiso   1.00
C663   C     0.31026   0.55970   0.50080   0.00000  Uiso   1.00
C664   C     0.49787   0.78907   0.35795   0.00000  Uiso   1.00
H665   H     0.49618   0.82032   0.37661   0.00000  Uiso   1.00
H666   H     0.06006   0.85993   0.58307   0.00000  Uiso   1.00
H667   H     0.12349   0.77245   0.46123   0.00000  Uiso   1.00
H668   H     0.37651   0.72755   0.53877   0.00000  Uiso   1.00
H669   H     0.12322   0.73106   0.53185   0.00000  Uiso   1.00
H670   H     0.37678   0.76894   0.46815   0.00000  Uiso   1.00
H671   H     0.48170   0.87653   0.51860   0.00000  Uiso   1.00
H672   H     0.01829   0.62347   0.48149   0.00000  Uiso   1.00
H673   H     0.18995   0.89007   0.41694   0.00000  Uiso   1.00
H674   H     0.31004   0.60995   0.58305   0.00000  Uiso   1.00
H675   H     0.37349   0.52245   0.46123   0.00000  Uiso   1.00
H676   H     0.00382   0.67968   0.62339   0.00000  Uiso   1.00
H677   H     0.12651   0.97754   0.53878   0.00000  Uiso   1.00
H678   H     0.37322   0.98106   0.53185   0.00000  Uiso   1.00
H679   H     0.12678   0.51894   0.46815   0.00000  Uiso   1.00
H680   H     0.23171   0.62655   0.51846   0.00000  Uiso   1.00
H681   H     0.26831   0.87347   0.48142   0.00000  Uiso   1.00
H682   H     0.00390   0.67969   0.37425   0.00000  Uiso   1.00
H683   H     0.49610   0.82031   0.62575   0.00000  Uiso   1.00
H684   H     0.24617   0.57032   0.37661   0.00000  Uiso   1.00
H685   H     0.25383   0.92968   0.62339   0.00000  Uiso   1.00
H686   H     0.25390   0.92969   0.37425   0.00000  Uiso   1.00
H687   H     0.24610   0.57031   0.62575   0.00000  Uiso   1.00
H688   H     0.43995   0.64006   0.41694   0.00000  Uiso   1.00
N689   N     0.00000   0.75000   0.61907   0.00000  Uiso   1.00
N690   N     0.00000   0.75000   0.38093   0.00000  Uiso   1.00
N691   N     0.25000   0.50000   0.61907   0.00000  Uiso   1.00
N692   N     0.25000   0.50000   0.38093   0.00000  Uiso   1.00
O693   O     0.04581   0.70419   0.53821   0.00000  Uiso   1.00
O694   O     0.20420   0.54581   0.46179   0.00000  Uiso   1.00
O695   O     0.20420   0.54581   0.53821   0.00000  Uiso   1.00
O696   O     0.29581   0.95419   0.46179   0.00000  Uiso   1.00
O697   O     0.20420   0.95419   0.46179   0.00000  Uiso   1.00
O698   O     0.29581   0.54581   0.53821   0.00000  Uiso   1.00
O699   O     0.29581   0.54581   0.46179   0.00000  Uiso   1.00
O700   O     0.20420   0.95419   0.53821   0.00000  Uiso   1.00
O701   O     0.44288   0.61558   0.43882   0.00000  Uiso   1.00
O702   O     0.05713   0.88441   0.56119   0.00000  Uiso   1.00
O703   O     0.13702   0.79829   0.44665   0.00000  Uiso   1.00
O704   O     0.45420   0.79581   0.46179   0.00000  Uiso   1.00
O705   O     0.36298   0.70172   0.55334   0.00000  Uiso   1.00
O706   O     0.14782   0.70960   0.53432   0.00000  Uiso   1.00
O707   O     0.35221   0.79043   0.46559   0.00000  Uiso   1.00
O708   O     0.45977   0.89743   0.53129   0.00000  Uiso   1.00
O709   O     0.04020   0.60255   0.46882   0.00000  Uiso   1.00
O710   O     0.19288   0.86558   0.43881   0.00000  Uiso   1.00
O711   O     0.30711   0.63442   0.56117   0.00000  Uiso   1.00
O712   O     0.38702   0.54828   0.44666   0.00000  Uiso   1.00
O713   O     0.11299   0.95171   0.55335   0.00000  Uiso   1.00
O714   O     0.39779   0.95957   0.53441   0.00000  Uiso   1.00
O715   O     0.45420   0.79581   0.53821   0.00000  Uiso   1.00
O716   O     0.10218   0.54040   0.46569   0.00000  Uiso   1.00
O717   O     0.20980   0.64745   0.53117   0.00000  Uiso   1.00
O718   O     0.29023   0.85258   0.46872   0.00000  Uiso   1.00
O719   O     0.04581   0.70419   0.46179   0.00000  Uiso   1.00
O720   O     0.45420   0.70419   0.46179   0.00000  Uiso   1.00
O721   O     0.04581   0.79581   0.53821   0.00000  Uiso   1.00
O722   O     0.04581   0.79581   0.46179   0.00000  Uiso   1.00
O723   O     0.45420   0.70419   0.53821   0.00000  Uiso   1.00
O724   O     0.29581   0.95419   0.53821   0.00000  Uiso   1.00
Zn725  Zn    0.00000   0.75000   0.55104   0.00000  Uiso   1.00
Zn726  Zn    0.00000   0.75000   0.44896   0.00000  Uiso   1.00
Zn727  Zn    0.25000   0.50000   0.55104   0.00000  Uiso   1.00
Zn728  Zn    0.25000   0.50000   0.44896   0.00000  Uiso   1.00
C729   C     0.56025   0.69052   0.50016   0.00000  Uiso   1.00
C730   C     0.50213   0.71093   0.64205   0.00000  Uiso   1.00
C731   C     0.50214   0.71093   0.35664   0.00000  Uiso   1.00
C732   C     0.99786   0.78907   0.64335   0.00000  Uiso   1.00
C733   C     0.74787   0.53907   0.35795   0.00000  Uiso   1.00
C734   C     0.75213   0.96093   0.64205   0.00000  Uiso   1.00
C735   C     0.75214   0.96093   0.35665   0.00000  Uiso   1.00
C736   C     0.74786   0.53907   0.64335   0.00000  Uiso   1.00
C737   C     0.90908   0.62089   0.46873   0.00000  Uiso   1.00
C738   C     0.59093   0.87911   0.53128   0.00000  Uiso   1.00
C739   C     0.63010   0.83623   0.47281   0.00000  Uiso   1.00
C740   C     0.93976   0.80948   0.49984   0.00000  Uiso   1.00
C741   C     0.86989   0.66378   0.52718   0.00000  Uiso   1.00
C742   C     0.63563   0.66791   0.51758   0.00000  Uiso   1.00
C743   C     0.86438   0.83210   0.48237   0.00000  Uiso   1.00
C744   C     0.91786   0.88557   0.51628   0.00000  Uiso   1.00
C745   C     0.58213   0.61442   0.48378   0.00000  Uiso   1.00
C746   C     0.65908   0.87089   0.46872   0.00000  Uiso   1.00
C747   C     0.84092   0.62912   0.53127   0.00000  Uiso   1.00
C748   C     0.88011   0.58623   0.47282   0.00000  Uiso   1.00
C749   C     0.61990   0.91377   0.52719   0.00000  Uiso   1.00
C750   C     0.88562   0.91790   0.51763   0.00000  Uiso   1.00
C751   C     0.93974   0.69030   0.49920   0.00000  Uiso   1.00
C752   C     0.61436   0.58208   0.48243   0.00000  Uiso   1.00
C753   C     0.66787   0.63558   0.51622   0.00000  Uiso   1.00
C754   C     0.83214   0.86444   0.48372   0.00000  Uiso   1.00
C755   C     0.59497   0.84127   0.50280   0.00000  Uiso   1.00
C756   C     0.90503   0.65873   0.49720   0.00000  Uiso   1.00
C757   C     0.90694   0.84279   0.49926   0.00000  Uiso   1.00
C758   C     0.59306   0.65721   0.50075   0.00000  Uiso   1.00
C759   C     0.84497   0.59127   0.50280   0.00000  Uiso   1.00
C760   C     0.65503   0.90873   0.49720   0.00000  Uiso   1.00
C761   C     0.65694   0.59279   0.49925   0.00000  Uiso   1.00
C762   C     0.56026   0.80970   0.50080   0.00000  Uiso   1.00
C763   C     0.84306   0.90721   0.50074   0.00000  Uiso   1.00
C764   C     0.81024   0.94052   0.50016   0.00000  Uiso   1.00
C765   C     0.68975   0.55948   0.49984   0.00000  Uiso   1.00
C766   C     0.68974   0.94030   0.49920   0.00000  Uiso   1.00
C767   C     0.81026   0.55970   0.50080   0.00000  Uiso   1.00
C768   C     0.99787   0.78907   0.35795   0.00000  Uiso   1.00
H769   H     0.99618   0.82032   0.37661   0.00000  Uiso   1.00
H770   H     0.56006   0.85993   0.58307   0.00000  Uiso   1.00
H771   H     0.62349   0.77245   0.46123   0.00000  Uiso   1.00
H772   H     0.87651   0.72755   0.53877   0.00000  Uiso   1.00
H773   H     0.62322   0.73106   0.53185   0.00000  Uiso   1.00
H774   H     0.87678   0.76894   0.46815   0.00000  Uiso   1.00
H775   H     0.98170   0.87653   0.51860   0.00000  Uiso   1.00
H776   H     0.51829   0.62347   0.48149   0.00000  Uiso   1.00
H777   H     0.68995   0.89007   0.41694   0.00000  Uiso   1.00
H778   H     0.81004   0.60995   0.58305   0.00000  Uiso   1.00
H779   H     0.87349   0.52245   0.46123   0.00000  Uiso   1.00
H780   H     0.50382   0.67968   0.62339   0.00000  Uiso   1.00
H781   H     0.62651   0.97754   0.53878   0.00000  Uiso   1.00
H782   H     0.87322   0.98106   0.53185   0.00000  Uiso   1.00
H783   H     0.62678   0.51894   0.46815   0.00000  Uiso   1.00
H784   H     0.73171   0.62655   0.51846   0.00000  Uiso   1.00
H785   H     0.76831   0.87347   0.48142   0.00000  Uiso   1.00
H786   H     0.50390   0.67969   0.37425   0.00000  Uiso   1.00
H787   H     0.99610   0.82031   0.62575   0.00000  Uiso   1.00
H788   H     0.74617   0.57032   0.37661   0.00000  Uiso   1.00
H789   H     0.75383   0.92968   0.62339   0.00000  Uiso   1.00
H790   H     0.75390   0.92969   0.37425   0.00000  Uiso   1.00
H791   H     0.74610   0.57031   0.62575   0.00000  Uiso   1.00
H792   H     0.93995   0.64006   0.41694   0.00000  Uiso   1.00
N793   N     0.50000   0.75000   0.61907   0.00000  Uiso   1.00
N794   N     0.50000   0.75000   0.38093   0.00000  Uiso   1.00
N795   N     0.75000   0.50000   0.61907   0.00000  Uiso   1.00
N796   N     0.75000   0.50000   0.38093   0.00000  Uiso   1.00
O797   O     0.54581   0.70419   0.53821   0.00000  Uiso   1.00
O798   O     0.70420   0.54581   0.46179   0.00000  Uiso   1.00
O799   O     0.70420   0.54581   0.53821   0.00000  Uiso   1.00
O800   O     0.79581   0.95419   0.46179   0.00000  Uiso   1.00
O801   O     0.70420   0.95419   0.46179   0.00000  Uiso   1.00
O802   O     0.79581   0.54581   0.53821   0.00000  Uiso   1.00
O803   O     0.79581   0.54581   0.46179   0.00000  Uiso   1.00
O804   O     0.70420   0.95419   0.53821   0.00000  Uiso   1.00
O805   O     0.94288   0.61558   0.43882   0.00000  Uiso   1.00
O806   O     0.55713   0.88441   0.56119   0.00000  Uiso   1.00
O807   O     0.63702   0.79829   0.44665   0.00000  Uiso   1.00
O808   O     0.95420   0.79581   0.46179   0.00000  Uiso   1.00
O809   O     0.86298   0.70172   0.55334   0.00000  Uiso   1.00
O810   O     0.64782   0.70960   0.53432   0.00000  Uiso   1.00
O811   O     0.85221   0.79043   0.46559   0.00000  Uiso   1.00
O812   O     0.95977   0.89743   0.53129   0.00000  Uiso   1.00
O813   O     0.54020   0.60255   0.46882   0.00000  Uiso   1.00
O814   O     0.69288   0.86558   0.43881   0.00000  Uiso   1.00
O815   O     0.80711   0.63442   0.56117   0.00000  Uiso   1.00
O816   O     0.88702   0.54828   0.44666   0.00000  Uiso   1.00
O817   O     0.61299   0.95171   0.55335   0.00000  Uiso   1.00
O818   O     0.89779   0.95957   0.53441   0.00000  Uiso   1.00
O819   O     0.95420   0.79581   0.53821   0.00000  Uiso   1.00
O820   O     0.60218   0.54040   0.46569   0.00000  Uiso   1.00
O821   O     0.70980   0.64745   0.53117   0.00000  Uiso   1.00
O822   O     0.79023   0.85258   0.46872   0.00000  Uiso   1.00
O823   O     0.54581   0.70419   0.46179   0.00000  Uiso   1.00
O824   O     0.95420   0.70419   0.46179   0.00000  Uiso   1.00
O825   O     0.54581   0.79581   0.53821   0.00000  Uiso   1.00
O826   O     0.54581   0.79581   0.46179   0.00000  Uiso   1.00
O827   O     0.95420   0.70419   0.53821   0.00000  Uiso   1.00
O828   O     0.79581   0.95419   0.53821   0.00000  Uiso   1.00
Zn829  Zn    0.50000   0.75000   0.55104   0.00000  Uiso   1.00
Zn830  Zn    0.50000   0.75000   0.44896   0.00000  Uiso   1.00
Zn831  Zn    0.75000   0.50000   0.55104   0.00000  Uiso   1.00
Zn832  Zn    0.75000   0.50000   0.44896   0.00000  Uiso   1.00
C833   C     0.06025   0.19052   0.83349   0.00000  Uiso   1.00
C834   C     0.00213   0.21093   0.97538   0.00000  Uiso   1.00
C835   C     0.00214   0.21093   0.68998   0.00000  Uiso   1.00
C836   C     0.49786   0.28907   0.97669   0.00000  Uiso   1.00
C837   C     0.24787   0.03907   0.69129   0.00000  Uiso   1.00
C838   C     0.25213   0.46093   0.97538   0.00000  Uiso   1.00
C839   C     0.25214   0.46093   0.68998   0.00000  Uiso   1.00
C840   C     0.24786   0.03907   0.97669   0.00000  Uiso   1.00
C841   C     0.40908   0.12089   0.80206   0.00000  Uiso   1.00
C842   C     0.09093   0.37911   0.86461   0.00000  Uiso   1.00
C843   C     0.13010   0.33623   0.80615   0.00000  Uiso   1.00
C844   C     0.43976   0.30948   0.83317   0.00000  Uiso   1.00
C845   C     0.36989   0.16378   0.86051   0.00000  Uiso   1.00
C846   C     0.13563   0.16791   0.85091   0.00000  Uiso   1.00
C847   C     0.36438   0.33210   0.81571   0.00000  Uiso   1.00
C848   C     0.41786   0.38557   0.84962   0.00000  Uiso   1.00
C849   C     0.08213   0.11442   0.81711   0.00000  Uiso   1.00
C850   C     0.15908   0.37089   0.80205   0.00000  Uiso   1.00
C851   C     0.34092   0.12912   0.86461   0.00000  Uiso   1.00
C852   C     0.38011   0.08623   0.80615   0.00000  Uiso   1.00
C853   C     0.11990   0.41377   0.86052   0.00000  Uiso   1.00
C854   C     0.38562   0.41790   0.85096   0.00000  Uiso   1.00
C855   C     0.43974   0.19030   0.83254   0.00000  Uiso   1.00
C856   C     0.11436   0.08208   0.81576   0.00000  Uiso   1.00
C857   C     0.16787   0.13558   0.84955   0.00000  Uiso   1.00
C858   C     0.33214   0.36444   0.81705   0.00000  Uiso   1.00
C859   C     0.09497   0.34127   0.83613   0.00000  Uiso   1.00
C860   C     0.40503   0.15873   0.83054   0.00000  Uiso   1.00
C861   C     0.40694   0.34279   0.83259   0.00000  Uiso   1.00
C862   C     0.09306   0.15721   0.83408   0.00000  Uiso   1.00
C863   C     0.34497   0.09127   0.83613   0.00000  Uiso   1.00
C864   C     0.15503   0.40873   0.83054   0.00000  Uiso   1.00
C865   C     0.15694   0.09279   0.83259   0.00000  Uiso   1.00
C866   C     0.06026   0.30970   0.83413   0.00000  Uiso   1.00
C867   C     0.34306   0.40721   0.83408   0.00000  Uiso   1.00
C868   C     0.31024   0.44052   0.83349   0.00000  Uiso   1.00
C869   C     0.18975   0.05948   0.83317   0.00000  Uiso   1.00
C870   C     0.18974   0.44030   0.83254   0.00000  Uiso   1.00
C871   C     0.31026   0.05970   0.83413   0.00000  Uiso   1.00
C872   C     0.49787   0.28907   0.69129   0.00000  Uiso   1.00
H873   H     0.49618   0.32032   0.70994   0.00000  Uiso   1.00
H874   H     0.06006   0.35993   0.91640   0.00000  Uiso   1.00
H875   H     0.12349   0.27245   0.79456   0.00000  Uiso   1.00
H876   H     0.37651   0.22755   0.87210   0.00000  Uiso   1.00
H877   H     0.12322   0.23106   0.86519   0.00000  Uiso   1.00
H878   H     0.37678   0.26894   0.80148   0.00000  Uiso   1.00
H879   H     0.48170   0.37653   0.85193   0.00000  Uiso   1.00
H880   H     0.01829   0.12347   0.81482   0.00000  Uiso   1.00
H881   H     0.18995   0.39007   0.75028   0.00000  Uiso   1.00
H882   H     0.31004   0.10995   0.91638   0.00000  Uiso   1.00
H883   H     0.37349   0.02245   0.79457   0.00000  Uiso   1.00
H884   H     0.00382   0.17968   0.95673   0.00000  Uiso   1.00
H885   H     0.12651   0.47754   0.87211   0.00000  Uiso   1.00
H886   H     0.37322   0.48106   0.86519   0.00000  Uiso   1.00
H887   H     0.12678   0.01894   0.80149   0.00000  Uiso   1.00
H888   H     0.23171   0.12655   0.85180   0.00000  Uiso   1.00
H889   H     0.26831   0.37347   0.81475   0.00000  Uiso   1.00
H890   H     0.00390   0.17969   0.70758   0.00000  Uiso   1.00
H891   H     0.49610   0.32031   0.95908   0.00000  Uiso   1.00
H892   H     0.24617   0.07032   0.70994   0.00000  Uiso   1.00
H893   H     0.25383   0.42968   0.95673   0.00000  Uiso   1.00
H894   H     0.25390   0.42969   0.70758   0.00000  Uiso   1.00
H895   H     0.24610   0.07031   0.95908   0.00000  Uiso   1.00
H896   H     0.43995   0.14006   0.75028   0.00000  Uiso   1.00
N897   N     0.00000   0.25000   0.95240   0.00000  Uiso   1.00
N898   N     0.00000   0.25000   0.71427   0.00000  Uiso   1.00
N899   N     0.25000   0.00000   0.95240   0.00000  Uiso   1.00
N900   N     0.25000   0.00000   0.71427   0.00000  Uiso   1.00
O901   O     0.04581   0.20419   0.87154   0.00000  Uiso   1.00
O902   O     0.20420   0.04581   0.79513   0.00000  Uiso   1.00
O903   O     0.20420   0.04581   0.87154   0.00000  Uiso   1.00
O904   O     0.29581   0.45419   0.79513   0.00000  Uiso   1.00
O905   O     0.20420   0.45419   0.79513   0.00000  Uiso   1.00
O906   O     0.29581   0.04581   0.87154   0.00000  Uiso   1.00
O907   O     0.29581   0.04581   0.79513   0.00000  Uiso   1.00
O908   O     0.20420   0.45419   0.87154   0.00000  Uiso   1.00
O909   O     0.44288   0.11558   0.77215   0.00000  Uiso   1.00
O910   O     0.05713   0.38441   0.89453   0.00000  Uiso   1.00
O911   O     0.13702   0.29829   0.77998   0.00000  Uiso   1.00
O912   O     0.45420   0.29581   0.79513   0.00000  Uiso   1.00
O913   O     0.36298   0.20172   0.88667   0.00000  Uiso   1.00
O914   O     0.14782   0.20960   0.86765   0.00000  Uiso   1.00
O915   O     0.35221   0.29043   0.79892   0.00000  Uiso   1.00
O916   O     0.45977   0.39743   0.86462   0.00000  Uiso   1.00
O917   O     0.04020   0.10255   0.80216   0.00000  Uiso   1.00
O918   O     0.19288   0.36558   0.77215   0.00000  Uiso   1.00
O919   O     0.30711   0.13442   0.89451   0.00000  Uiso   1.00
O920   O     0.38702   0.04828   0.77999   0.00000  Uiso   1.00
O921   O     0.11299   0.45171   0.88668   0.00000  Uiso   1.00
O922   O     0.39779   0.45957   0.86774   0.00000  Uiso   1.00
O923   O     0.45420   0.29581   0.87154   0.00000  Uiso   1.00
O924   O     0.10218   0.04040   0.79902   0.00000  Uiso   1.00
O925   O     0.20980   0.14745   0.86450   0.00000  Uiso   1.00
O926   O     0.29023   0.35258   0.80205   0.00000  Uiso   1.00
O927   O     0.04581   0.20419   0.79513   0.00000  Uiso   1.00
O928   O     0.45420   0.20419   0.79513   0.00000  Uiso   1.00
O929   O     0.04581   0.29581   0.87154   0.00000  Uiso   1.00
O930   O     0.04581   0.29581   0.79513   0.00000  Uiso   1.00
O931   O     0.45420   0.20419   0.87154   0.00000  Uiso   1.00
O932   O     0.29581   0.45419   0.87154   0.00000  Uiso   1.00
Zn933  Zn    0.00000   0.25000   0.88437   0.00000  Uiso   1.00
Zn934  Zn    0.00000   0.25000   0.78229   0.00000  Uiso   1.00
Zn935  Zn    0.25000   0.00000   0.88437   0.00000  Uiso   1.00
Zn936  Zn    0.25000   0.00000   0.78229   0.00000  Uiso   1.00
C937   C     0.56025   0.19052   0.83349   0.00000  Uiso   1.00
C938   C     0.50213   0.21093   0.97538   0.00000  Uiso   1.00
C939   C     0.50214   0.21093   0.68998   0.00000  Uiso   1.00
C940   C     0.99786   0.28907   0.97669   0.00000  Uiso   1.00
C941   C     0.74787   0.03907   0.69129   0.00000  Uiso   1.00
C942   C     0.75213   0.46093   0.97538   0.00000  Uiso   1.00
C943   C     0.75214   0.46093   0.68998   0.00000  Uiso   1.00
C944   C     0.74786   0.03907   0.97669   0.00000  Uiso   1.00
C945   C     0.90908   0.12089   0.80206   0.00000  Uiso   1.00
C946   C     0.59093   0.37911   0.86461   0.00000  Uiso   1.00
C947   C     0.63010   0.33623   0.80615   0.00000  Uiso   1.00
C948   C     0.93976   0.30948   0.83317   0.00000  Uiso   1.00
C949   C     0.86989   0.16378   0.86051   0.00000  Uiso   1.00
C950   C     0.63563   0.16791   0.85091   0.00000  Uiso   1.00
C951   C     0.86438   0.33210   0.81571   0.00000  Uiso   1.00
C952   C     0.91786   0.38557   0.84962   0.00000  Uiso   1.00
C953   C     0.58213   0.11442   0.81711   0.00000  Uiso   1.00
C954   C     0.65908   0.37089   0.80205   0.00000  Uiso   1.00
C955   C     0.84092   0.12912   0.86461   0.00000  Uiso   1.00
C956   C     0.88011   0.08623   0.80615   0.00000  Uiso   1.00
C957   C     0.61990   0.41377   0.86052   0.00000  Uiso   1.00
C958   C     0.88562   0.41790   0.85096   0.00000  Uiso   1.00
C959   C     0.93974   0.19030   0.83254   0.00000  Uiso   1.00
C960   C     0.61436   0.08208   0.81576   0.00000  Uiso   1.00
C961   C     0.66787   0.13558   0.84955   0.00000  Uiso   1.00
C962   C     0.83214   0.36444   0.81705   0.00000  Uiso   1.00
C963   C     0.59497   0.34127   0.83613   0.00000  Uiso   1.00
C964   C     0.90503   0.15873   0.83054   0.00000  Uiso   1.00
C965   C     0.90694   0.34279   0.83259   0.00000  Uiso   1.00
C966   C     0.59306   0.15721   0.83408   0.00000  Uiso   1.00
C967   C     0.84497   0.09127   0.83613   0.00000  Uiso   1.00
C968   C     0.65503   0.40873   0.83054   0.00000  Uiso   1.00
C969   C     0.65694   0.09279   0.83259   0.00000  Uiso   1.00
C970   C     0.56026   0.30970   0.83413   0.00000  Uiso   1.00
C971   C     0.84306   0.40721   0.83408   0.00000  Uiso   1.00
C972   C     0.81024   0.44052   0.83349   0.00000  Uiso   1.00
C973   C     0.68975   0.05948   0.83317   0.00000  Uiso   1.00
C974   C     0.68974   0.44030   0.83254   0.00000  Uiso   1.00
C975   C     0.81026   0.05970   0.83413   0.00000  Uiso   1.00
C976   C     0.99787   0.28907   0.69129   0.00000  Uiso   1.00
H977   H     0.99618   0.32032   0.70994   0.00000  Uiso   1.00
H978   H     0.56006   0.35993   0.91640   0.00000  Uiso   1.00
H979   H     0.62349   0.27245   0.79456   0.00000  Uiso   1.00
H980   H     0.87651   0.22755   0.87210   0.00000  Uiso   1.00
H981   H     0.62322   0.23106   0.86519   0.00000  Uiso   1.00
H982   H     0.87678   0.26894   0.80148   0.00000  Uiso   1.00
H983   H     0.98170   0.37653   0.85193   0.00000  Uiso   1.00
H984   H     0.51829   0.12347   0.81482   0.00000  Uiso   1.00
H985   H     0.68995   0.39007   0.75028   0.00000  Uiso   1.00
H986   H     0.81004   0.10995   0.91638   0.00000  Uiso   1.00
H987   H     0.87349   0.02245   0.79457   0.00000  Uiso   1.00
H988   H     0.50382   0.17968   0.95673   0.00000  Uiso   1.00
H989   H     0.62651   0.47754   0.87211   0.00000  Uiso   1.00
H990   H     0.87322   0.48106   0.86519   0.00000  Uiso   1.00
H991   H     0.62678   0.01894   0.80149   0.00000  Uiso   1.00
H992   H     0.73171   0.12655   0.85180   0.00000  Uiso   1.00
H993   H     0.76831   0.37347   0.81475   0.00000  Uiso   1.00
H994   H     0.50390   0.17969   0.70758   0.00000  Uiso   1.00
H995   H     0.99610   0.32031   0.95908   0.00000  Uiso   1.00
H996   H     0.74617   0.07032   0.70994   0.00000  Uiso   1.00
H997   H     0.75383   0.42968   0.95673   0.00000  Uiso   1.00
H998   H     0.75390   0.42969   0.70758   0.00000  Uiso   1.00
H999   H     0.74610   0.07031   0.95908   0.00000  Uiso   1.00
H1000  H     0.93995   0.14006   0.75028   0.00000  Uiso   1.00
N1001  N     0.50000   0.25000   0.95240   0.00000  Uiso   1.00
N1002  N     0.50000   0.25000   0.71427   0.00000  Uiso   1.00
N1003  N     0.75000   0.00000   0.95240   0.00000  Uiso   1.00
N1004  N     0.75000   0.00000   0.71427   0.00000  Uiso   1.00
O1005  O     0.54581   0.20419   0.87154   0.00000  Uiso   1.00
O1006  O     0.70420   0.04581   0.79513   0.00000  Uiso   1.00
O1007  O     0.70420   0.04581   0.87154   0.00000  Uiso   1.00
O1008  O     0.79581   0.45419   0.79513   0.00000  Uiso   1.00
O1009  O     0.70420   0.45419   0.79513   0.00000  Uiso   1.00
O1010  O     0.79581   0.04581   0.87154   0.00000  Uiso   1.00
O1011  O     0.79581   0.04581   0.79513   0.00000  Uiso   1.00
O1012  O     0.70420   0.45419   0.87154   0.00000  Uiso   1.00
O1013  O     0.94288   0.11558   0.77215   0.00000  Uiso   1.00
O1014  O     0.55713   0.38441   0.89453   0.00000  Uiso   1.00
O1015  O     0.63702   0.29829   0.77998   0.00000  Uiso   1.00
O1016  O     0.95420   0.29581   0.79513   0.00000  Uiso   1.00
O1017  O     0.86298   0.20172   0.88667   0.00000  Uiso   1.00
O1018  O     0.64782   0.20960   0.86765   0.00000  Uiso   1.00
O1019  O     0.85221   0.29043   0.79892   0.00000  Uiso   1.00
O1020  O     0.95977   0.39743   0.86462   0.00000  Uiso   1.00
O1021  O     0.54020   0.10255   0.80216   0.00000  Uiso   1.00
O1022  O     0.69288   0.36558   0.77215   0.00000  Uiso   1.00
O1023  O     0.80711   0.13442   0.89451   0.00000  Uiso   1.00
O1024  O     0.88702   0.04828   0.77999   0.00000  Uiso   1.00
O1025  O     0.61299   0.45171   0.88668   0.00000  Uiso   1.00
O1026  O     0.89779   0.45957   0.86774   0.00000  Uiso   1.00
O1027  O     0.95420   0.29581   0.87154   0.00000  Uiso   1.00
O1028  O     0.60218   0.04040   0.79902   0.00000  Uiso   1.00
O1029  O     0.70980   0.14745   0.86450   0.00000  Uiso   1.00
O1030  O     0.79023   0.35258   0.80205   0.00000  Uiso   1.00
O1031  O     0.54581   0.20419   0.79513   0.00000  Uiso   1.00
O1032  O     0.95420   0.20419   0.79513   0.00000  Uiso   1.00
O1033  O     0.54581   0.29581   0.87154   0.00000  Uiso   1.00
O1034  O     0.54581   0.29581   0.79513   0.00000  Uiso   1.00
O1035  O     0.95420   0.20419   0.87154   0.00000  Uiso   1.00
O1036  O     0.79581   0.45419   0.87154   0.00000  Uiso   1.00
Zn1037 Zn    0.50000   0.25000   0.88437   0.00000  Uiso   1.00
Zn1038 Zn    0.50000   0.25000   0.78229   0.00000  Uiso   1.00
Zn1039 Zn    0.75000   0.00000   0.88437   0.00000  Uiso   1.00
Zn1040 Zn    0.75000   0.00000   0.78229   0.00000  Uiso   1.00
C1041  C     0.06025   0.69052   0.83349   0.00000  Uiso   1.00
C1042  C     0.00213   0.71093   0.97538   0.00000  Uiso   1.00
C1043  C     0.00214   0.71093   0.68998   0.00000  Uiso   1.00
C1044  C     0.49786   0.78907   0.97669   0.00000  Uiso   1.00
C1045  C     0.24787   0.53907   0.69129   0.00000  Uiso   1.00
C1046  C     0.25213   0.96093   0.97538   0.00000  Uiso   1.00
C1047  C     0.25214   0.96093   0.68998   0.00000  Uiso   1.00
C1048  C     0.24786   0.53907   0.97669   0.00000  Uiso   1.00
C1049  C     0.40908   0.62089   0.80206   0.00000  Uiso   1.00
C1050  C     0.09093   0.87911   0.86461   0.00000  Uiso   1.00
C1051  C     0.13010   0.83623   0.80615   0.00000  Uiso   1.00
C1052  C     0.43976   0.80948   0.83317   0.00000  Uiso   1.00
C1053  C     0.36989   0.66378   0.86051   0.00000  Uiso   1.00
C1054  C     0.13563   0.66791   0.85091   0.00000  Uiso   1.00
C1055  C     0.36438   0.83210   0.81571   0.00000  Uiso   1.00
C1056  C     0.41786   0.88557   0.84962   0.00000  Uiso   1.00
C1057  C     0.08213   0.61442   0.81711   0.00000  Uiso   1.00
C1058  C     0.15908   0.87089   0.80205   0.00000  Uiso   1.00
C1059  C     0.34092   0.62912   0.86461   0.00000  Uiso   1.00
C1060  C     0.38011   0.58623   0.80615   0.00000  Uiso   1.00
C1061  C     0.11990   0.91377   0.86052   0.00000  Uiso   1.00
C1062  C     0.38562   0.91790   0.85096   0.00000  Uiso   1.00
C1063  C     0.43974   0.69030   0.83254   0.00000  Uiso   1.00
C1064  C     0.11436   0.58208   0.81576   0.00000  Uiso   1.00
C1065  C     0.16787   0.63558   0.84955   0.00000  Uiso   1.00
C1066  C     0.33214   0.86444   0.81705   0.00000  Uiso   1.00
C1067  C     0.09497   0.84127   0.83613   0.00000  Uiso   1.00
C1068  C     0.40503   0.65873   0.83054   0.00000  Uiso   1.00
C1069  C     0.40694   0.84279   0.83259   0.00000  Uiso   1.00
C1070  C     0.09306   0.65721   0.83408   0.00000  Uiso   1.00
C1071  C     0.34497   0.59127   0.83613   0.00000  Uiso   1.00
C1072  C     0.15503   0.90873   0.83054   0.00000  Uiso   1.00
C1073  C     0.15694   0.59279   0.83259   0.00000  Uiso   1.00
C1074  C     0.06026   0.80970   0.83413   0.00000  Uiso   1.00
C1075  C     0.34306   0.90721   0.83408   0.00000  Uiso   1.00
C1076  C     0.31024   0.94052   0.83349   0.00000  Uiso   1.00
C1077  C     0.18975   0.55948   0.83317   0.00000  Uiso   1.00
C1078  C     0.18974   0.94030   0.83254   0.00000  Uiso   1.00
C1079  C     0.31026   0.55970   0.83413   0.00000  Uiso   1.00
C1080  C     0.49787   0.78907   0.69129   0.00000  Uiso   1.00
H1081  H     0.49618   0.82032   0.70994   0.00000  Uiso   1.00
H1082  H     0.06006   0.85993   0.91640   0.00000  Uiso   1.00
H1083  H     0.12349   0.77245   0.79456   0.00000  Uiso   1.00
H1084  H     0.37651   0.72755   0.87210   0.00000  Uiso   1.00
H1085  H     0.12322   0.73106   0.86519   0.00000  Uiso   1.00
H1086  H     0.37678   0.76894   0.80148   0.00000  Uiso   1.00
H1087  H     0.48170   0.87653   0.85193   0.00000  Uiso   1.00
H1088  H     0.01829   0.62347   0.81482   0.00000  Uiso   1.00
H1089  H     0.18995   0.89007   0.75028   0.00000  Uiso   1.00
H1090  H     0.31004   0.60995   0.91638   0.00000  Uiso   1.00
H1091  H     0.37349   0.52245   0.79457   0.00000  Uiso   1.00
H1092  H     0.00382   0.67968   0.95673   0.00000  Uiso   1.00
H1093  H     0.12651   0.97754   0.87211   0.00000  Uiso   1.00
H1094  H     0.37322   0.98106   0.86519   0.00000  Uiso   1.00
H1095  H     0.12678   0.51894   0.80149   0.00000  Uiso   1.00
H1096  H     0.23171   0.62655   0.85180   0.00000  Uiso   1.00
H1097  H     0.26831   0.87347   0.81475   0.00000  Uiso   1.00
H1098  H     0.00390   0.67969   0.70758   0.00000  Uiso   1.00
H1099  H     0.49610   0.82031   0.95908   0.00000  Uiso   1.00
H1100  H     0.24617   0.57032   0.70994   0.00000  Uiso   1.00
H1101  H     0.25383   0.92968   0.95673   0.00000  Uiso   1.00
H1102  H     0.25390   0.92969   0.70758   0.00000  Uiso   1.00
H1103  H     0.24610   0.57031   0.95908   0.00000  Uiso   1.00
H1104  H     0.43995   0.64006   0.75028   0.00000  Uiso   1.00
N1105  N     0.00000   0.75000   0.95240   0.00000  Uiso   1.00
N1106  N     0.00000   0.75000   0.71427   0.00000  Uiso   1.00
N1107  N     0.25000   0.50000   0.95240   0.00000  Uiso   1.00
N1108  N     0.25000   0.50000   0.71427   0.00000  Uiso   1.00
O1109  O     0.04581   0.70419   0.87154   0.00000  Uiso   1.00
O1110  O     0.20420   0.54581   0.79513   0.00000  Uiso   1.00
O1111  O     0.20420   0.54581   0.87154   0.00000  Uiso   1.00
O1112  O     0.29581   0.95419   0.79513   0.00000  Uiso   1.00
O1113  O     0.20420   0.95419   0.79513   0.00000  Uiso   1.00
O1114  O     0.29581   0.54581   0.87154   0.00000  Uiso   1.00
O1115  O     0.29581   0.54581   0.79513   0.00000  Uiso   1.00
O1116  O     0.20420   0.95419   0.87154   0.00000  Uiso   1.00
O1117  O     0.44288   0.61558   0.77215   0.00000  Uiso   1.00
O1118  O     0.05713   0.88441   0.89453   0.00000  Uiso   1.00
O1119  O     0.13702   0.79829   0.77998   0.00000  Uiso   1.00
O1120  O     0.45420   0.79581   0.79513   0.00000  Uiso   1.00
O1121  O     0.36298   0.70172   0.88667   0.00000  Uiso   1.00
O1122  O     0.14782   0.70960   0.86765   0.00000  Uiso   1.00
O1123  O     0.35221   0.79043   0.79892   0.00000  Uiso   1.00
O1124  O     0.45977   0.89743   0.86462   0.00000  Uiso   1.00
O1125  O     0.04020   0.60255   0.80216   0.00000  Uiso   1.00
O1126  O     0.19288   0.86558   0.77215   0.00000  Uiso   1.00
O1127  O     0.30711   0.63442   0.89451   0.00000  Uiso   1.00
O1128  O     0.38702   0.54828   0.77999   0.00000  Uiso   1.00
O1129  O     0.11299   0.95171   0.88668   0.00000  Uiso   1.00
O1130  O     0.39779   0.95957   0.86774   0.00000  Uiso   1.00
O1131  O     0.45420   0.79581   0.87154   0.00000  Uiso   1.00
O1132  O     0.10218   0.54040   0.79902   0.00000  Uiso   1.00
O1133  O     0.20980   0.64745   0.86450   0.00000  Uiso   1.00
O1134  O     0.29023   0.85258   0.80205   0.00000  Uiso   1.00
O1135  O     0.04581   0.70419   0.79513   0.00000  Uiso   1.00
O1136  O     0.45420   0.70419   0.79513   0.00000  Uiso   1.00
O1137  O     0.04581   0.79581   0.87154   0.00000  Uiso   1.00
O1138  O     0.04581   0.79581   0.79513   0.00000  Uiso   1.00
O1139  O     0.45420   0.70419   0.87154   0.00000  Uiso   1.00
O1140  O     0.29581   0.95419   0.87154   0.00000  Uiso   1.00
Zn1141 Zn    0.00000   0.75000   0.88437   0.00000  Uiso   1.00
Zn1142 Zn    0.00000   0.75000   0.78229   0.00000  Uiso   1.00
Zn1143 Zn    0.25000   0.50000   0.88437   0.00000  Uiso   1.00
Zn1144 Zn    0.25000   0.50000   0.78229   0.00000  Uiso   1.00
C1145  C     0.56025   0.69052   0.83349   0.00000  Uiso   1.00
C1146  C     0.50213   0.71093   0.97538   0.00000  Uiso   1.00
C1147  C     0.50214   0.71093   0.68998   0.00000  Uiso   1.00
C1148  C     0.99786   0.78907   0.97669   0.00000  Uiso   1.00
C1149  C     0.74787   0.53907   0.69129   0.00000  Uiso   1.00
C1150  C     0.75213   0.96093   0.97538   0.00000  Uiso   1.00
C1151  C     0.75214   0.96093   0.68998   0.00000  Uiso   1.00
C1152  C     0.74786   0.53907   0.97669   0.00000  Uiso   1.00
C1153  C     0.90908   0.62089   0.80206   0.00000  Uiso   1.00
C1154  C     0.59093   0.87911   0.86461   0.00000  Uiso   1.00
C1155  C     0.63010   0.83623   0.80615   0.00000  Uiso   1.00
C1156  C     0.93976   0.80948   0.83317   0.00000  Uiso   1.00
C1157  C     0.86989   0.66378   0.86051   0.00000  Uiso   1.00
C1158  C     0.63563   0.66791   0.85091   0.00000  Uiso   1.00
C1159  C     0.86438   0.83210   0.81571   0.00000  Uiso   1.00
C1160  C     0.91786   0.88557   0.84962   0.00000  Uiso   1.00
C1161  C     0.58213   0.61442   0.81711   0.00000  Uiso   1.00
C1162  C     0.65908   0.87089   0.80205   0.00000  Uiso   1.00
C1163  C     0.84092   0.62912   0.86461   0.00000  Uiso   1.00
C1164  C     0.88011   0.58623   0.80615   0.00000  Uiso   1.00
C1165  C     0.61990   0.91377   0.86052   0.00000  Uiso   1.00
C1166  C     0.88562   0.91790   0.85096   0.00000  Uiso   1.00
C1167  C     0.93974   0.69030   0.83254   0.00000  Uiso   1.00
C1168  C     0.61436   0.58208   0.81576   0.00000  Uiso   1.00
C1169  C     0.66787   0.63558   0.84955   0.00000  Uiso   1.00
C1170  C     0.83214   0.86444   0.81705   0.00000  Uiso   1.00
C1171  C     0.59497   0.84127   0.83613   0.00000  Uiso   1.00
C1172  C     0.90503   0.65873   0.83054   0.00000  Uiso   1.00
C1173  C     0.90694   0.84279   0.83259   0.00000  Uiso   1.00
C1174  C     0.59306   0.65721   0.83408   0.00000  Uiso   1.00
C1175  C     0.84497   0.59127   0.83613   0.00000  Uiso   1.00
C1176  C     0.65503   0.90873   0.83054   0.00000  Uiso   1.00
C1177  C     0.65694   0.59279   0.83259   0.00000  Uiso   1.00
C1178  C     0.56026   0.80970   0.83413   0.00000  Uiso   1.00
C1179  C     0.84306   0.90721   0.83408   0.00000  Uiso   1.00
C1180  C     0.81024   0.94052   0.83349   0.00000  Uiso   1.00
C1181  C     0.68975   0.55948   0.83317   0.00000  Uiso   1.00
C1182  C     0.68974   0.94030   0.83254   0.00000  Uiso   1.00
C1183  C     0.81026   0.55970   0.83413   0.00000  Uiso   1.00
C1184  C     0.99787   0.78907   0.69129   0.00000  Uiso   1.00
H1185  H     0.99618   0.82032   0.70994   0.00000  Uiso   1.00
H1186  H     0.56006   0.85993   0.91640   0.00000  Uiso   1.00
H1187  H     0.62349   0.77245   0.79456   0.00000  Uiso   1.00
H1188  H     0.87651   0.72755   0.87210   0.00000  Uiso   1.00
H1189  H     0.62322   0.73106   0.86519   0.00000  Uiso   1.00
H1190  H     0.87678   0.76894   0.80148   0.00000  Uiso   1.00
H1191  H     0.98170   0.87653   0.85193   0.00000  Uiso   1.00
H1192  H     0.51829   0.62347   0.81482   0.00000  Uiso   1.00
H1193  H     0.68995   0.89007   0.75028   0.00000  Uiso   1.00
H1194  H     0.81004   0.60995   0.91638   0.00000  Uiso   1.00
H1195  H     0.87349   0.52245   0.79457   0.00000  Uiso   1.00
H1196  H     0.50382   0.67968   0.95673   0.00000  Uiso   1.00
H1197  H     0.62651   0.97754   0.87211   0.00000  Uiso   1.00
H1198  H     0.87322   0.98106   0.86519   0.00000  Uiso   1.00
H1199  H     0.62678   0.51894   0.80149   0.00000  Uiso   1.00
H1200  H     0.73171   0.62655   0.85180   0.00000  Uiso   1.00
H1201  H     0.76831   0.87347   0.81475   0.00000  Uiso   1.00
H1202  H     0.50390   0.67969   0.70758   0.00000  Uiso   1.00
H1203  H     0.99610   0.82031   0.95908   0.00000  Uiso   1.00
H1204  H     0.74617   0.57032   0.70994   0.00000  Uiso   1.00
H1205  H     0.75383   0.92968   0.95673   0.00000  Uiso   1.00
H1206  H     0.75390   0.92969   0.70758   0.00000  Uiso   1.00
H1207  H     0.74610   0.57031   0.95908   0.00000  Uiso   1.00
H1208  H     0.93995   0.64006   0.75028   0.00000  Uiso   1.00
N1209  N     0.50000   0.75000   0.95240   0.00000  Uiso   1.00
N1210  N     0.50000   0.75000   0.71427   0.00000  Uiso   1.00
N1211  N     0.75000   0.50000   0.95240   0.00000  Uiso   1.00
N1212  N     0.75000   0.50000   0.71427   0.00000  Uiso   1.00
O1213  O     0.54581   0.70419   0.87154   0.00000  Uiso   1.00
O1214  O     0.70420   0.54581   0.79513   0.00000  Uiso   1.00
O1215  O     0.70420   0.54581   0.87154   0.00000  Uiso   1.00
O1216  O     0.79581   0.95419   0.79513   0.00000  Uiso   1.00
O1217  O     0.70420   0.95419   0.79513   0.00000  Uiso   1.00
O1218  O     0.79581   0.54581   0.87154   0.00000  Uiso   1.00
O1219  O     0.79581   0.54581   0.79513   0.00000  Uiso   1.00
O1220  O     0.70420   0.95419   0.87154   0.00000  Uiso   1.00
O1221  O     0.94288   0.61558   0.77215   0.00000  Uiso   1.00
O1222  O     0.55713   0.88441   0.89453   0.00000  Uiso   1.00
O1223  O     0.63702   0.79829   0.77998   0.00000  Uiso   1.00
O1224  O     0.95420   0.79581   0.79513   0.00000  Uiso   1.00
O1225  O     0.86298   0.70172   0.88667   0.00000  Uiso   1.00
O1226  O     0.64782   0.70960   0.86765   0.00000  Uiso   1.00
O1227  O     0.85221   0.79043   0.79892   0.00000  Uiso   1.00
O1228  O     0.95977   0.89743   0.86462   0.00000  Uiso   1.00
O1229  O     0.54020   0.60255   0.80216   0.00000  Uiso   1.00
O1230  O     0.69288   0.86558   0.77215   0.00000  Uiso   1.00
O1231  O     0.80711   0.63442   0.89451   0.00000  Uiso   1.00
O1232  O     0.88702   0.54828   0.77999   0.00000  Uiso   1.00
O1233  O     0.61299   0.95171   0.88668   0.00000  Uiso   1.00
O1234  O     0.89779   0.95957   0.86774   0.00000  Uiso   1.00
O1235  O     0.95420   0.79581   0.87154   0.00000  Uiso   1.00
O1236  O     0.60218   0.54040   0.79902   0.00000  Uiso   1.00
O1237  O     0.70980   0.64745   0.86450   0.00000  Uiso   1.00
O1238  O     0.79023   0.85258   0.80205   0.00000  Uiso   1.00
O1239  O     0.54581   0.70419   0.79513   0.00000  Uiso   1.00
O1240  O     0.95420   0.70419   0.79513   0.00000  Uiso   1.00
O1241  O     0.54581   0.79581   0.87154   0.00000  Uiso   1.00
O1242  O     0.54581   0.79581   0.79513   0.00000  Uiso   1.00
O1243  O     0.95420   0.70419   0.87154   0.00000  Uiso   1.00
O1244  O     0.79581   0.95419   0.87154   0.00000  Uiso   1.00
Zn1245 Zn    0.50000   0.75000   0.88437   0.00000  Uiso   1.00
Zn1246 Zn    0.50000   0.75000   0.78229   0.00000  Uiso   1.00
Zn1247 Zn    0.75000   0.50000   0.88437   0.00000  Uiso   1.00
Zn1248 Zn    0.75000   0.50000   0.78229   0.00000  Uiso   1.00
loop_
_geom_bond_atom_site_label_1
_geom_bond_atom_site_label_2
_geom_bond_distance
_geom_bond_site_symmetry_2
_ccdc_geom_bond_type
C1     O69     1.277   .     A
C1     O95     1.281   .     A
C1     C30     1.409   .     S
C2     N65     1.367   .     A
C2     H52     1.082   .     S
C2     C419    1.417   .     S
C3     H58     1.082   .     S
C3     C834    1.417   1_554 S
C3     N66     1.367   .     S
C4     H59     1.082   .     S
C4     C456    1.417   .     S
C4     N169    1.367   .     S
C5     N68     1.367   .     A
C5     H60     1.082   .     S
C5     C840    1.417   1_554 S
C6     H61     1.082   .     S
C6     C423    1.417   .     S
C6     N275    1.367   .     S
C7     H62     1.082   .     S
C7     C838    1.417   1_554 S
C7     N276    1.367   .     S
C8     H63     1.082   .     S
C8     N67     1.367   .     A
C8     C421    1.417   .     S
C9     C20     1.374   .     A
C9     O77     1.376   .     S
C9     C28     1.409   .     A
C10    C27     1.409   .     A
C10    O78     1.376   .     S
C10    C21     1.374   .     A
C11    C18     1.374   .     A
C11    C27     1.408   .     A
C11    O79     1.384   .     S
C12    C29     1.409   .     S
C12    O91     1.281   .     A
C12    O80     1.277   .     A
C13    O81     1.384   .     S
C13    C28     1.408   .     A
C13    C19     1.374   .     A
C14    C30     1.411   .     A
C14    O82     1.387   .     S
C14    C25     1.376   .     A
C15    C29     1.411   .     A
C15    C26     1.376   .     A
C15    O83     1.387   .     S
C16    O84     1.384   .     S
C16    C29     1.409   .     A
C16    C22     1.376   .     A
C17    O85     1.384   .     S
C17    C30     1.409   .     A
C17    C24     1.376   .     A
C18    O86     1.376   .     S
C18    C32     1.409   .     A
C19    C31     1.409   .     A
C19    O87     1.376   .     S
C20    O88     1.384   .     S
C20    C31     1.408   .     A
C21    C32     1.408   .     A
C21    O89     1.384   .     S
C22    C35     1.411   .     A
C22    O90     1.387   .     S
C23    O99     1.288   .     A
C23    O96     1.277   .     A
C23    C28     1.420   .     S
C24    O92     1.387   .     S
C24    C33     1.411   .     A
C25    O93     1.384   .     S
C25    C33     1.409   .     A
C26    O94     1.384   .     S
C26    C35     1.409   .     A
C27    C34     1.420   .     S
C31    C39     1.420   .     S
C32    C38     1.420   .     S
C33    C37     1.409   .     S
C34    O97     1.277   .     A
C34    O98     1.288   .     A
C35    C36     1.409   .     S
C36    O100    1.277   .     A
C36    O72     1.281   .     A
C37    O70     1.277   .     A
C37    O71     1.281   .     A
C38    O76     1.288   .     A
C38    O73     1.277   .     A
C39    O74     1.277   .     A
C39    O75     1.288   .     A
C40    N170    1.367   .     A
C40    H41     1.082   .     S
C40    C836    1.417   1_554 S
H42    O78     0.990   .     S
H43    O79     0.989   .     S
H44    O81     0.989   .     S
H45    O82     0.987   .     S
H46    O83     0.987   .     S
H47    O84     0.988   .     S
H48    O85     0.988   .     S
H49    O86     0.990   .     S
H50    O87     0.990   .     S
H51    O88     0.989   .     S
H53    O89     0.989   .     S
H54    O90     0.987   .     S
H55    O92     0.987   .     S
H56    O93     0.988   .     S
H57    O94     0.988   .     S
H64    O77     0.990   .     S
N65    Zn101   2.011   .     S
N65    C108    1.367   1_455 S
N66    C144    1.367   1_455 A
N66    Zn102   2.011   .     S
N67    C214    1.367   1_545 S
N67    Zn103   2.011   .     S
N68    Zn104   2.011   .     S
N68    C215    1.367   1_545 S
O69    Zn101   1.990   .     S
O70    Zn104   1.990   .     S
O71    Zn103   1.987   .     S
O72    Zn312   1.987   .     S
O73    Zn312   2.007   .     S
O74    Zn103   2.007   .     S
O75    Zn104   1.986   .     S
O76    Zn311   1.986   .     S
O80    Zn206   1.990   .     S
O91    Zn205   1.987   .     S
O95    Zn102   1.987   .     S
O96    Zn206   2.007   .     S
O97    Zn101   2.007   .     S
O98    Zn102   1.986   .     S
O99    Zn205   1.986   .     S
O100   Zn311   1.990   .     S
Zn101  O203    1.986   1_455 S
Zn101  O195    1.987   1_455 S
Zn102  O200    2.007   1_455 S
Zn102  O184    1.990   1_455 S
Zn103  O284    1.986   1_545 S
Zn103  O308    1.990   1_545 S
Zn104  O281    2.007   1_545 S
Zn104  O280    1.987   1_545 S
C105   O173    1.277   .     A
C105   O199    1.281   .     A
C105   C134    1.409   .     S
C106   N169    1.367   .     A
C106   H156    1.082   .     S
C106   C523    1.417   .     S
C107   H162    1.082   .     S
C107   C938    1.417   1_554 S
C107   N170    1.367   .     S
C108   H163    1.082   .     S
C108   C560    1.417   .     S
C108   N65     1.367   1_655 S
C109   N172    1.367   .     A
C109   H164    1.082   .     S
C109   C944    1.417   1_554 S
C110   H165    1.082   .     S
C110   C527    1.417   .     S
C110   N379    1.367   .     S
C111   H166    1.082   .     S
C111   C942    1.417   1_554 S
C111   N380    1.367   .     S
C112   H167    1.082   .     S
C112   N171    1.367   .     A
C112   C525    1.417   .     S
C113   C124    1.374   .     A
C113   O181    1.376   .     S
C113   C132    1.409   .     A
C114   C131    1.409   .     A
C114   O182    1.376   .     S
C114   C125    1.374   .     A
C115   C122    1.374   .     A
C115   C131    1.408   .     A
C115   O183    1.384   .     S
C116   C133    1.409   .     S
C116   O195    1.281   .     A
C116   O184    1.277   .     A
C117   O185    1.384   .     S
C117   C132    1.408   .     A
C117   C123    1.374   .     A
C118   C134    1.411   .     A
C118   O186    1.387   .     S
C118   C129    1.376   .     A
C119   C133    1.411   .     A
C119   C130    1.376   .     A
C119   O187    1.387   .     S
C120   O188    1.384   .     S
C120   C133    1.409   .     A
C120   C126    1.376   .     A
C121   O189    1.384   .     S
C121   C134    1.409   .     A
C121   C128    1.376   .     A
C122   O190    1.376   .     S
C122   C136    1.409   .     A
C123   C135    1.409   .     A
C123   O191    1.376   .     S
C124   O192    1.384   .     S
C124   C135    1.408   .     A
C125   C136    1.408   .     A
C125   O193    1.384   .     S
C126   C139    1.411   .     A
C126   O194    1.387   .     S
C127   O203    1.288   .     A
C127   O200    1.277   .     A
C127   C132    1.420   .     S
C128   O196    1.387   .     S
C128   C137    1.411   .     A
C129   O197    1.384   .     S
C129   C137    1.409   .     A
C130   O198    1.384   .     S
C130   C139    1.409   .     A
C131   C138    1.420   .     S
C135   C143    1.420   .     S
C136   C142    1.420   .     S
C137   C141    1.409   .     S
C138   O201    1.277   .     A
C138   O202    1.288   .     A
C139   C140    1.409   .     S
C140   O204    1.277   .     A
C140   O176    1.281   .     A
C141   O174    1.277   .     A
C141   O175    1.281   .     A
C142   O180    1.288   .     A
C142   O177    1.277   .     A
C143   O178    1.277   .     A
C143   O179    1.288   .     A
C144   N66     1.367   1_655 A
C144   H145    1.082   .     S
C144   C940    1.417   1_554 S
H146   O182    0.990   .     S
H147   O183    0.989   .     S
H148   O185    0.989   .     S
H149   O186    0.987   .     S
H150   O187    0.987   .     S
H151   O188    0.988   .     S
H152   O189    0.988   .     S
H153   O190    0.990   .     S
H154   O191    0.990   .     S
H155   O192    0.989   .     S
H157   O193    0.989   .     S
H158   O194    0.987   .     S
H159   O196    0.987   .     S
H160   O197    0.988   .     S
H161   O198    0.988   .     S
H168   O181    0.990   .     S
N169   Zn205   2.011   .     S
N170   Zn206   2.011   .     S
N171   C318    1.367   1_545 S
N171   Zn207   2.011   .     S
N172   Zn208   2.011   .     S
N172   C319    1.367   1_545 S
O173   Zn205   1.990   .     S
O174   Zn208   1.990   .     S
O175   Zn207   1.987   .     S
O176   Zn416   1.987   .     S
O177   Zn416   2.007   .     S
O178   Zn207   2.007   .     S
O179   Zn208   1.986   .     S
O180   Zn415   1.986   .     S
O184   Zn102   1.990   1_655 S
O195   Zn101   1.987   1_655 S
O199   Zn206   1.987   .     S
O200   Zn102   2.007   1_655 S
O201   Zn205   2.007   .     S
O202   Zn206   1.986   .     S
O203   Zn101   1.986   1_655 S
O204   Zn415   1.990   .     S
Zn207  O388    1.986   1_545 S
Zn207  O412    1.990   1_545 S
Zn208  O385    2.007   1_545 S
Zn208  O384    1.987   1_545 S
C209   O277    1.277   .     A
C209   O303    1.281   .     A
C209   C238    1.409   .     S
C210   N273    1.367   .     A
C210   H260    1.082   .     S
C210   C627    1.417   .     S
C211   H266    1.082   .     S
C211   C1042   1.417   1_554 S
C211   N274    1.367   .     S
C212   H267    1.082   .     S
C212   C664    1.417   .     S
C212   N377    1.367   .     S
C213   N276    1.367   .     A
C213   H268    1.082   .     S
C213   C1048   1.417   1_554 S
C214   H269    1.082   .     S
C214   C631    1.417   .     S
C214   N67     1.367   1_565 S
C215   H270    1.082   .     S
C215   C1046   1.417   1_554 S
C215   N68     1.367   1_565 S
C216   H271    1.082   .     S
C216   N275    1.367   .     A
C216   C629    1.417   .     S
C217   C228    1.374   .     A
C217   O285    1.376   .     S
C217   C236    1.409   .     A
C218   C235    1.409   .     A
C218   O286    1.376   .     S
C218   C229    1.374   .     A
C219   C226    1.374   .     A
C219   C235    1.408   .     A
C219   O287    1.384   .     S
C220   C237    1.409   .     S
C220   O299    1.281   .     A
C220   O288    1.277   .     A
C221   O289    1.384   .     S
C221   C236    1.408   .     A
C221   C227    1.374   .     A
C222   C238    1.411   .     A
C222   O290    1.387   .     S
C222   C233    1.376   .     A
C223   C237    1.411   .     A
C223   C234    1.376   .     A
C223   O291    1.387   .     S
C224   O292    1.384   .     S
C224   C237    1.409   .     A
C224   C230    1.376   .     A
C225   O293    1.384   .     S
C225   C238    1.409   .     A
C225   C232    1.376   .     A
C226   O294    1.376   .     S
C226   C240    1.409   .     A
C227   C239    1.409   .     A
C227   O295    1.376   .     S
C228   O296    1.384   .     S
C228   C239    1.408   .     A
C229   C240    1.408   .     A
C229   O297    1.384   .     S
C230   C243    1.411   .     A
C230   O298    1.387   .     S
C231   O307    1.288   .     A
C231   O304    1.277   .     A
C231   C236    1.420   .     S
C232   O300    1.387   .     S
C232   C241    1.411   .     A
C233   O301    1.384   .     S
C233   C241    1.409   .     A
C234   O302    1.384   .     S
C234   C243    1.409   .     A
C235   C242    1.420   .     S
C239   C247    1.420   .     S
C240   C246    1.420   .     S
C241   C245    1.409   .     S
C242   O305    1.277   .     A
C242   O306    1.288   .     A
C243   C244    1.409   .     S
C244   O308    1.277   .     A
C244   O280    1.281   .     A
C245   O278    1.277   .     A
C245   O279    1.281   .     A
C246   O284    1.288   .     A
C246   O281    1.277   .     A
C247   O282    1.277   .     A
C247   O283    1.288   .     A
C248   N378    1.367   .     A
C248   H249    1.082   .     S
C248   C1044   1.417   1_554 S
H250   O286    0.990   .     S
H251   O287    0.989   .     S
H252   O289    0.989   .     S
H253   O290    0.987   .     S
H254   O291    0.987   .     S
H255   O292    0.988   .     S
H256   O293    0.988   .     S
H257   O294    0.990   .     S
H258   O295    0.990   .     S
H259   O296    0.989   .     S
H261   O297    0.989   .     S
H262   O298    0.987   .     S
H263   O300    0.987   .     S
H264   O301    0.988   .     S
H265   O302    0.988   .     S
H272   O285    0.990   .     S
N273   Zn309   2.011   .     S
N273   C316    1.367   1_455 S
N274   C352    1.367   1_455 A
N274   Zn310   2.011   .     S
N275   Zn311   2.011   .     S
N276   Zn312   2.011   .     S
O277   Zn309   1.990   .     S
O278   Zn312   1.990   .     S
O279   Zn311   1.987   .     S
O280   Zn104   1.987   1_565 S
O281   Zn104   2.007   1_565 S
O282   Zn311   2.007   .     S
O283   Zn312   1.986   .     S
O284   Zn103   1.986   1_565 S
O288   Zn414   1.990   .     S
O299   Zn413   1.987   .     S
O303   Zn310   1.987   .     S
O304   Zn414   2.007   .     S
O305   Zn309   2.007   .     S
O306   Zn310   1.986   .     S
O307   Zn413   1.986   .     S
O308   Zn103   1.990   1_565 S
Zn309  O411    1.986   1_455 S
Zn309  O403    1.987   1_455 S
Zn310  O408    2.007   1_455 S
Zn310  O392    1.990   1_455 S
C313   O381    1.277   .     A
C313   O407    1.281   .     A
C313   C342    1.409   .     S
C314   N377    1.367   .     A
C314   H364    1.082   .     S
C314   C731    1.417   .     S
C315   H370    1.082   .     S
C315   C1146   1.417   1_554 S
C315   N378    1.367   .     S
C316   H371    1.082   .     S
C316   C768    1.417   .     S
C316   N273    1.367   1_655 S
C317   N380    1.367   .     A
C317   H372    1.082   .     S
C317   C1152   1.417   1_554 S
C318   H373    1.082   .     S
C318   C735    1.417   .     S
C318   N171    1.367   1_565 S
C319   H374    1.082   .     S
C319   C1150   1.417   1_554 S
C319   N172    1.367   1_565 S
C320   H375    1.082   .     S
C320   N379    1.367   .     A
C320   C733    1.417   .     S
C321   C332    1.374   .     A
C321   O389    1.376   .     S
C321   C340    1.409   .     A
C322   C339    1.409   .     A
C322   O390    1.376   .     S
C322   C333    1.374   .     A
C323   C330    1.374   .     A
C323   C339    1.408   .     A
C323   O391    1.384   .     S
C324   C341    1.409   .     S
C324   O403    1.281   .     A
C324   O392    1.277   .     A
C325   O393    1.384   .     S
C325   C340    1.408   .     A
C325   C331    1.374   .     A
C326   C342    1.411   .     A
C326   O394    1.387   .     S
C326   C337    1.376   .     A
C327   C341    1.411   .     A
C327   C338    1.376   .     A
C327   O395    1.387   .     S
C328   O396    1.384   .     S
C328   C341    1.409   .     A
C328   C334    1.376   .     A
C329   O397    1.384   .     S
C329   C342    1.409   .     A
C329   C336    1.376   .     A
C330   O398    1.376   .     S
C330   C344    1.409   .     A
C331   C343    1.409   .     A
C331   O399    1.376   .     S
C332   O400    1.384   .     S
C332   C343    1.408   .     A
C333   C344    1.408   .     A
C333   O401    1.384   .     S
C334   C347    1.411   .     A
C334   O402    1.387   .     S
C335   O411    1.288   .     A
C335   O408    1.277   .     A
C335   C340    1.420   .     S
C336   O404    1.387   .     S
C336   C345    1.411   .     A
C337   O405    1.384   .     S
C337   C345    1.409   .     A
C338   O406    1.384   .     S
C338   C347    1.409   .     A
C339   C346    1.420   .     S
C343   C351    1.420   .     S
C344   C350    1.420   .     S
C345   C349    1.409   .     S
C346   O409    1.277   .     A
C346   O410    1.288   .     A
C347   C348    1.409   .     S
C348   O412    1.277   .     A
C348   O384    1.281   .     A
C349   O382    1.277   .     A
C349   O383    1.281   .     A
C350   O388    1.288   .     A
C350   O385    1.277   .     A
C351   O386    1.277   .     A
C351   O387    1.288   .     A
C352   N274    1.367   1_655 A
C352   H353    1.082   .     S
C352   C1148   1.417   1_554 S
H354   O390    0.990   .     S
H355   O391    0.989   .     S
H356   O393    0.989   .     S
H357   O394    0.987   .     S
H358   O395    0.987   .     S
H359   O396    0.988   .     S
H360   O397    0.988   .     S
H361   O398    0.990   .     S
H362   O399    0.990   .     S
H363   O400    0.989   .     S
H365   O401    0.989   .     S
H366   O402    0.987   .     S
H367   O404    0.987   .     S
H368   O405    0.988   .     S
H369   O406    0.988   .     S
H376   O389    0.990   .     S
N377   Zn413   2.011   .     S
N378   Zn414   2.011   .     S
N379   Zn415   2.011   .     S
N380   Zn416   2.011   .     S
O381   Zn413   1.990   .     S
O382   Zn416   1.990   .     S
O383   Zn415   1.987   .     S
O384   Zn208   1.987   1_565 S
O385   Zn208   2.007   1_565 S
O386   Zn415   2.007   .     S
O387   Zn416   1.986   .     S
O388   Zn207   1.986   1_565 S
O392   Zn310   1.990   1_655 S
O403   Zn309   1.987   1_655 S
O407   Zn414   1.987   .     S
O408   Zn310   2.007   1_655 S
O409   Zn413   2.007   .     S
O410   Zn414   1.986   .     S
O411   Zn309   1.986   1_655 S
O412   Zn207   1.990   1_565 S
C417   O485    1.277   .     A
C417   O511    1.281   .     A
C417   C446    1.409   .     S
C418   N481    1.367   .     A
C418   H468    1.082   .     S
C418   C835    1.417   .     S
C419   H474    1.082   .     S
C419   N482    1.367   .     S
C420   H475    1.082   .     S
C420   C872    1.417   .     S
C420   N585    1.367   .     S
C421   N484    1.367   .     A
C421   H476    1.082   .     S
C422   H477    1.082   .     S
C422   C839    1.417   .     S
C422   N691    1.367   .     S
C423   H478    1.082   .     S
C423   N692    1.367   .     S
C424   H479    1.082   .     S
C424   N483    1.367   .     A
C424   C837    1.417   .     S
C425   C436    1.374   .     A
C425   O493    1.376   .     S
C425   C444    1.409   .     A
C426   C443    1.409   .     A
C426   O494    1.376   .     S
C426   C437    1.374   .     A
C427   C434    1.374   .     A
C427   C443    1.408   .     A
C427   O495    1.384   .     S
C428   C445    1.409   .     S
C428   O507    1.281   .     A
C428   O496    1.277   .     A
C429   O497    1.384   .     S
C429   C444    1.408   .     A
C429   C435    1.374   .     A
C430   C446    1.411   .     A
C430   O498    1.387   .     S
C430   C441    1.376   .     A
C431   C445    1.411   .     A
C431   C442    1.376   .     A
C431   O499    1.387   .     S
C432   O500    1.384   .     S
C432   C445    1.409   .     A
C432   C438    1.376   .     A
C433   O501    1.384   .     S
C433   C446    1.409   .     A
C433   C440    1.376   .     A
C434   O502    1.376   .     S
C434   C448    1.409   .     A
C435   C447    1.409   .     A
C435   O503    1.376   .     S
C436   O504    1.384   .     S
C436   C447    1.408   .     A
C437   C448    1.408   .     A
C437   O505    1.384   .     S
C438   C451    1.411   .     A
C438   O506    1.387   .     S
C439   O515    1.288   .     A
C439   O512    1.277   .     A
C439   C444    1.420   .     S
C440   O508    1.387   .     S
C440   C449    1.411   .     A
C441   O509    1.384   .     S
C441   C449    1.409   .     A
C442   O510    1.384   .     S
C442   C451    1.409   .     A
C443   C450    1.420   .     S
C447   C455    1.420   .     S
C448   C454    1.420   .     S
C449   C453    1.409   .     S
C450   O513    1.277   .     A
C450   O514    1.288   .     A
C451   C452    1.409   .     S
C452   O516    1.277   .     A
C452   O488    1.281   .     A
C453   O486    1.277   .     A
C453   O487    1.281   .     A
C454   O492    1.288   .     A
C454   O489    1.277   .     A
C455   O490    1.277   .     A
C455   O491    1.288   .     A
C456   N586    1.367   .     A
C456   H457    1.082   .     S
H458   O494    0.990   .     S
H459   O495    0.989   .     S
H460   O497    0.989   .     S
H461   O498    0.987   .     S
H462   O499    0.987   .     S
H463   O500    0.988   .     S
H464   O501    0.988   .     S
H465   O502    0.990   .     S
H466   O503    0.990   .     S
H467   O504    0.989   .     S
H469   O505    0.989   .     S
H470   O506    0.987   .     S
H471   O508    0.987   .     S
H472   O509    0.988   .     S
H473   O510    0.988   .     S
H480   O493    0.990   .     S
N481   Zn517   2.011   .     S
N481   C524    1.367   1_455 S
N482   C560    1.367   1_455 A
N482   Zn518   2.011   .     S
N483   C630    1.367   1_545 S
N483   Zn519   2.011   .     S
N484   Zn520   2.011   .     S
N484   C631    1.367   1_545 S
O485   Zn517   1.990   .     S
O486   Zn520   1.990   .     S
O487   Zn519   1.987   .     S
O488   Zn728   1.987   .     S
O489   Zn728   2.007   .     S
O490   Zn519   2.007   .     S
O491   Zn520   1.986   .     S
O492   Zn727   1.986   .     S
O496   Zn622   1.990   .     S
O507   Zn621   1.987   .     S
O511   Zn518   1.987   .     S
O512   Zn622   2.007   .     S
O513   Zn517   2.007   .     S
O514   Zn518   1.986   .     S
O515   Zn621   1.986   .     S
O516   Zn727   1.990   .     S
Zn517  O619    1.986   1_455 S
Zn517  O611    1.987   1_455 S
Zn518  O616    2.007   1_455 S
Zn518  O600    1.990   1_455 S
Zn519  O700    1.986   1_545 S
Zn519  O724    1.990   1_545 S
Zn520  O697    2.007   1_545 S
Zn520  O696    1.987   1_545 S
C521   O589    1.277   .     A
C521   O615    1.281   .     A
C521   C550    1.409   .     S
C522   N585    1.367   .     A
C522   H572    1.082   .     S
C522   C939    1.417   .     S
C523   H578    1.082   .     S
C523   N586    1.367   .     S
C524   H579    1.082   .     S
C524   C976    1.417   .     S
C524   N481    1.367   1_655 S
C525   N588    1.367   .     A
C525   H580    1.082   .     S
C526   H581    1.082   .     S
C526   C943    1.417   .     S
C526   N795    1.367   .     S
C527   H582    1.082   .     S
C527   N796    1.367   .     S
C528   H583    1.082   .     S
C528   N587    1.367   .     A
C528   C941    1.417   .     S
C529   C540    1.374   .     A
C529   O597    1.376   .     S
C529   C548    1.409   .     A
C530   C547    1.409   .     A
C530   O598    1.376   .     S
C530   C541    1.374   .     A
C531   C538    1.374   .     A
C531   C547    1.408   .     A
C531   O599    1.384   .     S
C532   C549    1.409   .     S
C532   O611    1.281   .     A
C532   O600    1.277   .     A
C533   O601    1.384   .     S
C533   C548    1.408   .     A
C533   C539    1.374   .     A
C534   C550    1.411   .     A
C534   O602    1.387   .     S
C534   C545    1.376   .     A
C535   C549    1.411   .     A
C535   C546    1.376   .     A
C535   O603    1.387   .     S
C536   O604    1.384   .     S
C536   C549    1.409   .     A
C536   C542    1.376   .     A
C537   O605    1.384   .     S
C537   C550    1.409   .     A
C537   C544    1.376   .     A
C538   O606    1.376   .     S
C538   C552    1.409   .     A
C539   C551    1.409   .     A
C539   O607    1.376   .     S
C540   O608    1.384   .     S
C540   C551    1.408   .     A
C541   C552    1.408   .     A
C541   O609    1.384   .     S
C542   C555    1.411   .     A
C542   O610    1.387   .     S
C543   O619    1.288   .     A
C543   O616    1.277   .     A
C543   C548    1.420   .     S
C544   O612    1.387   .     S
C544   C553    1.411   .     A
C545   O613    1.384   .     S
C545   C553    1.409   .     A
C546   O614    1.384   .     S
C546   C555    1.409   .     A
C547   C554    1.420   .     S
C551   C559    1.420   .     S
C552   C558    1.420   .     S
C553   C557    1.409   .     S
C554   O617    1.277   .     A
C554   O618    1.288   .     A
C555   C556    1.409   .     S
C556   O620    1.277   .     A
C556   O592    1.281   .     A
C557   O590    1.277   .     A
C557   O591    1.281   .     A
C558   O596    1.288   .     A
C558   O593    1.277   .     A
C559   O594    1.277   .     A
C559   O595    1.288   .     A
C560   N482    1.367   1_655 A
C560   H561    1.082   .     S
H562   O598    0.990   .     S
H563   O599    0.989   .     S
H564   O601    0.989   .     S
H565   O602    0.987   .     S
H566   O603    0.987   .     S
H567   O604    0.988   .     S
H568   O605    0.988   .     S
H569   O606    0.990   .     S
H570   O607    0.990   .     S
H571   O608    0.989   .     S
H573   O609    0.989   .     S
H574   O610    0.987   .     S
H575   O612    0.987   .     S
H576   O613    0.988   .     S
H577   O614    0.988   .     S
H584   O597    0.990   .     S
N585   Zn621   2.011   .     S
N586   Zn622   2.011   .     S
N587   C734    1.367   1_545 S
N587   Zn623   2.011   .     S
N588   Zn624   2.011   .     S
N588   C735    1.367   1_545 S
O589   Zn621   1.990   .     S
O590   Zn624   1.990   .     S
O591   Zn623   1.987   .     S
O592   Zn832   1.987   .     S
O593   Zn832   2.007   .     S
O594   Zn623   2.007   .     S
O595   Zn624   1.986   .     S
O596   Zn831   1.986   .     S
O600   Zn518   1.990   1_655 S
O611   Zn517   1.987   1_655 S
O615   Zn622   1.987   .     S
O616   Zn518   2.007   1_655 S
O617   Zn621   2.007   .     S
O618   Zn622   1.986   .     S
O619   Zn517   1.986   1_655 S
O620   Zn831   1.990   .     S
Zn623  O804    1.986   1_545 S
Zn623  O828    1.990   1_545 S
Zn624  O801    2.007   1_545 S
Zn624  O800    1.987   1_545 S
C625   O693    1.277   .     A
C625   O719    1.281   .     A
C625   C654    1.409   .     S
C626   N689    1.367   .     A
C626   H676    1.082   .     S
C626   C1043   1.417   .     S
C627   H682    1.082   .     S
C627   N690    1.367   .     S
C628   H683    1.082   .     S
C628   C1080   1.417   .     S
C628   N793    1.367   .     S
C629   N692    1.367   .     A
C629   H684    1.082   .     S
C630   H685    1.082   .     S
C630   C1047   1.417   .     S
C630   N483    1.367   1_565 S
C631   H686    1.082   .     S
C631   N484    1.367   1_565 S
C632   H687    1.082   .     S
C632   N691    1.367   .     A
C632   C1045   1.417   .     S
C633   C644    1.374   .     A
C633   O701    1.376   .     S
C633   C652    1.409   .     A
C634   C651    1.409   .     A
C634   O702    1.376   .     S
C634   C645    1.374   .     A
C635   C642    1.374   .     A
C635   C651    1.408   .     A
C635   O703    1.384   .     S
C636   C653    1.409   .     S
C636   O715    1.281   .     A
C636   O704    1.277   .     A
C637   O705    1.384   .     S
C637   C652    1.408   .     A
C637   C643    1.374   .     A
C638   C654    1.411   .     A
C638   O706    1.387   .     S
C638   C649    1.376   .     A
C639   C653    1.411   .     A
C639   C650    1.376   .     A
C639   O707    1.387   .     S
C640   O708    1.384   .     S
C640   C653    1.409   .     A
C640   C646    1.376   .     A
C641   O709    1.384   .     S
C641   C654    1.409   .     A
C641   C648    1.376   .     A
C642   O710    1.376   .     S
C642   C656    1.409   .     A
C643   C655    1.409   .     A
C643   O711    1.376   .     S
C644   O712    1.384   .     S
C644   C655    1.408   .     A
C645   C656    1.408   .     A
C645   O713    1.384   .     S
C646   C659    1.411   .     A
C646   O714    1.387   .     S
C647   O723    1.288   .     A
C647   O720    1.277   .     A
C647   C652    1.420   .     S
C648   O716    1.387   .     S
C648   C657    1.411   .     A
C649   O717    1.384   .     S
C649   C657    1.409   .     A
C650   O718    1.384   .     S
C650   C659    1.409   .     A
C651   C658    1.420   .     S
C655   C663    1.420   .     S
C656   C662    1.420   .     S
C657   C661    1.409   .     S
C658   O721    1.277   .     A
C658   O722    1.288   .     A
C659   C660    1.409   .     S
C660   O724    1.277   .     A
C660   O696    1.281   .     A
C661   O694    1.277   .     A
C661   O695    1.281   .     A
C662   O700    1.288   .     A
C662   O697    1.277   .     A
C663   O698    1.277   .     A
C663   O699    1.288   .     A
C664   N794    1.367   .     A
C664   H665    1.082   .     S
H666   O702    0.990   .     S
H667   O703    0.989   .     S
H668   O705    0.989   .     S
H669   O706    0.987   .     S
H670   O707    0.987   .     S
H671   O708    0.988   .     S
H672   O709    0.988   .     S
H673   O710    0.990   .     S
H674   O711    0.990   .     S
H675   O712    0.989   .     S
H677   O713    0.989   .     S
H678   O714    0.987   .     S
H679   O716    0.987   .     S
H680   O717    0.988   .     S
H681   O718    0.988   .     S
H688   O701    0.990   .     S
N689   Zn725   2.011   .     S
N689   C732    1.367   1_455 S
N690   C768    1.367   1_455 A
N690   Zn726   2.011   .     S
N691   Zn727   2.011   .     S
N692   Zn728   2.011   .     S
O693   Zn725   1.990   .     S
O694   Zn728   1.990   .     S
O695   Zn727   1.987   .     S
O696   Zn520   1.987   1_565 S
O697   Zn520   2.007   1_565 S
O698   Zn727   2.007   .     S
O699   Zn728   1.986   .     S
O700   Zn519   1.986   1_565 S
O704   Zn830   1.990   .     S
O715   Zn829   1.987   .     S
O719   Zn726   1.987   .     S
O720   Zn830   2.007   .     S
O721   Zn725   2.007   .     S
O722   Zn726   1.986   .     S
O723   Zn829   1.986   .     S
O724   Zn519   1.990   1_565 S
Zn725  O827    1.986   1_455 S
Zn725  O819    1.987   1_455 S
Zn726  O824    2.007   1_455 S
Zn726  O808    1.990   1_455 S
C729   O797    1.277   .     A
C729   O823    1.281   .     A
C729   C758    1.409   .     S
C730   N793    1.367   .     A
C730   H780    1.082   .     S
C730   C1147   1.417   .     S
C731   H786    1.082   .     S
C731   N794    1.367   .     S
C732   H787    1.082   .     S
C732   C1184   1.417   .     S
C732   N689    1.367   1_655 S
C733   N796    1.367   .     A
C733   H788    1.082   .     S
C734   H789    1.082   .     S
C734   C1151   1.417   .     S
C734   N587    1.367   1_565 S
C735   H790    1.082   .     S
C735   N588    1.367   1_565 S
C736   H791    1.082   .     S
C736   N795    1.367   .     A
C736   C1149   1.417   .     S
C737   C748    1.374   .     A
C737   O805    1.376   .     S
C737   C756    1.409   .     A
C738   C755    1.409   .     A
C738   O806    1.376   .     S
C738   C749    1.374   .     A
C739   C746    1.374   .     A
C739   C755    1.408   .     A
C739   O807    1.384   .     S
C740   C757    1.409   .     S
C740   O819    1.281   .     A
C740   O808    1.277   .     A
C741   O809    1.384   .     S
C741   C756    1.408   .     A
C741   C747    1.374   .     A
C742   C758    1.411   .     A
C742   O810    1.387   .     S
C742   C753    1.376   .     A
C743   C757    1.411   .     A
C743   C754    1.376   .     A
C743   O811    1.387   .     S
C744   O812    1.384   .     S
C744   C757    1.409   .     A
C744   C750    1.376   .     A
C745   O813    1.384   .     S
C745   C758    1.409   .     A
C745   C752    1.376   .     A
C746   O814    1.376   .     S
C746   C760    1.409   .     A
C747   C759    1.409   .     A
C747   O815    1.376   .     S
C748   O816    1.384   .     S
C748   C759    1.408   .     A
C749   C760    1.408   .     A
C749   O817    1.384   .     S
C750   C763    1.411   .     A
C750   O818    1.387   .     S
C751   O827    1.288   .     A
C751   O824    1.277   .     A
C751   C756    1.420   .     S
C752   O820    1.387   .     S
C752   C761    1.411   .     A
C753   O821    1.384   .     S
C753   C761    1.409   .     A
C754   O822    1.384   .     S
C754   C763    1.409   .     A
C755   C762    1.420   .     S
C759   C767    1.420   .     S
C760   C766    1.420   .     S
C761   C765    1.409   .     S
C762   O825    1.277   .     A
C762   O826    1.288   .     A
C763   C764    1.409   .     S
C764   O828    1.277   .     A
C764   O800    1.281   .     A
C765   O798    1.277   .     A
C765   O799    1.281   .     A
C766   O804    1.288   .     A
C766   O801    1.277   .     A
C767   O802    1.277   .     A
C767   O803    1.288   .     A
C768   N690    1.367   1_655 A
C768   H769    1.082   .     S
H770   O806    0.990   .     S
H771   O807    0.989   .     S
H772   O809    0.989   .     S
H773   O810    0.987   .     S
H774   O811    0.987   .     S
H775   O812    0.988   .     S
H776   O813    0.988   .     S
H777   O814    0.990   .     S
H778   O815    0.990   .     S
H779   O816    0.989   .     S
H781   O817    0.989   .     S
H782   O818    0.987   .     S
H783   O820    0.987   .     S
H784   O821    0.988   .     S
H785   O822    0.988   .     S
H792   O805    0.990   .     S
N793   Zn829   2.011   .     S
N794   Zn830   2.011   .     S
N795   Zn831   2.011   .     S
N796   Zn832   2.011   .     S
O797   Zn829   1.990   .     S
O798   Zn832   1.990   .     S
O799   Zn831   1.987   .     S
O800   Zn624   1.987   1_565 S
O801   Zn624   2.007   1_565 S
O802   Zn831   2.007   .     S
O803   Zn832   1.986   .     S
O804   Zn623   1.986   1_565 S
O808   Zn726   1.990   1_655 S
O819   Zn725   1.987   1_655 S
O823   Zn830   1.987   .     S
O824   Zn726   2.007   1_655 S
O825   Zn829   2.007   .     S
O826   Zn830   1.986   .     S
O827   Zn725   1.986   1_655 S
O828   Zn623   1.990   1_565 S
C833   O901    1.277   .     A
C833   O927    1.281   .     A
C833   C862    1.409   .     S
C834   N897    1.367   .     A
C834   H884    1.082   .     S
C834   C3      1.417   1_556 S
C835   H890    1.082   .     S
C835   N898    1.367   .     S
C836   H891    1.082   .     S
C836   C40     1.417   1_556 S
C836   N1001   1.367   .     S
C837   N900    1.367   .     A
C837   H892    1.082   .     S
C838   H893    1.082   .     S
C838   C7      1.417   1_556 S
C838   N1107   1.367   .     S
C839   H894    1.082   .     S
C839   N1108   1.367   .     S
C840   H895    1.082   .     S
C840   N899    1.367   .     A
C840   C5      1.417   1_556 S
C841   C852    1.374   .     A
C841   O909    1.376   .     S
C841   C860    1.409   .     A
C842   C859    1.409   .     A
C842   O910    1.376   .     S
C842   C853    1.374   .     A
C843   C850    1.374   .     A
C843   C859    1.408   .     A
C843   O911    1.384   .     S
C844   C861    1.409   .     S
C844   O923    1.281   .     A
C844   O912    1.277   .     A
C845   O913    1.384   .     S
C845   C860    1.408   .     A
C845   C851    1.374   .     A
C846   C862    1.411   .     A
C846   O914    1.387   .     S
C846   C857    1.376   .     A
C847   C861    1.411   .     A
C847   C858    1.376   .     A
C847   O915    1.387   .     S
C848   O916    1.384   .     S
C848   C861    1.409   .     A
C848   C854    1.376   .     A
C849   O917    1.384   .     S
C849   C862    1.409   .     A
C849   C856    1.376   .     A
C850   O918    1.376   .     S
C850   C864    1.409   .     A
C851   C863    1.409   .     A
C851   O919    1.376   .     S
C852   O920    1.384   .     S
C852   C863    1.408   .     A
C853   C864    1.408   .     A
C853   O921    1.384   .     S
C854   C867    1.411   .     A
C854   O922    1.387   .     S
C855   O931    1.288   .     A
C855   O928    1.277   .     A
C855   C860    1.420   .     S
C856   O924    1.387   .     S
C856   C865    1.411   .     A
C857   O925    1.384   .     S
C857   C865    1.409   .     A
C858   O926    1.384   .     S
C858   C867    1.409   .     A
C859   C866    1.420   .     S
C863   C871    1.420   .     S
C864   C870    1.420   .     S
C865   C869    1.409   .     S
C866   O929    1.277   .     A
C866   O930    1.288   .     A
C867   C868    1.409   .     S
C868   O932    1.277   .     A
C868   O904    1.281   .     A
C869   O902    1.277   .     A
C869   O903    1.281   .     A
C870   O908    1.288   .     A
C870   O905    1.277   .     A
C871   O906    1.277   .     A
C871   O907    1.288   .     A
C872   N1002   1.367   .     A
C872   H873    1.082   .     S
H874   O910    0.990   .     S
H875   O911    0.989   .     S
H876   O913    0.989   .     S
H877   O914    0.987   .     S
H878   O915    0.987   .     S
H879   O916    0.988   .     S
H880   O917    0.988   .     S
H881   O918    0.990   .     S
H882   O919    0.990   .     S
H883   O920    0.989   .     S
H885   O921    0.989   .     S
H886   O922    0.987   .     S
H887   O924    0.987   .     S
H888   O925    0.988   .     S
H889   O926    0.988   .     S
H896   O909    0.990   .     S
N897   Zn933   2.011   .     S
N897   C940    1.367   1_455 S
N898   C976    1.367   1_455 A
N898   Zn934   2.011   .     S
N899   C1046   1.367   1_545 S
N899   Zn935   2.011   .     S
N900   Zn936   2.011   .     S
N900   C1047   1.367   1_545 S
O901   Zn933   1.990   .     S
O902   Zn936   1.990   .     S
O903   Zn935   1.987   .     S
O904   Zn1144  1.987   .     S
O905   Zn1144  2.007   .     S
O906   Zn935   2.007   .     S
O907   Zn936   1.986   .     S
O908   Zn1143  1.986   .     S
O912   Zn1038  1.990   .     S
O923   Zn1037  1.987   .     S
O927   Zn934   1.987   .     S
O928   Zn1038  2.007   .     S
O929   Zn933   2.007   .     S
O930   Zn934   1.986   .     S
O931   Zn1037  1.986   .     S
O932   Zn1143  1.990   .     S
Zn933  O1035   1.986   1_455 S
Zn933  O1027   1.987   1_455 S
Zn934  O1032   2.007   1_455 S
Zn934  O1016   1.990   1_455 S
Zn935  O1116   1.986   1_545 S
Zn935  O1140   1.990   1_545 S
Zn936  O1113   2.007   1_545 S
Zn936  O1112   1.987   1_545 S
C937   O1005   1.277   .     A
C937   O1031   1.281   .     A
C937   C966    1.409   .     S
C938   N1001   1.367   .     A
C938   H988    1.082   .     S
C938   C107    1.417   1_556 S
C939   H994    1.082   .     S
C939   N1002   1.367   .     S
C940   H995    1.082   .     S
C940   C144    1.417   1_556 S
C940   N897    1.367   1_655 S
C941   N1004   1.367   .     A
C941   H996    1.082   .     S
C942   H997    1.082   .     S
C942   C111    1.417   1_556 S
C942   N1211   1.367   .     S
C943   H998    1.082   .     S
C943   N1212   1.367   .     S
C944   H999    1.082   .     S
C944   N1003   1.367   .     A
C944   C109    1.417   1_556 S
C945   C956    1.374   .     A
C945   O1013   1.376   .     S
C945   C964    1.409   .     A
C946   C963    1.409   .     A
C946   O1014   1.376   .     S
C946   C957    1.374   .     A
C947   C954    1.374   .     A
C947   C963    1.408   .     A
C947   O1015   1.384   .     S
C948   C965    1.409   .     S
C948   O1027   1.281   .     A
C948   O1016   1.277   .     A
C949   O1017   1.384   .     S
C949   C964    1.408   .     A
C949   C955    1.374   .     A
C950   C966    1.411   .     A
C950   O1018   1.387   .     S
C950   C961    1.376   .     A
C951   C965    1.411   .     A
C951   C962    1.376   .     A
C951   O1019   1.387   .     S
C952   O1020   1.384   .     S
C952   C965    1.409   .     A
C952   C958    1.376   .     A
C953   O1021   1.384   .     S
C953   C966    1.409   .     A
C953   C960    1.376   .     A
C954   O1022   1.376   .     S
C954   C968    1.409   .     A
C955   C967    1.409   .     A
C955   O1023   1.376   .     S
C956   O1024   1.384   .     S
C956   C967    1.408   .     A
C957   C968    1.408   .     A
C957   O1025   1.384   .     S
C958   C971    1.411   .     A
C958   O1026   1.387   .     S
C959   O1035   1.288   .     A
C959   O1032   1.277   .     A
C959   C964    1.420   .     S
C960   O1028   1.387   .     S
C960   C969    1.411   .     A
C961   O1029   1.384   .     S
C961   C969    1.409   .     A
C962   O1030   1.384   .     S
C962   C971    1.409   .     A
C963   C970    1.420   .     S
C967   C975    1.420   .     S
C968   C974    1.420   .     S
C969   C973    1.409   .     S
C970   O1033   1.277   .     A
C970   O1034   1.288   .     A
C971   C972    1.409   .     S
C972   O1036   1.277   .     A
C972   O1008   1.281   .     A
C973   O1006   1.277   .     A
C973   O1007   1.281   .     A
C974   O1012   1.288   .     A
C974   O1009   1.277   .     A
C975   O1010   1.277   .     A
C975   O1011   1.288   .     A
C976   N898    1.367   1_655 A
C976   H977    1.082   .     S
H978   O1014   0.990   .     S
H979   O1015   0.989   .     S
H980   O1017   0.989   .     S
H981   O1018   0.987   .     S
H982   O1019   0.987   .     S
H983   O1020   0.988   .     S
H984   O1021   0.988   .     S
H985   O1022   0.990   .     S
H986   O1023   0.990   .     S
H987   O1024   0.989   .     S
H989   O1025   0.989   .     S
H990   O1026   0.987   .     S
H991   O1028   0.987   .     S
H992   O1029   0.988   .     S
H993   O1030   0.988   .     S
H1000  O1013   0.990   .     S
N1001  Zn1037  2.011   .     S
N1002  Zn1038  2.011   .     S
N1003  C1150   1.367   1_545 S
N1003  Zn1039  2.011   .     S
N1004  Zn1040  2.011   .     S
N1004  C1151   1.367   1_545 S
O1005  Zn1037  1.990   .     S
O1006  Zn1040  1.990   .     S
O1007  Zn1039  1.987   .     S
O1008  Zn1248  1.987   .     S
O1009  Zn1248  2.007   .     S
O1010  Zn1039  2.007   .     S
O1011  Zn1040  1.986   .     S
O1012  Zn1247  1.986   .     S
O1016  Zn934   1.990   1_655 S
O1027  Zn933   1.987   1_655 S
O1031  Zn1038  1.987   .     S
O1032  Zn934   2.007   1_655 S
O1033  Zn1037  2.007   .     S
O1034  Zn1038  1.986   .     S
O1035  Zn933   1.986   1_655 S
O1036  Zn1247  1.990   .     S
Zn1039 O1220   1.986   1_545 S
Zn1039 O1244   1.990   1_545 S
Zn1040 O1217   2.007   1_545 S
Zn1040 O1216   1.987   1_545 S
C1041  O1109   1.277   .     A
C1041  O1135   1.281   .     A
C1041  C1070   1.409   .     S
C1042  N1105   1.367   .     A
C1042  H1092   1.082   .     S
C1042  C211    1.417   1_556 S
C1043  H1098   1.082   .     S
C1043  N1106   1.367   .     S
C1044  H1099   1.082   .     S
C1044  C248    1.417   1_556 S
C1044  N1209   1.367   .     S
C1045  N1108   1.367   .     A
C1045  H1100   1.082   .     S
C1046  H1101   1.082   .     S
C1046  C215    1.417   1_556 S
C1046  N899    1.367   1_565 S
C1047  H1102   1.082   .     S
C1047  N900    1.367   1_565 S
C1048  H1103   1.082   .     S
C1048  N1107   1.367   .     A
C1048  C213    1.417   1_556 S
C1049  C1060   1.374   .     A
C1049  O1117   1.376   .     S
C1049  C1068   1.409   .     A
C1050  C1067   1.409   .     A
C1050  O1118   1.376   .     S
C1050  C1061   1.374   .     A
C1051  C1058   1.374   .     A
C1051  C1067   1.408   .     A
C1051  O1119   1.384   .     S
C1052  C1069   1.409   .     S
C1052  O1131   1.281   .     A
C1052  O1120   1.277   .     A
C1053  O1121   1.384   .     S
C1053  C1068   1.408   .     A
C1053  C1059   1.374   .     A
C1054  C1070   1.411   .     A
C1054  O1122   1.387   .     S
C1054  C1065   1.376   .     A
C1055  C1069   1.411   .     A
C1055  C1066   1.376   .     A
C1055  O1123   1.387   .     S
C1056  O1124   1.384   .     S
C1056  C1069   1.409   .     A
C1056  C1062   1.376   .     A
C1057  O1125   1.384   .     S
C1057  C1070   1.409   .     A
C1057  C1064   1.376   .     A
C1058  O1126   1.376   .     S
C1058  C1072   1.409   .     A
C1059  C1071   1.409   .     A
C1059  O1127   1.376   .     S
C1060  O1128   1.384   .     S
C1060  C1071   1.408   .     A
C1061  C1072   1.408   .     A
C1061  O1129   1.384   .     S
C1062  C1075   1.411   .     A
C1062  O1130   1.387   .     S
C1063  O1139   1.288   .     A
C1063  O1136   1.277   .     A
C1063  C1068   1.420   .     S
C1064  O1132   1.387   .     S
C1064  C1073   1.411   .     A
C1065  O1133   1.384   .     S
C1065  C1073   1.409   .     A
C1066  O1134   1.384   .     S
C1066  C1075   1.409   .     A
C1067  C1074   1.420   .     S
C1071  C1079   1.420   .     S
C1072  C1078   1.420   .     S
C1073  C1077   1.409   .     S
C1074  O1137   1.277   .     A
C1074  O1138   1.288   .     A
C1075  C1076   1.409   .     S
C1076  O1140   1.277   .     A
C1076  O1112   1.281   .     A
C1077  O1110   1.277   .     A
C1077  O1111   1.281   .     A
C1078  O1116   1.288   .     A
C1078  O1113   1.277   .     A
C1079  O1114   1.277   .     A
C1079  O1115   1.288   .     A
C1080  N1210   1.367   .     A
C1080  H1081   1.082   .     S
H1082  O1118   0.990   .     S
H1083  O1119   0.989   .     S
H1084  O1121   0.989   .     S
H1085  O1122   0.987   .     S
H1086  O1123   0.987   .     S
H1087  O1124   0.988   .     S
H1088  O1125   0.988   .     S
H1089  O1126   0.990   .     S
H1090  O1127   0.990   .     S
H1091  O1128   0.989   .     S
H1093  O1129   0.989   .     S
H1094  O1130   0.987   .     S
H1095  O1132   0.987   .     S
H1096  O1133   0.988   .     S
H1097  O1134   0.988   .     S
H1104  O1117   0.990   .     S
N1105  Zn1141  2.011   .     S
N1105  C1148   1.367   1_455 S
N1106  C1184   1.367   1_455 A
N1106  Zn1142  2.011   .     S
N1107  Zn1143  2.011   .     S
N1108  Zn1144  2.011   .     S
O1109  Zn1141  1.990   .     S
O1110  Zn1144  1.990   .     S
O1111  Zn1143  1.987   .     S
O1112  Zn936   1.987   1_565 S
O1113  Zn936   2.007   1_565 S
O1114  Zn1143  2.007   .     S
O1115  Zn1144  1.986   .     S
O1116  Zn935   1.986   1_565 S
O1120  Zn1246  1.990   .     S
O1131  Zn1245  1.987   .     S
O1135  Zn1142  1.987   .     S
O1136  Zn1246  2.007   .     S
O1137  Zn1141  2.007   .     S
O1138  Zn1142  1.986   .     S
O1139  Zn1245  1.986   .     S
O1140  Zn935   1.990   1_565 S
Zn1141 O1243   1.986   1_455 S
Zn1141 O1235   1.987   1_455 S
Zn1142 O1240   2.007   1_455 S
Zn1142 O1224   1.990   1_455 S
C1145  O1213   1.277   .     A
C1145  O1239   1.281   .     A
C1145  C1174   1.409   .     S
C1146  N1209   1.367   .     A
C1146  H1196   1.082   .     S
C1146  C315    1.417   1_556 S
C1147  H1202   1.082   .     S
C1147  N1210   1.367   .     S
C1148  H1203   1.082   .     S
C1148  C352    1.417   1_556 S
C1148  N1105   1.367   1_655 S
C1149  N1212   1.367   .     A
C1149  H1204   1.082   .     S
C1150  H1205   1.082   .     S
C1150  C319    1.417   1_556 S
C1150  N1003   1.367   1_565 S
C1151  H1206   1.082   .     S
C1151  N1004   1.367   1_565 S
C1152  H1207   1.082   .     S
C1152  N1211   1.367   .     A
C1152  C317    1.417   1_556 S
C1153  C1164   1.374   .     A
C1153  O1221   1.376   .     S
C1153  C1172   1.409   .     A
C1154  C1171   1.409   .     A
C1154  O1222   1.376   .     S
C1154  C1165   1.374   .     A
C1155  C1162   1.374   .     A
C1155  C1171   1.408   .     A
C1155  O1223   1.384   .     S
C1156  C1173   1.409   .     S
C1156  O1235   1.281   .     A
C1156  O1224   1.277   .     A
C1157  O1225   1.384   .     S
C1157  C1172   1.408   .     A
C1157  C1163   1.374   .     A
C1158  C1174   1.411   .     A
C1158  O1226   1.387   .     S
C1158  C1169   1.376   .     A
C1159  C1173   1.411   .     A
C1159  C1170   1.376   .     A
C1159  O1227   1.387   .     S
C1160  O1228   1.384   .     S
C1160  C1173   1.409   .     A
C1160  C1166   1.376   .     A
C1161  O1229   1.384   .     S
C1161  C1174   1.409   .     A
C1161  C1168   1.376   .     A
C1162  O1230   1.376   .     S
C1162  C1176   1.409   .     A
C1163  C1175   1.409   .     A
C1163  O1231   1.376   .     S
C1164  O1232   1.384   .     S
C1164  C1175   1.408   .     A
C1165  C1176   1.408   .     A
C1165  O1233   1.384   .     S
C1166  C1179   1.411   .     A
C1166  O1234   1.387   .     S
C1167  O1243   1.288   .     A
C1167  O1240   1.277   .     A
C1167  C1172   1.420   .     S
C1168  O1236   1.387   .     S
C1168  C1177   1.411   .     A
C1169  O1237   1.384   .     S
C1169  C1177   1.409   .     A
C1170  O1238   1.384   .     S
C1170  C1179   1.409   .     A
C1171  C1178   1.420   .     S
C1175  C1183   1.420   .     S
C1176  C1182   1.420   .     S
C1177  C1181   1.409   .     S
C1178  O1241   1.277   .     A
C1178  O1242   1.288   .     A
C1179  C1180   1.409   .     S
C1180  O1244   1.277   .     A
C1180  O1216   1.281   .     A
C1181  O1214   1.277   .     A
C1181  O1215   1.281   .     A
C1182  O1220   1.288   .     A
C1182  O1217   1.277   .     A
C1183  O1218   1.277   .     A
C1183  O1219   1.288   .     A
C1184  N1106   1.367   1_655 A
C1184  H1185   1.082   .     S
H1186  O1222   0.990   .     S
H1187  O1223   0.989   .     S
H1188  O1225   0.989   .     S
H1189  O1226   0.987   .     S
H1190  O1227   0.987   .     S
H1191  O1228   0.988   .     S
H1192  O1229   0.988   .     S
H1193  O1230   0.990   .     S
H1194  O1231   0.990   .     S
H1195  O1232   0.989   .     S
H1197  O1233   0.989   .     S
H1198  O1234   0.987   .     S
H1199  O1236   0.987   .     S
H1200  O1237   0.988   .     S
H1201  O1238   0.988   .     S
H1208  O1221   0.990   .     S
N1209  Zn1245  2.011   .     S
N1210  Zn1246  2.011   .     S
N1211  Zn1247  2.011   .     S
N1212  Zn1248  2.011   .     S
O1213  Zn1245  1.990   .     S
O1214  Zn1248  1.990   .     S
O1215  Zn1247  1.987   .     S
O1216  Zn1040  1.987   1_565 S
O1217  Zn1040  2.007   1_565 S
O1218  Zn1247  2.007   .     S
O1219  Zn1248  1.986   .     S
O1220  Zn1039  1.986   1_565 S
O1224  Zn1142  1.990   1_655 S
O1235  Zn1141  1.987   1_655 S
O1239  Zn1246  1.987   .     S
O1240  Zn1142  2.007   1_655 S
O1241  Zn1245  2.007   .     S
O1242  Zn1246  1.986   .     S
O1243  Zn1141  1.986   1_655 S
O1244  Zn1039  1.990   1_565 S
