data_str_m2_o1_o10_pcu_sym.180
_audit_creation_date              2020-01-03
_audit_creation_method            'Materials Studio'
_symmetry_space_group_name_H-M    'P1'
_symmetry_Int_Tables_number       1
_symmetry_cell_setting            triclinic
loop_
_symmetry_equiv_pos_as_xyz
  x,y,z
_cell_length_a                    26.4204
_cell_length_b                    32.5669
_cell_length_c                    29.1097
_cell_angle_alpha                 92.8185
_cell_angle_beta                  98.5948
_cell_angle_gamma                 91.4777
loop_
_atom_site_label
_atom_site_type_symbol
_atom_site_fract_x
_atom_site_fract_y
_atom_site_fract_z
_atom_site_U_iso_or_equiv
_atom_site_adp_type
_atom_site_occupancy
C1     C     0.16399   0.08764   0.16532   0.00000  Uiso   1.00
C2     C     0.16700   0.24580   0.16777   0.00000  Uiso   1.00
C3     C     0.06808   0.16645   0.15460   0.00000  Uiso   1.00
C4     C     0.26527   0.16790   0.17877   0.00000  Uiso   1.00
C5     C     0.01262   0.16514   0.14833   0.00000  Uiso   1.00
C6     C     0.32077   0.17073   0.18498   0.00000  Uiso   1.00
C7     C     0.11646   0.02001   0.16388   0.00000  Uiso   1.00
C8     C     0.21122   0.31452   0.17572   0.00000  Uiso   1.00
C9     C     0.11732   0.30981   0.16377   0.00000  Uiso   1.00
C10    C     0.20976   0.02301   0.16624   0.00000  Uiso   1.00
C11    C     0.16515   0.29074   0.16973   0.00000  Uiso   1.00
C12    C     0.16285   0.04272   0.16327   0.00000  Uiso   1.00
C13    C     0.13485   0.14063   0.01878   0.00000  Uiso   1.00
C14    C     0.20272   0.18902   0.31529   0.00000  Uiso   1.00
C15    C     0.13369   0.14140   0.30290   0.00000  Uiso   1.00
C16    C     0.19954   0.19206   0.03051   0.00000  Uiso   1.00
Cu17   Cu    0.16667   0.16667   0.21355   0.00000  Uiso   1.00
Cu18   Cu    0.16667   0.16666   0.11978   0.00000  Uiso   1.00
H19    H     0.32575   0.15816   0.11342   0.00000  Uiso   1.00
H20    H     0.00767   0.17724   0.21997   0.00000  Uiso   1.00
N21    N     0.16668   0.16668   0.28403   0.00000  Uiso   1.00
N22    N     0.16665   0.16666   0.04931   0.00000  Uiso   1.00
O23    O     0.16666   0.10655   0.20625   0.00000  Uiso   1.00
O24    O     0.16667   0.22678   0.12709   0.00000  Uiso   1.00
O25    O     0.16666   0.10654   0.12706   0.00000  Uiso   1.00
O26    O     0.16667   0.22679   0.20628   0.00000  Uiso   1.00
O27    O     0.09161   0.16667   0.19712   0.00000  Uiso   1.00
O28    O     0.24172   0.16666   0.13621   0.00000  Uiso   1.00
O29    O     0.09161   0.16666   0.11793   0.00000  Uiso   1.00
O30    O     0.24172   0.16667   0.21540   0.00000  Uiso   1.00
C31    C     0.06678   0.04233   0.16478   0.00000  Uiso   1.00
C32    C     0.04365   0.05396   0.11671   0.00000  Uiso   1.00
H33    H     0.00713   0.06960   0.11736   0.00000  Uiso   1.00
H34    H     0.07008   0.07665   0.10591   0.00000  Uiso   1.00
H35    H     0.03745   0.02661   0.09199   0.00000  Uiso   1.00
H36    H     0.07347   0.07102   0.18689   0.00000  Uiso   1.00
H37    H     0.03869   0.02398   0.18019   0.00000  Uiso   1.00
C38    C     0.25944   0.29847   0.20264   0.00000  Uiso   1.00
C39    C     0.26236   0.31221   0.25425   0.00000  Uiso   1.00
H40    H     0.22799   0.30077   0.26805   0.00000  Uiso   1.00
H41    H     0.29760   0.30076   0.27464   0.00000  Uiso   1.00
H42    H     0.26237   0.01263   0.25994   0.00000  Uiso   1.00
H43    H     0.26048   0.26453   0.19873   0.00000  Uiso   1.00
H44    H     0.29410   0.30970   0.18961   0.00000  Uiso   1.00
C45    C     0.06814   0.28351   0.15998   0.00000  Uiso   1.00
C46    C     0.05608   0.27383   0.20816   0.00000  Uiso   1.00
H47    H     0.02072   0.25417   0.20440   0.00000  Uiso   1.00
H48    H     0.08740   0.25703   0.22786   0.00000  Uiso   1.00
H49    H     0.05041   0.30248   0.22874   0.00000  Uiso   1.00
H50    H     0.03513   0.29838   0.14009   0.00000  Uiso   1.00
H51    H     0.07118   0.25432   0.13944   0.00000  Uiso   1.00
C52    C     0.25765   0.04605   0.15706   0.00000  Uiso   1.00
C53    C     0.28750   0.06823   0.20063   0.00000  Uiso   1.00
H54    H     0.31423   0.09122   0.19006   0.00000  Uiso   1.00
H55    H     0.26179   0.08394   0.22212   0.00000  Uiso   1.00
H56    H     0.31156   0.04694   0.22200   0.00000  Uiso   1.00
H57    H     0.28251   0.02467   0.14075   0.00000  Uiso   1.00
H58    H     0.24760   0.06877   0.13029   0.00000  Uiso   1.00
C59    C     0.10339   0.10892   0.03581   0.00000  Uiso   1.00
O60    O     0.05822   0.11495   0.03754   0.00000  Uiso   1.00
O61    O     0.12311   0.06966   0.04083   0.00000  Uiso   1.00
H62    H     0.09569   0.04743   0.04103   0.00000  Uiso   1.00
C63    C     0.24990   0.20523   0.30092   0.00000  Uiso   1.00
O64    O     0.24775   0.23011   0.27121   0.00000  Uiso   1.00
O65    O     0.29740   0.19209   0.32191   0.00000  Uiso   1.00
H66    H     0.32713   0.20538   0.30912   0.00000  Uiso   1.00
C67    C     0.10125   0.10976   0.27386   0.00000  Uiso   1.00
O68    O     0.05734   0.11722   0.25771   0.00000  Uiso   1.00
O69    O     0.11810   0.06941   0.27265   0.00000  Uiso   1.00
H70    H     0.08950   0.04845   0.26101   0.00000  Uiso   1.00
C71    C     0.22936   0.22574   0.05907   0.00000  Uiso   1.00
O72    O     0.21172   0.26007   0.06009   0.00000  Uiso   1.00
O73    O     0.27914   0.21966   0.08074   0.00000  Uiso   1.00
H74    H     0.29567   0.24540   0.09834   0.00000  Uiso   1.00
C75    C     0.49733   0.08764   0.16532   0.00000  Uiso   1.00
C76    C     0.50034   0.24580   0.16777   0.00000  Uiso   1.00
C77    C     0.40141   0.16645   0.15460   0.00000  Uiso   1.00
C78    C     0.59860   0.16790   0.17877   0.00000  Uiso   1.00
C79    C     0.34595   0.16514   0.14833   0.00000  Uiso   1.00
C80    C     0.65411   0.17073   0.18498   0.00000  Uiso   1.00
C81    C     0.44980   0.02001   0.16388   0.00000  Uiso   1.00
C82    C     0.54456   0.31452   0.17572   0.00000  Uiso   1.00
C83    C     0.45065   0.30981   0.16377   0.00000  Uiso   1.00
C84    C     0.54309   0.02301   0.16624   0.00000  Uiso   1.00
C85    C     0.49848   0.29074   0.16973   0.00000  Uiso   1.00
C86    C     0.49619   0.04272   0.16327   0.00000  Uiso   1.00
C87    C     0.46818   0.14063   0.01878   0.00000  Uiso   1.00
C88    C     0.53605   0.18902   0.31529   0.00000  Uiso   1.00
C89    C     0.46703   0.14140   0.30290   0.00000  Uiso   1.00
C90    C     0.53287   0.19206   0.03051   0.00000  Uiso   1.00
Cu91   Cu    0.50000   0.16667   0.21355   0.00000  Uiso   1.00
Cu92   Cu    0.50000   0.16666   0.11978   0.00000  Uiso   1.00
H93    H     0.65909   0.15816   0.11342   0.00000  Uiso   1.00
H94    H     0.34100   0.17724   0.21997   0.00000  Uiso   1.00
N95    N     0.50001   0.16668   0.28403   0.00000  Uiso   1.00
N96    N     0.49999   0.16666   0.04931   0.00000  Uiso   1.00
O97    O     0.50000   0.10655   0.20625   0.00000  Uiso   1.00
O98    O     0.50000   0.22678   0.12709   0.00000  Uiso   1.00
O99    O     0.50000   0.10654   0.12706   0.00000  Uiso   1.00
O100   O     0.50000   0.22679   0.20628   0.00000  Uiso   1.00
O101   O     0.42495   0.16667   0.19712   0.00000  Uiso   1.00
O102   O     0.57505   0.16666   0.13621   0.00000  Uiso   1.00
O103   O     0.42494   0.16666   0.11793   0.00000  Uiso   1.00
O104   O     0.57506   0.16667   0.21540   0.00000  Uiso   1.00
C105   C     0.40011   0.04233   0.16478   0.00000  Uiso   1.00
C106   C     0.37698   0.05396   0.11671   0.00000  Uiso   1.00
H107   H     0.34046   0.06960   0.11736   0.00000  Uiso   1.00
H108   H     0.40341   0.07665   0.10591   0.00000  Uiso   1.00
H109   H     0.37078   0.02661   0.09199   0.00000  Uiso   1.00
H110   H     0.40680   0.07102   0.18689   0.00000  Uiso   1.00
H111   H     0.37202   0.02398   0.18019   0.00000  Uiso   1.00
C112   C     0.59277   0.29847   0.20264   0.00000  Uiso   1.00
C113   C     0.59569   0.31221   0.25425   0.00000  Uiso   1.00
H114   H     0.56132   0.30077   0.26805   0.00000  Uiso   1.00
H115   H     0.63094   0.30076   0.27464   0.00000  Uiso   1.00
H116   H     0.59570   0.01263   0.25994   0.00000  Uiso   1.00
H117   H     0.59381   0.26453   0.19873   0.00000  Uiso   1.00
H118   H     0.62743   0.30970   0.18961   0.00000  Uiso   1.00
C119   C     0.40147   0.28351   0.15998   0.00000  Uiso   1.00
C120   C     0.38942   0.27383   0.20816   0.00000  Uiso   1.00
H121   H     0.35405   0.25417   0.20440   0.00000  Uiso   1.00
H122   H     0.42074   0.25703   0.22786   0.00000  Uiso   1.00
H123   H     0.38375   0.30248   0.22874   0.00000  Uiso   1.00
H124   H     0.36847   0.29838   0.14009   0.00000  Uiso   1.00
H125   H     0.40452   0.25432   0.13944   0.00000  Uiso   1.00
C126   C     0.59098   0.04605   0.15706   0.00000  Uiso   1.00
C127   C     0.62083   0.06823   0.20063   0.00000  Uiso   1.00
H128   H     0.64756   0.09122   0.19006   0.00000  Uiso   1.00
H129   H     0.59512   0.08394   0.22212   0.00000  Uiso   1.00
H130   H     0.64489   0.04694   0.22200   0.00000  Uiso   1.00
H131   H     0.61584   0.02467   0.14075   0.00000  Uiso   1.00
H132   H     0.58093   0.06877   0.13029   0.00000  Uiso   1.00
C133   C     0.43673   0.10892   0.03581   0.00000  Uiso   1.00
O134   O     0.39156   0.11495   0.03754   0.00000  Uiso   1.00
O135   O     0.45644   0.06966   0.04083   0.00000  Uiso   1.00
H136   H     0.42902   0.04743   0.04103   0.00000  Uiso   1.00
C137   C     0.58324   0.20523   0.30092   0.00000  Uiso   1.00
O138   O     0.58108   0.23011   0.27121   0.00000  Uiso   1.00
O139   O     0.63073   0.19209   0.32191   0.00000  Uiso   1.00
H140   H     0.66046   0.20538   0.30912   0.00000  Uiso   1.00
C141   C     0.43458   0.10976   0.27386   0.00000  Uiso   1.00
O142   O     0.39067   0.11722   0.25771   0.00000  Uiso   1.00
O143   O     0.45143   0.06941   0.27265   0.00000  Uiso   1.00
H144   H     0.42283   0.04845   0.26101   0.00000  Uiso   1.00
C145   C     0.56269   0.22574   0.05907   0.00000  Uiso   1.00
O146   O     0.54505   0.26007   0.06009   0.00000  Uiso   1.00
O147   O     0.61248   0.21966   0.08074   0.00000  Uiso   1.00
H148   H     0.62901   0.24540   0.09834   0.00000  Uiso   1.00
C149   C     0.83066   0.08764   0.16532   0.00000  Uiso   1.00
C150   C     0.83367   0.24580   0.16777   0.00000  Uiso   1.00
C151   C     0.73474   0.16645   0.15460   0.00000  Uiso   1.00
C152   C     0.93193   0.16790   0.17877   0.00000  Uiso   1.00
C153   C     0.67928   0.16514   0.14833   0.00000  Uiso   1.00
C154   C     0.98744   0.17073   0.18498   0.00000  Uiso   1.00
C155   C     0.78313   0.02001   0.16388   0.00000  Uiso   1.00
C156   C     0.87789   0.31452   0.17572   0.00000  Uiso   1.00
C157   C     0.78398   0.30981   0.16377   0.00000  Uiso   1.00
C158   C     0.87642   0.02301   0.16624   0.00000  Uiso   1.00
C159   C     0.83182   0.29074   0.16973   0.00000  Uiso   1.00
C160   C     0.82952   0.04272   0.16327   0.00000  Uiso   1.00
C161   C     0.80152   0.14063   0.01878   0.00000  Uiso   1.00
C162   C     0.86939   0.18902   0.31529   0.00000  Uiso   1.00
C163   C     0.80036   0.14140   0.30290   0.00000  Uiso   1.00
C164   C     0.86621   0.19206   0.03051   0.00000  Uiso   1.00
Cu165  Cu    0.83333   0.16667   0.21355   0.00000  Uiso   1.00
Cu166  Cu    0.83333   0.16666   0.11978   0.00000  Uiso   1.00
H167   H     0.99242   0.15816   0.11342   0.00000  Uiso   1.00
H168   H     0.67434   0.17724   0.21997   0.00000  Uiso   1.00
N169   N     0.83335   0.16668   0.28403   0.00000  Uiso   1.00
N170   N     0.83332   0.16666   0.04931   0.00000  Uiso   1.00
O171   O     0.83333   0.10655   0.20625   0.00000  Uiso   1.00
O172   O     0.83334   0.22678   0.12709   0.00000  Uiso   1.00
O173   O     0.83333   0.10654   0.12706   0.00000  Uiso   1.00
O174   O     0.83334   0.22679   0.20628   0.00000  Uiso   1.00
O175   O     0.75828   0.16667   0.19712   0.00000  Uiso   1.00
O176   O     0.90839   0.16666   0.13621   0.00000  Uiso   1.00
O177   O     0.75828   0.16666   0.11793   0.00000  Uiso   1.00
O178   O     0.90839   0.16667   0.21540   0.00000  Uiso   1.00
C179   C     0.73345   0.04233   0.16478   0.00000  Uiso   1.00
C180   C     0.71031   0.05396   0.11671   0.00000  Uiso   1.00
H181   H     0.67379   0.06960   0.11736   0.00000  Uiso   1.00
H182   H     0.73675   0.07665   0.10591   0.00000  Uiso   1.00
H183   H     0.70411   0.02661   0.09199   0.00000  Uiso   1.00
H184   H     0.74013   0.07102   0.18689   0.00000  Uiso   1.00
H185   H     0.70535   0.02398   0.18019   0.00000  Uiso   1.00
C186   C     0.92611   0.29847   0.20264   0.00000  Uiso   1.00
C187   C     0.92903   0.31221   0.25425   0.00000  Uiso   1.00
H188   H     0.89465   0.30077   0.26805   0.00000  Uiso   1.00
H189   H     0.96427   0.30076   0.27464   0.00000  Uiso   1.00
H190   H     0.92903   0.01263   0.25994   0.00000  Uiso   1.00
H191   H     0.92715   0.26453   0.19873   0.00000  Uiso   1.00
H192   H     0.96077   0.30970   0.18961   0.00000  Uiso   1.00
C193   C     0.73480   0.28351   0.15998   0.00000  Uiso   1.00
C194   C     0.72275   0.27383   0.20816   0.00000  Uiso   1.00
H195   H     0.68739   0.25417   0.20440   0.00000  Uiso   1.00
H196   H     0.75407   0.25703   0.22786   0.00000  Uiso   1.00
H197   H     0.71708   0.30248   0.22874   0.00000  Uiso   1.00
H198   H     0.70180   0.29838   0.14009   0.00000  Uiso   1.00
H199   H     0.73785   0.25432   0.13944   0.00000  Uiso   1.00
C200   C     0.92431   0.04605   0.15706   0.00000  Uiso   1.00
C201   C     0.95417   0.06823   0.20063   0.00000  Uiso   1.00
H202   H     0.98089   0.09122   0.19006   0.00000  Uiso   1.00
H203   H     0.92846   0.08394   0.22212   0.00000  Uiso   1.00
H204   H     0.97823   0.04694   0.22200   0.00000  Uiso   1.00
H205   H     0.94918   0.02467   0.14075   0.00000  Uiso   1.00
H206   H     0.91427   0.06877   0.13029   0.00000  Uiso   1.00
C207   C     0.77006   0.10892   0.03581   0.00000  Uiso   1.00
O208   O     0.72489   0.11495   0.03754   0.00000  Uiso   1.00
O209   O     0.78977   0.06966   0.04083   0.00000  Uiso   1.00
H210   H     0.76236   0.04743   0.04103   0.00000  Uiso   1.00
C211   C     0.91657   0.20523   0.30092   0.00000  Uiso   1.00
O212   O     0.91441   0.23011   0.27121   0.00000  Uiso   1.00
O213   O     0.96407   0.19209   0.32191   0.00000  Uiso   1.00
H214   H     0.99379   0.20538   0.30912   0.00000  Uiso   1.00
C215   C     0.76792   0.10976   0.27386   0.00000  Uiso   1.00
O216   O     0.72401   0.11722   0.25771   0.00000  Uiso   1.00
O217   O     0.78476   0.06941   0.27265   0.00000  Uiso   1.00
H218   H     0.75617   0.04845   0.26101   0.00000  Uiso   1.00
C219   C     0.89603   0.22574   0.05907   0.00000  Uiso   1.00
O220   O     0.87839   0.26007   0.06009   0.00000  Uiso   1.00
O221   O     0.94581   0.21966   0.08074   0.00000  Uiso   1.00
H222   H     0.96234   0.24540   0.09834   0.00000  Uiso   1.00
C223   C     0.16399   0.42097   0.16532   0.00000  Uiso   1.00
C224   C     0.16700   0.57913   0.16777   0.00000  Uiso   1.00
C225   C     0.06808   0.49978   0.15460   0.00000  Uiso   1.00
C226   C     0.26527   0.50123   0.17877   0.00000  Uiso   1.00
C227   C     0.01262   0.49847   0.14833   0.00000  Uiso   1.00
C228   C     0.32077   0.50406   0.18498   0.00000  Uiso   1.00
C229   C     0.11646   0.35334   0.16388   0.00000  Uiso   1.00
C230   C     0.21122   0.64785   0.17572   0.00000  Uiso   1.00
C231   C     0.11732   0.64314   0.16377   0.00000  Uiso   1.00
C232   C     0.20976   0.35634   0.16624   0.00000  Uiso   1.00
C233   C     0.16515   0.62407   0.16973   0.00000  Uiso   1.00
C234   C     0.16285   0.37606   0.16327   0.00000  Uiso   1.00
C235   C     0.13485   0.47397   0.01878   0.00000  Uiso   1.00
C236   C     0.20272   0.52235   0.31529   0.00000  Uiso   1.00
C237   C     0.13369   0.47473   0.30290   0.00000  Uiso   1.00
C238   C     0.19954   0.52539   0.03051   0.00000  Uiso   1.00
Cu239  Cu    0.16667   0.50001   0.21355   0.00000  Uiso   1.00
Cu240  Cu    0.16667   0.49999   0.11978   0.00000  Uiso   1.00
H241   H     0.32575   0.49149   0.11342   0.00000  Uiso   1.00
H242   H     0.00767   0.51058   0.21997   0.00000  Uiso   1.00
N243   N     0.16668   0.50001   0.28403   0.00000  Uiso   1.00
N244   N     0.16665   0.49999   0.04931   0.00000  Uiso   1.00
O245   O     0.16666   0.43989   0.20625   0.00000  Uiso   1.00
O246   O     0.16667   0.56011   0.12709   0.00000  Uiso   1.00
O247   O     0.16666   0.43988   0.12706   0.00000  Uiso   1.00
O248   O     0.16667   0.56012   0.20628   0.00000  Uiso   1.00
O249   O     0.09161   0.50000   0.19712   0.00000  Uiso   1.00
O250   O     0.24172   0.50000   0.13621   0.00000  Uiso   1.00
O251   O     0.09161   0.49999   0.11793   0.00000  Uiso   1.00
O252   O     0.24172   0.50001   0.21540   0.00000  Uiso   1.00
C253   C     0.06678   0.37566   0.16478   0.00000  Uiso   1.00
C254   C     0.04365   0.38729   0.11671   0.00000  Uiso   1.00
H255   H     0.00713   0.40293   0.11736   0.00000  Uiso   1.00
H256   H     0.07008   0.40999   0.10591   0.00000  Uiso   1.00
H257   H     0.03745   0.35994   0.09199   0.00000  Uiso   1.00
H258   H     0.07347   0.40435   0.18689   0.00000  Uiso   1.00
H259   H     0.03869   0.35732   0.18019   0.00000  Uiso   1.00
C260   C     0.25944   0.63180   0.20264   0.00000  Uiso   1.00
C261   C     0.26236   0.64554   0.25425   0.00000  Uiso   1.00
H262   H     0.22799   0.63411   0.26805   0.00000  Uiso   1.00
H263   H     0.29760   0.63409   0.27464   0.00000  Uiso   1.00
H264   H     0.26237   0.34596   0.25994   0.00000  Uiso   1.00
H265   H     0.26048   0.59786   0.19873   0.00000  Uiso   1.00
H266   H     0.29410   0.64304   0.18961   0.00000  Uiso   1.00
C267   C     0.06814   0.61684   0.15998   0.00000  Uiso   1.00
C268   C     0.05608   0.60716   0.20816   0.00000  Uiso   1.00
H269   H     0.02072   0.58751   0.20440   0.00000  Uiso   1.00
H270   H     0.08740   0.59037   0.22786   0.00000  Uiso   1.00
H271   H     0.05041   0.63581   0.22874   0.00000  Uiso   1.00
H272   H     0.03513   0.63171   0.14009   0.00000  Uiso   1.00
H273   H     0.07118   0.58765   0.13944   0.00000  Uiso   1.00
C274   C     0.25765   0.37939   0.15706   0.00000  Uiso   1.00
C275   C     0.28750   0.40156   0.20063   0.00000  Uiso   1.00
H276   H     0.31423   0.42455   0.19006   0.00000  Uiso   1.00
H277   H     0.26179   0.41727   0.22212   0.00000  Uiso   1.00
H278   H     0.31156   0.38027   0.22200   0.00000  Uiso   1.00
H279   H     0.28251   0.35800   0.14075   0.00000  Uiso   1.00
H280   H     0.24760   0.40210   0.13029   0.00000  Uiso   1.00
C281   C     0.10339   0.44225   0.03581   0.00000  Uiso   1.00
O282   O     0.05822   0.44828   0.03754   0.00000  Uiso   1.00
O283   O     0.12311   0.40300   0.04083   0.00000  Uiso   1.00
H284   H     0.09569   0.38076   0.04103   0.00000  Uiso   1.00
C285   C     0.24990   0.53857   0.30092   0.00000  Uiso   1.00
O286   O     0.24775   0.56344   0.27121   0.00000  Uiso   1.00
O287   O     0.29740   0.52542   0.32191   0.00000  Uiso   1.00
H288   H     0.32713   0.53871   0.30912   0.00000  Uiso   1.00
C289   C     0.10125   0.44310   0.27386   0.00000  Uiso   1.00
O290   O     0.05734   0.45055   0.25771   0.00000  Uiso   1.00
O291   O     0.11810   0.40274   0.27265   0.00000  Uiso   1.00
H292   H     0.08950   0.38178   0.26101   0.00000  Uiso   1.00
C293   C     0.22936   0.55908   0.05907   0.00000  Uiso   1.00
O294   O     0.21172   0.59340   0.06009   0.00000  Uiso   1.00
O295   O     0.27914   0.55299   0.08074   0.00000  Uiso   1.00
H296   H     0.29567   0.57873   0.09834   0.00000  Uiso   1.00
C297   C     0.49733   0.42097   0.16532   0.00000  Uiso   1.00
C298   C     0.50034   0.57913   0.16777   0.00000  Uiso   1.00
C299   C     0.40141   0.49978   0.15460   0.00000  Uiso   1.00
C300   C     0.59860   0.50123   0.17877   0.00000  Uiso   1.00
C301   C     0.34595   0.49847   0.14833   0.00000  Uiso   1.00
C302   C     0.65411   0.50406   0.18498   0.00000  Uiso   1.00
C303   C     0.44980   0.35334   0.16388   0.00000  Uiso   1.00
C304   C     0.54456   0.64785   0.17572   0.00000  Uiso   1.00
C305   C     0.45065   0.64314   0.16377   0.00000  Uiso   1.00
C306   C     0.54309   0.35634   0.16624   0.00000  Uiso   1.00
C307   C     0.49848   0.62407   0.16973   0.00000  Uiso   1.00
C308   C     0.49619   0.37606   0.16327   0.00000  Uiso   1.00
C309   C     0.46818   0.47397   0.01878   0.00000  Uiso   1.00
C310   C     0.53605   0.52235   0.31529   0.00000  Uiso   1.00
C311   C     0.46703   0.47473   0.30290   0.00000  Uiso   1.00
C312   C     0.53287   0.52539   0.03051   0.00000  Uiso   1.00
Cu313  Cu    0.50000   0.50001   0.21355   0.00000  Uiso   1.00
Cu314  Cu    0.50000   0.49999   0.11978   0.00000  Uiso   1.00
H315   H     0.65909   0.49149   0.11342   0.00000  Uiso   1.00
H316   H     0.34100   0.51058   0.21997   0.00000  Uiso   1.00
N317   N     0.50001   0.50001   0.28403   0.00000  Uiso   1.00
N318   N     0.49999   0.49999   0.04931   0.00000  Uiso   1.00
O319   O     0.50000   0.43989   0.20625   0.00000  Uiso   1.00
O320   O     0.50000   0.56011   0.12709   0.00000  Uiso   1.00
O321   O     0.50000   0.43988   0.12706   0.00000  Uiso   1.00
O322   O     0.50000   0.56012   0.20628   0.00000  Uiso   1.00
O323   O     0.42495   0.50000   0.19712   0.00000  Uiso   1.00
O324   O     0.57505   0.50000   0.13621   0.00000  Uiso   1.00
O325   O     0.42494   0.49999   0.11793   0.00000  Uiso   1.00
O326   O     0.57506   0.50001   0.21540   0.00000  Uiso   1.00
C327   C     0.40011   0.37566   0.16478   0.00000  Uiso   1.00
C328   C     0.37698   0.38729   0.11671   0.00000  Uiso   1.00
H329   H     0.34046   0.40293   0.11736   0.00000  Uiso   1.00
H330   H     0.40341   0.40999   0.10591   0.00000  Uiso   1.00
H331   H     0.37078   0.35994   0.09199   0.00000  Uiso   1.00
H332   H     0.40680   0.40435   0.18689   0.00000  Uiso   1.00
H333   H     0.37202   0.35732   0.18019   0.00000  Uiso   1.00
C334   C     0.59277   0.63180   0.20264   0.00000  Uiso   1.00
C335   C     0.59569   0.64554   0.25425   0.00000  Uiso   1.00
H336   H     0.56132   0.63411   0.26805   0.00000  Uiso   1.00
H337   H     0.63094   0.63409   0.27464   0.00000  Uiso   1.00
H338   H     0.59570   0.34596   0.25994   0.00000  Uiso   1.00
H339   H     0.59381   0.59786   0.19873   0.00000  Uiso   1.00
H340   H     0.62743   0.64304   0.18961   0.00000  Uiso   1.00
C341   C     0.40147   0.61684   0.15998   0.00000  Uiso   1.00
C342   C     0.38942   0.60716   0.20816   0.00000  Uiso   1.00
H343   H     0.35405   0.58751   0.20440   0.00000  Uiso   1.00
H344   H     0.42074   0.59037   0.22786   0.00000  Uiso   1.00
H345   H     0.38375   0.63581   0.22874   0.00000  Uiso   1.00
H346   H     0.36847   0.63171   0.14009   0.00000  Uiso   1.00
H347   H     0.40452   0.58765   0.13944   0.00000  Uiso   1.00
C348   C     0.59098   0.37939   0.15706   0.00000  Uiso   1.00
C349   C     0.62083   0.40156   0.20063   0.00000  Uiso   1.00
H350   H     0.64756   0.42455   0.19006   0.00000  Uiso   1.00
H351   H     0.59512   0.41727   0.22212   0.00000  Uiso   1.00
H352   H     0.64489   0.38027   0.22200   0.00000  Uiso   1.00
H353   H     0.61584   0.35800   0.14075   0.00000  Uiso   1.00
H354   H     0.58093   0.40210   0.13029   0.00000  Uiso   1.00
C355   C     0.43673   0.44225   0.03581   0.00000  Uiso   1.00
O356   O     0.39156   0.44828   0.03754   0.00000  Uiso   1.00
O357   O     0.45644   0.40300   0.04083   0.00000  Uiso   1.00
H358   H     0.42902   0.38076   0.04103   0.00000  Uiso   1.00
C359   C     0.58324   0.53857   0.30092   0.00000  Uiso   1.00
O360   O     0.58108   0.56344   0.27121   0.00000  Uiso   1.00
O361   O     0.63073   0.52542   0.32191   0.00000  Uiso   1.00
H362   H     0.66046   0.53871   0.30912   0.00000  Uiso   1.00
C363   C     0.43458   0.44310   0.27386   0.00000  Uiso   1.00
O364   O     0.39067   0.45055   0.25771   0.00000  Uiso   1.00
O365   O     0.45143   0.40274   0.27265   0.00000  Uiso   1.00
H366   H     0.42283   0.38178   0.26101   0.00000  Uiso   1.00
C367   C     0.56269   0.55908   0.05907   0.00000  Uiso   1.00
O368   O     0.54505   0.59340   0.06009   0.00000  Uiso   1.00
O369   O     0.61248   0.55299   0.08074   0.00000  Uiso   1.00
H370   H     0.62901   0.57873   0.09834   0.00000  Uiso   1.00
C371   C     0.83066   0.42097   0.16532   0.00000  Uiso   1.00
C372   C     0.83367   0.57913   0.16777   0.00000  Uiso   1.00
C373   C     0.73474   0.49978   0.15460   0.00000  Uiso   1.00
C374   C     0.93193   0.50123   0.17877   0.00000  Uiso   1.00
C375   C     0.67928   0.49847   0.14833   0.00000  Uiso   1.00
C376   C     0.98744   0.50406   0.18498   0.00000  Uiso   1.00
C377   C     0.78313   0.35334   0.16388   0.00000  Uiso   1.00
C378   C     0.87789   0.64785   0.17572   0.00000  Uiso   1.00
C379   C     0.78398   0.64314   0.16377   0.00000  Uiso   1.00
C380   C     0.87642   0.35634   0.16624   0.00000  Uiso   1.00
C381   C     0.83182   0.62407   0.16973   0.00000  Uiso   1.00
C382   C     0.82952   0.37606   0.16327   0.00000  Uiso   1.00
C383   C     0.80152   0.47397   0.01878   0.00000  Uiso   1.00
C384   C     0.86939   0.52235   0.31529   0.00000  Uiso   1.00
C385   C     0.80036   0.47473   0.30290   0.00000  Uiso   1.00
C386   C     0.86621   0.52539   0.03051   0.00000  Uiso   1.00
Cu387  Cu    0.83333   0.50001   0.21355   0.00000  Uiso   1.00
Cu388  Cu    0.83333   0.49999   0.11978   0.00000  Uiso   1.00
H389   H     0.99242   0.49149   0.11342   0.00000  Uiso   1.00
H390   H     0.67434   0.51058   0.21997   0.00000  Uiso   1.00
N391   N     0.83335   0.50001   0.28403   0.00000  Uiso   1.00
N392   N     0.83332   0.49999   0.04931   0.00000  Uiso   1.00
O393   O     0.83333   0.43989   0.20625   0.00000  Uiso   1.00
O394   O     0.83334   0.56011   0.12709   0.00000  Uiso   1.00
O395   O     0.83333   0.43988   0.12706   0.00000  Uiso   1.00
O396   O     0.83334   0.56012   0.20628   0.00000  Uiso   1.00
O397   O     0.75828   0.50000   0.19712   0.00000  Uiso   1.00
O398   O     0.90839   0.50000   0.13621   0.00000  Uiso   1.00
O399   O     0.75828   0.49999   0.11793   0.00000  Uiso   1.00
O400   O     0.90839   0.50001   0.21540   0.00000  Uiso   1.00
C401   C     0.73345   0.37566   0.16478   0.00000  Uiso   1.00
C402   C     0.71031   0.38729   0.11671   0.00000  Uiso   1.00
H403   H     0.67379   0.40293   0.11736   0.00000  Uiso   1.00
H404   H     0.73675   0.40999   0.10591   0.00000  Uiso   1.00
H405   H     0.70411   0.35994   0.09199   0.00000  Uiso   1.00
H406   H     0.74013   0.40435   0.18689   0.00000  Uiso   1.00
H407   H     0.70535   0.35732   0.18019   0.00000  Uiso   1.00
C408   C     0.92611   0.63180   0.20264   0.00000  Uiso   1.00
C409   C     0.92903   0.64554   0.25425   0.00000  Uiso   1.00
H410   H     0.89465   0.63411   0.26805   0.00000  Uiso   1.00
H411   H     0.96427   0.63409   0.27464   0.00000  Uiso   1.00
H412   H     0.92903   0.34596   0.25994   0.00000  Uiso   1.00
H413   H     0.92715   0.59786   0.19873   0.00000  Uiso   1.00
H414   H     0.96077   0.64304   0.18961   0.00000  Uiso   1.00
C415   C     0.73480   0.61684   0.15998   0.00000  Uiso   1.00
C416   C     0.72275   0.60716   0.20816   0.00000  Uiso   1.00
H417   H     0.68739   0.58751   0.20440   0.00000  Uiso   1.00
H418   H     0.75407   0.59037   0.22786   0.00000  Uiso   1.00
H419   H     0.71708   0.63581   0.22874   0.00000  Uiso   1.00
H420   H     0.70180   0.63171   0.14009   0.00000  Uiso   1.00
H421   H     0.73785   0.58765   0.13944   0.00000  Uiso   1.00
C422   C     0.92431   0.37939   0.15706   0.00000  Uiso   1.00
C423   C     0.95417   0.40156   0.20063   0.00000  Uiso   1.00
H424   H     0.98089   0.42455   0.19006   0.00000  Uiso   1.00
H425   H     0.92846   0.41727   0.22212   0.00000  Uiso   1.00
H426   H     0.97823   0.38027   0.22200   0.00000  Uiso   1.00
H427   H     0.94918   0.35800   0.14075   0.00000  Uiso   1.00
H428   H     0.91427   0.40210   0.13029   0.00000  Uiso   1.00
C429   C     0.77006   0.44225   0.03581   0.00000  Uiso   1.00
O430   O     0.72489   0.44828   0.03754   0.00000  Uiso   1.00
O431   O     0.78977   0.40300   0.04083   0.00000  Uiso   1.00
H432   H     0.76236   0.38076   0.04103   0.00000  Uiso   1.00
C433   C     0.91657   0.53857   0.30092   0.00000  Uiso   1.00
O434   O     0.91441   0.56344   0.27121   0.00000  Uiso   1.00
O435   O     0.96407   0.52542   0.32191   0.00000  Uiso   1.00
H436   H     0.99379   0.53871   0.30912   0.00000  Uiso   1.00
C437   C     0.76792   0.44310   0.27386   0.00000  Uiso   1.00
O438   O     0.72401   0.45055   0.25771   0.00000  Uiso   1.00
O439   O     0.78476   0.40274   0.27265   0.00000  Uiso   1.00
H440   H     0.75617   0.38178   0.26101   0.00000  Uiso   1.00
C441   C     0.89603   0.55908   0.05907   0.00000  Uiso   1.00
O442   O     0.87839   0.59340   0.06009   0.00000  Uiso   1.00
O443   O     0.94581   0.55299   0.08074   0.00000  Uiso   1.00
H444   H     0.96234   0.57873   0.09834   0.00000  Uiso   1.00
C445   C     0.16399   0.75430   0.16532   0.00000  Uiso   1.00
C446   C     0.16700   0.91247   0.16777   0.00000  Uiso   1.00
C447   C     0.06808   0.83311   0.15460   0.00000  Uiso   1.00
C448   C     0.26527   0.83457   0.17877   0.00000  Uiso   1.00
C449   C     0.01262   0.83180   0.14833   0.00000  Uiso   1.00
C450   C     0.32077   0.83740   0.18498   0.00000  Uiso   1.00
C451   C     0.11646   0.68667   0.16388   0.00000  Uiso   1.00
C452   C     0.21122   0.98119   0.17572   0.00000  Uiso   1.00
C453   C     0.11732   0.97647   0.16377   0.00000  Uiso   1.00
C454   C     0.20976   0.68967   0.16624   0.00000  Uiso   1.00
C455   C     0.16515   0.95741   0.16973   0.00000  Uiso   1.00
C456   C     0.16285   0.70939   0.16327   0.00000  Uiso   1.00
C457   C     0.13485   0.80730   0.01878   0.00000  Uiso   1.00
C458   C     0.20272   0.85569   0.31529   0.00000  Uiso   1.00
C459   C     0.13369   0.80807   0.30290   0.00000  Uiso   1.00
C460   C     0.19954   0.85872   0.03051   0.00000  Uiso   1.00
Cu461  Cu    0.16667   0.83334   0.21355   0.00000  Uiso   1.00
Cu462  Cu    0.16667   0.83333   0.11978   0.00000  Uiso   1.00
H463   H     0.32575   0.82483   0.11342   0.00000  Uiso   1.00
H464   H     0.00767   0.84391   0.21997   0.00000  Uiso   1.00
N465   N     0.16668   0.83334   0.28403   0.00000  Uiso   1.00
N466   N     0.16665   0.83332   0.04931   0.00000  Uiso   1.00
O467   O     0.16666   0.77322   0.20625   0.00000  Uiso   1.00
O468   O     0.16667   0.89345   0.12709   0.00000  Uiso   1.00
O469   O     0.16666   0.77321   0.12706   0.00000  Uiso   1.00
O470   O     0.16667   0.89346   0.20628   0.00000  Uiso   1.00
O471   O     0.09161   0.83334   0.19712   0.00000  Uiso   1.00
O472   O     0.24172   0.83333   0.13621   0.00000  Uiso   1.00
O473   O     0.09161   0.83333   0.11793   0.00000  Uiso   1.00
O474   O     0.24172   0.83334   0.21540   0.00000  Uiso   1.00
C475   C     0.06678   0.70900   0.16478   0.00000  Uiso   1.00
C476   C     0.04365   0.72063   0.11671   0.00000  Uiso   1.00
H477   H     0.00713   0.73627   0.11736   0.00000  Uiso   1.00
H478   H     0.07008   0.74332   0.10591   0.00000  Uiso   1.00
H479   H     0.03745   0.69327   0.09199   0.00000  Uiso   1.00
H480   H     0.07347   0.73769   0.18689   0.00000  Uiso   1.00
H481   H     0.03869   0.69065   0.18019   0.00000  Uiso   1.00
C482   C     0.25944   0.96514   0.20264   0.00000  Uiso   1.00
C483   C     0.26236   0.97888   0.25425   0.00000  Uiso   1.00
H484   H     0.22799   0.96744   0.26805   0.00000  Uiso   1.00
H485   H     0.29760   0.96742   0.27464   0.00000  Uiso   1.00
H486   H     0.26237   0.67930   0.25994   0.00000  Uiso   1.00
H487   H     0.26048   0.93119   0.19873   0.00000  Uiso   1.00
H488   H     0.29410   0.97637   0.18961   0.00000  Uiso   1.00
C489   C     0.06814   0.95017   0.15998   0.00000  Uiso   1.00
C490   C     0.05608   0.94049   0.20816   0.00000  Uiso   1.00
H491   H     0.02072   0.92084   0.20440   0.00000  Uiso   1.00
H492   H     0.08740   0.92370   0.22786   0.00000  Uiso   1.00
H493   H     0.05041   0.96915   0.22874   0.00000  Uiso   1.00
H494   H     0.03513   0.96504   0.14009   0.00000  Uiso   1.00
H495   H     0.07118   0.92098   0.13944   0.00000  Uiso   1.00
C496   C     0.25765   0.71272   0.15706   0.00000  Uiso   1.00
C497   C     0.28750   0.73490   0.20063   0.00000  Uiso   1.00
H498   H     0.31423   0.75788   0.19006   0.00000  Uiso   1.00
H499   H     0.26179   0.75061   0.22212   0.00000  Uiso   1.00
H500   H     0.31156   0.71360   0.22200   0.00000  Uiso   1.00
H501   H     0.28251   0.69133   0.14075   0.00000  Uiso   1.00
H502   H     0.24760   0.73544   0.13029   0.00000  Uiso   1.00
C503   C     0.10339   0.77559   0.03581   0.00000  Uiso   1.00
O504   O     0.05822   0.78161   0.03754   0.00000  Uiso   1.00
O505   O     0.12311   0.73633   0.04083   0.00000  Uiso   1.00
H506   H     0.09569   0.71409   0.04103   0.00000  Uiso   1.00
C507   C     0.24990   0.87190   0.30092   0.00000  Uiso   1.00
O508   O     0.24775   0.89678   0.27121   0.00000  Uiso   1.00
O509   O     0.29740   0.85876   0.32191   0.00000  Uiso   1.00
H510   H     0.32713   0.87204   0.30912   0.00000  Uiso   1.00
C511   C     0.10125   0.77643   0.27386   0.00000  Uiso   1.00
O512   O     0.05734   0.78389   0.25771   0.00000  Uiso   1.00
O513   O     0.11810   0.73608   0.27265   0.00000  Uiso   1.00
H514   H     0.08950   0.71511   0.26101   0.00000  Uiso   1.00
C515   C     0.22936   0.89241   0.05907   0.00000  Uiso   1.00
O516   O     0.21172   0.92673   0.06009   0.00000  Uiso   1.00
O517   O     0.27914   0.88632   0.08074   0.00000  Uiso   1.00
H518   H     0.29567   0.91207   0.09834   0.00000  Uiso   1.00
C519   C     0.49733   0.75430   0.16532   0.00000  Uiso   1.00
C520   C     0.50034   0.91247   0.16777   0.00000  Uiso   1.00
C521   C     0.40141   0.83311   0.15460   0.00000  Uiso   1.00
C522   C     0.59860   0.83457   0.17877   0.00000  Uiso   1.00
C523   C     0.34595   0.83180   0.14833   0.00000  Uiso   1.00
C524   C     0.65411   0.83740   0.18498   0.00000  Uiso   1.00
C525   C     0.44980   0.68667   0.16388   0.00000  Uiso   1.00
C526   C     0.54456   0.98119   0.17572   0.00000  Uiso   1.00
C527   C     0.45065   0.97647   0.16377   0.00000  Uiso   1.00
C528   C     0.54309   0.68967   0.16624   0.00000  Uiso   1.00
C529   C     0.49848   0.95741   0.16973   0.00000  Uiso   1.00
C530   C     0.49619   0.70939   0.16327   0.00000  Uiso   1.00
C531   C     0.46818   0.80730   0.01878   0.00000  Uiso   1.00
C532   C     0.53605   0.85569   0.31529   0.00000  Uiso   1.00
C533   C     0.46703   0.80807   0.30290   0.00000  Uiso   1.00
C534   C     0.53287   0.85872   0.03051   0.00000  Uiso   1.00
Cu535  Cu    0.50000   0.83334   0.21355   0.00000  Uiso   1.00
Cu536  Cu    0.50000   0.83333   0.11978   0.00000  Uiso   1.00
H537   H     0.65909   0.82483   0.11342   0.00000  Uiso   1.00
H538   H     0.34100   0.84391   0.21997   0.00000  Uiso   1.00
N539   N     0.50001   0.83334   0.28403   0.00000  Uiso   1.00
N540   N     0.49999   0.83332   0.04931   0.00000  Uiso   1.00
O541   O     0.50000   0.77322   0.20625   0.00000  Uiso   1.00
O542   O     0.50000   0.89345   0.12709   0.00000  Uiso   1.00
O543   O     0.50000   0.77321   0.12706   0.00000  Uiso   1.00
O544   O     0.50000   0.89346   0.20628   0.00000  Uiso   1.00
O545   O     0.42495   0.83334   0.19712   0.00000  Uiso   1.00
O546   O     0.57505   0.83333   0.13621   0.00000  Uiso   1.00
O547   O     0.42494   0.83333   0.11793   0.00000  Uiso   1.00
O548   O     0.57506   0.83334   0.21540   0.00000  Uiso   1.00
C549   C     0.40011   0.70900   0.16478   0.00000  Uiso   1.00
C550   C     0.37698   0.72063   0.11671   0.00000  Uiso   1.00
H551   H     0.34046   0.73627   0.11736   0.00000  Uiso   1.00
H552   H     0.40341   0.74332   0.10591   0.00000  Uiso   1.00
H553   H     0.37078   0.69327   0.09199   0.00000  Uiso   1.00
H554   H     0.40680   0.73769   0.18689   0.00000  Uiso   1.00
H555   H     0.37202   0.69065   0.18019   0.00000  Uiso   1.00
C556   C     0.59277   0.96514   0.20264   0.00000  Uiso   1.00
C557   C     0.59569   0.97888   0.25425   0.00000  Uiso   1.00
H558   H     0.56132   0.96744   0.26805   0.00000  Uiso   1.00
H559   H     0.63094   0.96742   0.27464   0.00000  Uiso   1.00
H560   H     0.59570   0.67930   0.25994   0.00000  Uiso   1.00
H561   H     0.59381   0.93119   0.19873   0.00000  Uiso   1.00
H562   H     0.62743   0.97637   0.18961   0.00000  Uiso   1.00
C563   C     0.40147   0.95017   0.15998   0.00000  Uiso   1.00
C564   C     0.38942   0.94049   0.20816   0.00000  Uiso   1.00
H565   H     0.35405   0.92084   0.20440   0.00000  Uiso   1.00
H566   H     0.42074   0.92370   0.22786   0.00000  Uiso   1.00
H567   H     0.38375   0.96915   0.22874   0.00000  Uiso   1.00
H568   H     0.36847   0.96504   0.14009   0.00000  Uiso   1.00
H569   H     0.40452   0.92098   0.13944   0.00000  Uiso   1.00
C570   C     0.59098   0.71272   0.15706   0.00000  Uiso   1.00
C571   C     0.62083   0.73490   0.20063   0.00000  Uiso   1.00
H572   H     0.64756   0.75788   0.19006   0.00000  Uiso   1.00
H573   H     0.59512   0.75061   0.22212   0.00000  Uiso   1.00
H574   H     0.64489   0.71360   0.22200   0.00000  Uiso   1.00
H575   H     0.61584   0.69133   0.14075   0.00000  Uiso   1.00
H576   H     0.58093   0.73544   0.13029   0.00000  Uiso   1.00
C577   C     0.43673   0.77559   0.03581   0.00000  Uiso   1.00
O578   O     0.39156   0.78161   0.03754   0.00000  Uiso   1.00
O579   O     0.45644   0.73633   0.04083   0.00000  Uiso   1.00
H580   H     0.42902   0.71409   0.04103   0.00000  Uiso   1.00
C581   C     0.58324   0.87190   0.30092   0.00000  Uiso   1.00
O582   O     0.58108   0.89678   0.27121   0.00000  Uiso   1.00
O583   O     0.63073   0.85876   0.32191   0.00000  Uiso   1.00
H584   H     0.66046   0.87204   0.30912   0.00000  Uiso   1.00
C585   C     0.43458   0.77643   0.27386   0.00000  Uiso   1.00
O586   O     0.39067   0.78389   0.25771   0.00000  Uiso   1.00
O587   O     0.45143   0.73608   0.27265   0.00000  Uiso   1.00
H588   H     0.42283   0.71511   0.26101   0.00000  Uiso   1.00
C589   C     0.56269   0.89241   0.05907   0.00000  Uiso   1.00
O590   O     0.54505   0.92673   0.06009   0.00000  Uiso   1.00
O591   O     0.61248   0.88632   0.08074   0.00000  Uiso   1.00
H592   H     0.62901   0.91207   0.09834   0.00000  Uiso   1.00
C593   C     0.83066   0.75430   0.16532   0.00000  Uiso   1.00
C594   C     0.83367   0.91247   0.16777   0.00000  Uiso   1.00
C595   C     0.73474   0.83311   0.15460   0.00000  Uiso   1.00
C596   C     0.93193   0.83457   0.17877   0.00000  Uiso   1.00
C597   C     0.67928   0.83180   0.14833   0.00000  Uiso   1.00
C598   C     0.98744   0.83740   0.18498   0.00000  Uiso   1.00
C599   C     0.78313   0.68667   0.16388   0.00000  Uiso   1.00
C600   C     0.87789   0.98119   0.17572   0.00000  Uiso   1.00
C601   C     0.78398   0.97647   0.16377   0.00000  Uiso   1.00
C602   C     0.87642   0.68967   0.16624   0.00000  Uiso   1.00
C603   C     0.83182   0.95741   0.16973   0.00000  Uiso   1.00
C604   C     0.82952   0.70939   0.16327   0.00000  Uiso   1.00
C605   C     0.80152   0.80730   0.01878   0.00000  Uiso   1.00
C606   C     0.86939   0.85569   0.31529   0.00000  Uiso   1.00
C607   C     0.80036   0.80807   0.30290   0.00000  Uiso   1.00
C608   C     0.86621   0.85872   0.03051   0.00000  Uiso   1.00
Cu609  Cu    0.83333   0.83334   0.21355   0.00000  Uiso   1.00
Cu610  Cu    0.83333   0.83333   0.11978   0.00000  Uiso   1.00
H611   H     0.99242   0.82483   0.11342   0.00000  Uiso   1.00
H612   H     0.67434   0.84391   0.21997   0.00000  Uiso   1.00
N613   N     0.83335   0.83334   0.28403   0.00000  Uiso   1.00
N614   N     0.83332   0.83332   0.04931   0.00000  Uiso   1.00
O615   O     0.83333   0.77322   0.20625   0.00000  Uiso   1.00
O616   O     0.83334   0.89345   0.12709   0.00000  Uiso   1.00
O617   O     0.83333   0.77321   0.12706   0.00000  Uiso   1.00
O618   O     0.83334   0.89346   0.20628   0.00000  Uiso   1.00
O619   O     0.75828   0.83334   0.19712   0.00000  Uiso   1.00
O620   O     0.90839   0.83333   0.13621   0.00000  Uiso   1.00
O621   O     0.75828   0.83333   0.11793   0.00000  Uiso   1.00
O622   O     0.90839   0.83334   0.21540   0.00000  Uiso   1.00
C623   C     0.73345   0.70900   0.16478   0.00000  Uiso   1.00
C624   C     0.71031   0.72063   0.11671   0.00000  Uiso   1.00
H625   H     0.67379   0.73627   0.11736   0.00000  Uiso   1.00
H626   H     0.73675   0.74332   0.10591   0.00000  Uiso   1.00
H627   H     0.70411   0.69327   0.09199   0.00000  Uiso   1.00
H628   H     0.74013   0.73769   0.18689   0.00000  Uiso   1.00
H629   H     0.70535   0.69065   0.18019   0.00000  Uiso   1.00
C630   C     0.92611   0.96514   0.20264   0.00000  Uiso   1.00
C631   C     0.92903   0.97888   0.25425   0.00000  Uiso   1.00
H632   H     0.89465   0.96744   0.26805   0.00000  Uiso   1.00
H633   H     0.96427   0.96742   0.27464   0.00000  Uiso   1.00
H634   H     0.92903   0.67930   0.25994   0.00000  Uiso   1.00
H635   H     0.92715   0.93119   0.19873   0.00000  Uiso   1.00
H636   H     0.96077   0.97637   0.18961   0.00000  Uiso   1.00
C637   C     0.73480   0.95017   0.15998   0.00000  Uiso   1.00
C638   C     0.72275   0.94049   0.20816   0.00000  Uiso   1.00
H639   H     0.68739   0.92084   0.20440   0.00000  Uiso   1.00
H640   H     0.75407   0.92370   0.22786   0.00000  Uiso   1.00
H641   H     0.71708   0.96915   0.22874   0.00000  Uiso   1.00
H642   H     0.70180   0.96504   0.14009   0.00000  Uiso   1.00
H643   H     0.73785   0.92098   0.13944   0.00000  Uiso   1.00
C644   C     0.92431   0.71272   0.15706   0.00000  Uiso   1.00
C645   C     0.95417   0.73490   0.20063   0.00000  Uiso   1.00
H646   H     0.98089   0.75788   0.19006   0.00000  Uiso   1.00
H647   H     0.92846   0.75061   0.22212   0.00000  Uiso   1.00
H648   H     0.97823   0.71360   0.22200   0.00000  Uiso   1.00
H649   H     0.94918   0.69133   0.14075   0.00000  Uiso   1.00
H650   H     0.91427   0.73544   0.13029   0.00000  Uiso   1.00
C651   C     0.77006   0.77559   0.03581   0.00000  Uiso   1.00
O652   O     0.72489   0.78161   0.03754   0.00000  Uiso   1.00
O653   O     0.78977   0.73633   0.04083   0.00000  Uiso   1.00
H654   H     0.76236   0.71409   0.04103   0.00000  Uiso   1.00
C655   C     0.91657   0.87190   0.30092   0.00000  Uiso   1.00
O656   O     0.91441   0.89678   0.27121   0.00000  Uiso   1.00
O657   O     0.96407   0.85876   0.32191   0.00000  Uiso   1.00
H658   H     0.99379   0.87204   0.30912   0.00000  Uiso   1.00
C659   C     0.76792   0.77643   0.27386   0.00000  Uiso   1.00
O660   O     0.72401   0.78389   0.25771   0.00000  Uiso   1.00
O661   O     0.78476   0.73608   0.27265   0.00000  Uiso   1.00
H662   H     0.75617   0.71511   0.26101   0.00000  Uiso   1.00
C663   C     0.89603   0.89241   0.05907   0.00000  Uiso   1.00
O664   O     0.87839   0.92673   0.06009   0.00000  Uiso   1.00
O665   O     0.94581   0.88632   0.08074   0.00000  Uiso   1.00
H666   H     0.96234   0.91207   0.09834   0.00000  Uiso   1.00
C667   C     0.16399   0.08764   0.49866   0.00000  Uiso   1.00
C668   C     0.16700   0.24580   0.50110   0.00000  Uiso   1.00
C669   C     0.06808   0.16645   0.48793   0.00000  Uiso   1.00
C670   C     0.26527   0.16790   0.51210   0.00000  Uiso   1.00
C671   C     0.01262   0.16514   0.48166   0.00000  Uiso   1.00
C672   C     0.32077   0.17073   0.51832   0.00000  Uiso   1.00
C673   C     0.11646   0.02001   0.49721   0.00000  Uiso   1.00
C674   C     0.21122   0.31452   0.50905   0.00000  Uiso   1.00
C675   C     0.11732   0.30981   0.49710   0.00000  Uiso   1.00
C676   C     0.20976   0.02301   0.49957   0.00000  Uiso   1.00
C677   C     0.16515   0.29074   0.50307   0.00000  Uiso   1.00
C678   C     0.16285   0.04272   0.49660   0.00000  Uiso   1.00
C679   C     0.13485   0.14063   0.35212   0.00000  Uiso   1.00
C680   C     0.20272   0.18902   0.64862   0.00000  Uiso   1.00
C681   C     0.13369   0.14140   0.63624   0.00000  Uiso   1.00
C682   C     0.19954   0.19206   0.36384   0.00000  Uiso   1.00
Cu683  Cu    0.16667   0.16667   0.54689   0.00000  Uiso   1.00
Cu684  Cu    0.16667   0.16666   0.45311   0.00000  Uiso   1.00
H685   H     0.32575   0.15816   0.44676   0.00000  Uiso   1.00
H686   H     0.00767   0.17724   0.55330   0.00000  Uiso   1.00
N687   N     0.16668   0.16668   0.61736   0.00000  Uiso   1.00
N688   N     0.16665   0.16666   0.38264   0.00000  Uiso   1.00
O689   O     0.16666   0.10655   0.53958   0.00000  Uiso   1.00
O690   O     0.16667   0.22678   0.46042   0.00000  Uiso   1.00
O691   O     0.16666   0.10654   0.46039   0.00000  Uiso   1.00
O692   O     0.16667   0.22679   0.53961   0.00000  Uiso   1.00
O693   O     0.09161   0.16667   0.53046   0.00000  Uiso   1.00
O694   O     0.24172   0.16666   0.46954   0.00000  Uiso   1.00
O695   O     0.09161   0.16666   0.45127   0.00000  Uiso   1.00
O696   O     0.24172   0.16667   0.54873   0.00000  Uiso   1.00
C697   C     0.06678   0.04233   0.49812   0.00000  Uiso   1.00
C698   C     0.04365   0.05396   0.45005   0.00000  Uiso   1.00
H699   H     0.00713   0.06960   0.45069   0.00000  Uiso   1.00
H700   H     0.07008   0.07665   0.43924   0.00000  Uiso   1.00
H701   H     0.03745   0.02661   0.42533   0.00000  Uiso   1.00
H702   H     0.07347   0.07102   0.52023   0.00000  Uiso   1.00
H703   H     0.03869   0.02398   0.51352   0.00000  Uiso   1.00
C704   C     0.25944   0.29847   0.53597   0.00000  Uiso   1.00
C705   C     0.26236   0.31221   0.58759   0.00000  Uiso   1.00
H706   H     0.22799   0.30077   0.60139   0.00000  Uiso   1.00
H707   H     0.29760   0.30076   0.60797   0.00000  Uiso   1.00
H708   H     0.26237   0.01263   0.59327   0.00000  Uiso   1.00
H709   H     0.26048   0.26453   0.53206   0.00000  Uiso   1.00
H710   H     0.29410   0.30970   0.52294   0.00000  Uiso   1.00
C711   C     0.06814   0.28351   0.49331   0.00000  Uiso   1.00
C712   C     0.05608   0.27383   0.54149   0.00000  Uiso   1.00
H713   H     0.02072   0.25417   0.53773   0.00000  Uiso   1.00
H714   H     0.08740   0.25703   0.56120   0.00000  Uiso   1.00
H715   H     0.05041   0.30248   0.56207   0.00000  Uiso   1.00
H716   H     0.03513   0.29838   0.47343   0.00000  Uiso   1.00
H717   H     0.07118   0.25432   0.47277   0.00000  Uiso   1.00
C718   C     0.25765   0.04605   0.49040   0.00000  Uiso   1.00
C719   C     0.28750   0.06823   0.53397   0.00000  Uiso   1.00
H720   H     0.31423   0.09122   0.52340   0.00000  Uiso   1.00
H721   H     0.26179   0.08394   0.55545   0.00000  Uiso   1.00
H722   H     0.31156   0.04694   0.55534   0.00000  Uiso   1.00
H723   H     0.28251   0.02467   0.47409   0.00000  Uiso   1.00
H724   H     0.24760   0.06877   0.46362   0.00000  Uiso   1.00
C725   C     0.10339   0.10892   0.36914   0.00000  Uiso   1.00
O726   O     0.05822   0.11495   0.37087   0.00000  Uiso   1.00
O727   O     0.12311   0.06966   0.37416   0.00000  Uiso   1.00
H728   H     0.09569   0.04743   0.37436   0.00000  Uiso   1.00
C729   C     0.24990   0.20523   0.63425   0.00000  Uiso   1.00
O730   O     0.24775   0.23011   0.60454   0.00000  Uiso   1.00
O731   O     0.29740   0.19209   0.65524   0.00000  Uiso   1.00
H732   H     0.32713   0.20538   0.64245   0.00000  Uiso   1.00
C733   C     0.10125   0.10976   0.60719   0.00000  Uiso   1.00
O734   O     0.05734   0.11722   0.59105   0.00000  Uiso   1.00
O735   O     0.11810   0.06941   0.60598   0.00000  Uiso   1.00
H736   H     0.08950   0.04845   0.59435   0.00000  Uiso   1.00
C737   C     0.22936   0.22574   0.39240   0.00000  Uiso   1.00
O738   O     0.21172   0.26007   0.39342   0.00000  Uiso   1.00
O739   O     0.27914   0.21966   0.41407   0.00000  Uiso   1.00
H740   H     0.29567   0.24540   0.43168   0.00000  Uiso   1.00
C741   C     0.49733   0.08764   0.49866   0.00000  Uiso   1.00
C742   C     0.50034   0.24580   0.50110   0.00000  Uiso   1.00
C743   C     0.40141   0.16645   0.48793   0.00000  Uiso   1.00
C744   C     0.59860   0.16790   0.51210   0.00000  Uiso   1.00
C745   C     0.34595   0.16514   0.48166   0.00000  Uiso   1.00
C746   C     0.65411   0.17073   0.51832   0.00000  Uiso   1.00
C747   C     0.44980   0.02001   0.49721   0.00000  Uiso   1.00
C748   C     0.54456   0.31452   0.50905   0.00000  Uiso   1.00
C749   C     0.45065   0.30981   0.49710   0.00000  Uiso   1.00
C750   C     0.54309   0.02301   0.49957   0.00000  Uiso   1.00
C751   C     0.49848   0.29074   0.50307   0.00000  Uiso   1.00
C752   C     0.49619   0.04272   0.49660   0.00000  Uiso   1.00
C753   C     0.46818   0.14063   0.35212   0.00000  Uiso   1.00
C754   C     0.53605   0.18902   0.64862   0.00000  Uiso   1.00
C755   C     0.46703   0.14140   0.63624   0.00000  Uiso   1.00
C756   C     0.53287   0.19206   0.36384   0.00000  Uiso   1.00
Cu757  Cu    0.50000   0.16667   0.54689   0.00000  Uiso   1.00
Cu758  Cu    0.50000   0.16666   0.45311   0.00000  Uiso   1.00
H759   H     0.65909   0.15816   0.44676   0.00000  Uiso   1.00
H760   H     0.34100   0.17724   0.55330   0.00000  Uiso   1.00
N761   N     0.50001   0.16668   0.61736   0.00000  Uiso   1.00
N762   N     0.49999   0.16666   0.38264   0.00000  Uiso   1.00
O763   O     0.50000   0.10655   0.53958   0.00000  Uiso   1.00
O764   O     0.50000   0.22678   0.46042   0.00000  Uiso   1.00
O765   O     0.50000   0.10654   0.46039   0.00000  Uiso   1.00
O766   O     0.50000   0.22679   0.53961   0.00000  Uiso   1.00
O767   O     0.42495   0.16667   0.53046   0.00000  Uiso   1.00
O768   O     0.57505   0.16666   0.46954   0.00000  Uiso   1.00
O769   O     0.42494   0.16666   0.45127   0.00000  Uiso   1.00
O770   O     0.57506   0.16667   0.54873   0.00000  Uiso   1.00
C771   C     0.40011   0.04233   0.49812   0.00000  Uiso   1.00
C772   C     0.37698   0.05396   0.45005   0.00000  Uiso   1.00
H773   H     0.34046   0.06960   0.45069   0.00000  Uiso   1.00
H774   H     0.40341   0.07665   0.43924   0.00000  Uiso   1.00
H775   H     0.37078   0.02661   0.42533   0.00000  Uiso   1.00
H776   H     0.40680   0.07102   0.52023   0.00000  Uiso   1.00
H777   H     0.37202   0.02398   0.51352   0.00000  Uiso   1.00
C778   C     0.59277   0.29847   0.53597   0.00000  Uiso   1.00
C779   C     0.59569   0.31221   0.58759   0.00000  Uiso   1.00
H780   H     0.56132   0.30077   0.60139   0.00000  Uiso   1.00
H781   H     0.63094   0.30076   0.60797   0.00000  Uiso   1.00
H782   H     0.59570   0.01263   0.59327   0.00000  Uiso   1.00
H783   H     0.59381   0.26453   0.53206   0.00000  Uiso   1.00
H784   H     0.62743   0.30970   0.52294   0.00000  Uiso   1.00
C785   C     0.40147   0.28351   0.49331   0.00000  Uiso   1.00
C786   C     0.38942   0.27383   0.54149   0.00000  Uiso   1.00
H787   H     0.35405   0.25417   0.53773   0.00000  Uiso   1.00
H788   H     0.42074   0.25703   0.56120   0.00000  Uiso   1.00
H789   H     0.38375   0.30248   0.56207   0.00000  Uiso   1.00
H790   H     0.36847   0.29838   0.47343   0.00000  Uiso   1.00
H791   H     0.40452   0.25432   0.47277   0.00000  Uiso   1.00
C792   C     0.59098   0.04605   0.49040   0.00000  Uiso   1.00
C793   C     0.62083   0.06823   0.53397   0.00000  Uiso   1.00
H794   H     0.64756   0.09122   0.52340   0.00000  Uiso   1.00
H795   H     0.59512   0.08394   0.55545   0.00000  Uiso   1.00
H796   H     0.64489   0.04694   0.55534   0.00000  Uiso   1.00
H797   H     0.61584   0.02467   0.47409   0.00000  Uiso   1.00
H798   H     0.58093   0.06877   0.46362   0.00000  Uiso   1.00
C799   C     0.43673   0.10892   0.36914   0.00000  Uiso   1.00
O800   O     0.39156   0.11495   0.37087   0.00000  Uiso   1.00
O801   O     0.45644   0.06966   0.37416   0.00000  Uiso   1.00
H802   H     0.42902   0.04743   0.37436   0.00000  Uiso   1.00
C803   C     0.58324   0.20523   0.63425   0.00000  Uiso   1.00
O804   O     0.58108   0.23011   0.60454   0.00000  Uiso   1.00
O805   O     0.63073   0.19209   0.65524   0.00000  Uiso   1.00
H806   H     0.66046   0.20538   0.64245   0.00000  Uiso   1.00
C807   C     0.43458   0.10976   0.60719   0.00000  Uiso   1.00
O808   O     0.39067   0.11722   0.59105   0.00000  Uiso   1.00
O809   O     0.45143   0.06941   0.60598   0.00000  Uiso   1.00
H810   H     0.42283   0.04845   0.59435   0.00000  Uiso   1.00
C811   C     0.56269   0.22574   0.39240   0.00000  Uiso   1.00
O812   O     0.54505   0.26007   0.39342   0.00000  Uiso   1.00
O813   O     0.61248   0.21966   0.41407   0.00000  Uiso   1.00
H814   H     0.62901   0.24540   0.43168   0.00000  Uiso   1.00
C815   C     0.83066   0.08764   0.49866   0.00000  Uiso   1.00
C816   C     0.83367   0.24580   0.50110   0.00000  Uiso   1.00
C817   C     0.73474   0.16645   0.48793   0.00000  Uiso   1.00
C818   C     0.93193   0.16790   0.51210   0.00000  Uiso   1.00
C819   C     0.67928   0.16514   0.48166   0.00000  Uiso   1.00
C820   C     0.98744   0.17073   0.51832   0.00000  Uiso   1.00
C821   C     0.78313   0.02001   0.49721   0.00000  Uiso   1.00
C822   C     0.87789   0.31452   0.50905   0.00000  Uiso   1.00
C823   C     0.78398   0.30981   0.49710   0.00000  Uiso   1.00
C824   C     0.87642   0.02301   0.49957   0.00000  Uiso   1.00
C825   C     0.83182   0.29074   0.50307   0.00000  Uiso   1.00
C826   C     0.82952   0.04272   0.49660   0.00000  Uiso   1.00
C827   C     0.80152   0.14063   0.35212   0.00000  Uiso   1.00
C828   C     0.86939   0.18902   0.64862   0.00000  Uiso   1.00
C829   C     0.80036   0.14140   0.63624   0.00000  Uiso   1.00
C830   C     0.86621   0.19206   0.36384   0.00000  Uiso   1.00
Cu831  Cu    0.83333   0.16667   0.54689   0.00000  Uiso   1.00
Cu832  Cu    0.83333   0.16666   0.45311   0.00000  Uiso   1.00
H833   H     0.99242   0.15816   0.44676   0.00000  Uiso   1.00
H834   H     0.67434   0.17724   0.55330   0.00000  Uiso   1.00
N835   N     0.83335   0.16668   0.61736   0.00000  Uiso   1.00
N836   N     0.83332   0.16666   0.38264   0.00000  Uiso   1.00
O837   O     0.83333   0.10655   0.53958   0.00000  Uiso   1.00
O838   O     0.83334   0.22678   0.46042   0.00000  Uiso   1.00
O839   O     0.83333   0.10654   0.46039   0.00000  Uiso   1.00
O840   O     0.83334   0.22679   0.53961   0.00000  Uiso   1.00
O841   O     0.75828   0.16667   0.53046   0.00000  Uiso   1.00
O842   O     0.90839   0.16666   0.46954   0.00000  Uiso   1.00
O843   O     0.75828   0.16666   0.45127   0.00000  Uiso   1.00
O844   O     0.90839   0.16667   0.54873   0.00000  Uiso   1.00
C845   C     0.73345   0.04233   0.49812   0.00000  Uiso   1.00
C846   C     0.71031   0.05396   0.45005   0.00000  Uiso   1.00
H847   H     0.67379   0.06960   0.45069   0.00000  Uiso   1.00
H848   H     0.73675   0.07665   0.43924   0.00000  Uiso   1.00
H849   H     0.70411   0.02661   0.42533   0.00000  Uiso   1.00
H850   H     0.74013   0.07102   0.52023   0.00000  Uiso   1.00
H851   H     0.70535   0.02398   0.51352   0.00000  Uiso   1.00
C852   C     0.92611   0.29847   0.53597   0.00000  Uiso   1.00
C853   C     0.92903   0.31221   0.58759   0.00000  Uiso   1.00
H854   H     0.89465   0.30077   0.60139   0.00000  Uiso   1.00
H855   H     0.96427   0.30076   0.60797   0.00000  Uiso   1.00
H856   H     0.92903   0.01263   0.59327   0.00000  Uiso   1.00
H857   H     0.92715   0.26453   0.53206   0.00000  Uiso   1.00
H858   H     0.96077   0.30970   0.52294   0.00000  Uiso   1.00
C859   C     0.73480   0.28351   0.49331   0.00000  Uiso   1.00
C860   C     0.72275   0.27383   0.54149   0.00000  Uiso   1.00
H861   H     0.68739   0.25417   0.53773   0.00000  Uiso   1.00
H862   H     0.75407   0.25703   0.56120   0.00000  Uiso   1.00
H863   H     0.71708   0.30248   0.56207   0.00000  Uiso   1.00
H864   H     0.70180   0.29838   0.47343   0.00000  Uiso   1.00
H865   H     0.73785   0.25432   0.47277   0.00000  Uiso   1.00
C866   C     0.92431   0.04605   0.49040   0.00000  Uiso   1.00
C867   C     0.95417   0.06823   0.53397   0.00000  Uiso   1.00
H868   H     0.98089   0.09122   0.52340   0.00000  Uiso   1.00
H869   H     0.92846   0.08394   0.55545   0.00000  Uiso   1.00
H870   H     0.97823   0.04694   0.55534   0.00000  Uiso   1.00
H871   H     0.94918   0.02467   0.47409   0.00000  Uiso   1.00
H872   H     0.91427   0.06877   0.46362   0.00000  Uiso   1.00
C873   C     0.77006   0.10892   0.36914   0.00000  Uiso   1.00
O874   O     0.72489   0.11495   0.37087   0.00000  Uiso   1.00
O875   O     0.78977   0.06966   0.37416   0.00000  Uiso   1.00
H876   H     0.76236   0.04743   0.37436   0.00000  Uiso   1.00
C877   C     0.91657   0.20523   0.63425   0.00000  Uiso   1.00
O878   O     0.91441   0.23011   0.60454   0.00000  Uiso   1.00
O879   O     0.96407   0.19209   0.65524   0.00000  Uiso   1.00
H880   H     0.99379   0.20538   0.64245   0.00000  Uiso   1.00
C881   C     0.76792   0.10976   0.60719   0.00000  Uiso   1.00
O882   O     0.72401   0.11722   0.59105   0.00000  Uiso   1.00
O883   O     0.78476   0.06941   0.60598   0.00000  Uiso   1.00
H884   H     0.75617   0.04845   0.59435   0.00000  Uiso   1.00
C885   C     0.89603   0.22574   0.39240   0.00000  Uiso   1.00
O886   O     0.87839   0.26007   0.39342   0.00000  Uiso   1.00
O887   O     0.94581   0.21966   0.41407   0.00000  Uiso   1.00
H888   H     0.96234   0.24540   0.43168   0.00000  Uiso   1.00
C889   C     0.16399   0.42097   0.49866   0.00000  Uiso   1.00
C890   C     0.16700   0.57913   0.50110   0.00000  Uiso   1.00
C891   C     0.06808   0.49978   0.48793   0.00000  Uiso   1.00
C892   C     0.26527   0.50123   0.51210   0.00000  Uiso   1.00
C893   C     0.01262   0.49847   0.48166   0.00000  Uiso   1.00
C894   C     0.32077   0.50406   0.51832   0.00000  Uiso   1.00
C895   C     0.11646   0.35334   0.49721   0.00000  Uiso   1.00
C896   C     0.21122   0.64785   0.50905   0.00000  Uiso   1.00
C897   C     0.11732   0.64314   0.49710   0.00000  Uiso   1.00
C898   C     0.20976   0.35634   0.49957   0.00000  Uiso   1.00
C899   C     0.16515   0.62407   0.50307   0.00000  Uiso   1.00
C900   C     0.16285   0.37606   0.49660   0.00000  Uiso   1.00
C901   C     0.13485   0.47397   0.35212   0.00000  Uiso   1.00
C902   C     0.20272   0.52235   0.64862   0.00000  Uiso   1.00
C903   C     0.13369   0.47473   0.63624   0.00000  Uiso   1.00
C904   C     0.19954   0.52539   0.36384   0.00000  Uiso   1.00
Cu905  Cu    0.16667   0.50001   0.54689   0.00000  Uiso   1.00
Cu906  Cu    0.16667   0.49999   0.45311   0.00000  Uiso   1.00
H907   H     0.32575   0.49149   0.44676   0.00000  Uiso   1.00
H908   H     0.00767   0.51058   0.55330   0.00000  Uiso   1.00
N909   N     0.16668   0.50001   0.61736   0.00000  Uiso   1.00
N910   N     0.16665   0.49999   0.38264   0.00000  Uiso   1.00
O911   O     0.16666   0.43989   0.53958   0.00000  Uiso   1.00
O912   O     0.16667   0.56011   0.46042   0.00000  Uiso   1.00
O913   O     0.16666   0.43988   0.46039   0.00000  Uiso   1.00
O914   O     0.16667   0.56012   0.53961   0.00000  Uiso   1.00
O915   O     0.09161   0.50000   0.53046   0.00000  Uiso   1.00
O916   O     0.24172   0.50000   0.46954   0.00000  Uiso   1.00
O917   O     0.09161   0.49999   0.45127   0.00000  Uiso   1.00
O918   O     0.24172   0.50001   0.54873   0.00000  Uiso   1.00
C919   C     0.06678   0.37566   0.49812   0.00000  Uiso   1.00
C920   C     0.04365   0.38729   0.45005   0.00000  Uiso   1.00
H921   H     0.00713   0.40293   0.45069   0.00000  Uiso   1.00
H922   H     0.07008   0.40999   0.43924   0.00000  Uiso   1.00
H923   H     0.03745   0.35994   0.42533   0.00000  Uiso   1.00
H924   H     0.07347   0.40435   0.52023   0.00000  Uiso   1.00
H925   H     0.03869   0.35732   0.51352   0.00000  Uiso   1.00
C926   C     0.25944   0.63180   0.53597   0.00000  Uiso   1.00
C927   C     0.26236   0.64554   0.58759   0.00000  Uiso   1.00
H928   H     0.22799   0.63411   0.60139   0.00000  Uiso   1.00
H929   H     0.29760   0.63409   0.60797   0.00000  Uiso   1.00
H930   H     0.26237   0.34596   0.59327   0.00000  Uiso   1.00
H931   H     0.26048   0.59786   0.53206   0.00000  Uiso   1.00
H932   H     0.29410   0.64304   0.52294   0.00000  Uiso   1.00
C933   C     0.06814   0.61684   0.49331   0.00000  Uiso   1.00
C934   C     0.05608   0.60716   0.54149   0.00000  Uiso   1.00
H935   H     0.02072   0.58751   0.53773   0.00000  Uiso   1.00
H936   H     0.08740   0.59037   0.56120   0.00000  Uiso   1.00
H937   H     0.05041   0.63581   0.56207   0.00000  Uiso   1.00
H938   H     0.03513   0.63171   0.47343   0.00000  Uiso   1.00
H939   H     0.07118   0.58765   0.47277   0.00000  Uiso   1.00
C940   C     0.25765   0.37939   0.49040   0.00000  Uiso   1.00
C941   C     0.28750   0.40156   0.53397   0.00000  Uiso   1.00
H942   H     0.31423   0.42455   0.52340   0.00000  Uiso   1.00
H943   H     0.26179   0.41727   0.55545   0.00000  Uiso   1.00
H944   H     0.31156   0.38027   0.55534   0.00000  Uiso   1.00
H945   H     0.28251   0.35800   0.47409   0.00000  Uiso   1.00
H946   H     0.24760   0.40210   0.46362   0.00000  Uiso   1.00
C947   C     0.10339   0.44225   0.36914   0.00000  Uiso   1.00
O948   O     0.05822   0.44828   0.37087   0.00000  Uiso   1.00
O949   O     0.12311   0.40300   0.37416   0.00000  Uiso   1.00
H950   H     0.09569   0.38076   0.37436   0.00000  Uiso   1.00
C951   C     0.24990   0.53857   0.63425   0.00000  Uiso   1.00
O952   O     0.24775   0.56344   0.60454   0.00000  Uiso   1.00
O953   O     0.29740   0.52542   0.65524   0.00000  Uiso   1.00
H954   H     0.32713   0.53871   0.64245   0.00000  Uiso   1.00
C955   C     0.10125   0.44310   0.60719   0.00000  Uiso   1.00
O956   O     0.05734   0.45055   0.59105   0.00000  Uiso   1.00
O957   O     0.11810   0.40274   0.60598   0.00000  Uiso   1.00
H958   H     0.08950   0.38178   0.59435   0.00000  Uiso   1.00
C959   C     0.22936   0.55908   0.39240   0.00000  Uiso   1.00
O960   O     0.21172   0.59340   0.39342   0.00000  Uiso   1.00
O961   O     0.27914   0.55299   0.41407   0.00000  Uiso   1.00
H962   H     0.29567   0.57873   0.43168   0.00000  Uiso   1.00
C963   C     0.49733   0.42097   0.49866   0.00000  Uiso   1.00
C964   C     0.50034   0.57913   0.50110   0.00000  Uiso   1.00
C965   C     0.40141   0.49978   0.48793   0.00000  Uiso   1.00
C966   C     0.59860   0.50123   0.51210   0.00000  Uiso   1.00
C967   C     0.34595   0.49847   0.48166   0.00000  Uiso   1.00
C968   C     0.65411   0.50406   0.51832   0.00000  Uiso   1.00
C969   C     0.44980   0.35334   0.49721   0.00000  Uiso   1.00
C970   C     0.54456   0.64785   0.50905   0.00000  Uiso   1.00
C971   C     0.45065   0.64314   0.49710   0.00000  Uiso   1.00
C972   C     0.54309   0.35634   0.49957   0.00000  Uiso   1.00
C973   C     0.49848   0.62407   0.50307   0.00000  Uiso   1.00
C974   C     0.49619   0.37606   0.49660   0.00000  Uiso   1.00
C975   C     0.46818   0.47397   0.35212   0.00000  Uiso   1.00
C976   C     0.53605   0.52235   0.64862   0.00000  Uiso   1.00
C977   C     0.46703   0.47473   0.63624   0.00000  Uiso   1.00
C978   C     0.53287   0.52539   0.36384   0.00000  Uiso   1.00
Cu979  Cu    0.50000   0.50001   0.54689   0.00000  Uiso   1.00
Cu980  Cu    0.50000   0.49999   0.45311   0.00000  Uiso   1.00
H981   H     0.65909   0.49149   0.44676   0.00000  Uiso   1.00
H982   H     0.34100   0.51058   0.55330   0.00000  Uiso   1.00
N983   N     0.50001   0.50001   0.61736   0.00000  Uiso   1.00
N984   N     0.49999   0.49999   0.38264   0.00000  Uiso   1.00
O985   O     0.50000   0.43989   0.53958   0.00000  Uiso   1.00
O986   O     0.50000   0.56011   0.46042   0.00000  Uiso   1.00
O987   O     0.50000   0.43988   0.46039   0.00000  Uiso   1.00
O988   O     0.50000   0.56012   0.53961   0.00000  Uiso   1.00
O989   O     0.42495   0.50000   0.53046   0.00000  Uiso   1.00
O990   O     0.57505   0.50000   0.46954   0.00000  Uiso   1.00
O991   O     0.42494   0.49999   0.45127   0.00000  Uiso   1.00
O992   O     0.57506   0.50001   0.54873   0.00000  Uiso   1.00
C993   C     0.40011   0.37566   0.49812   0.00000  Uiso   1.00
C994   C     0.37698   0.38729   0.45005   0.00000  Uiso   1.00
H995   H     0.34046   0.40293   0.45069   0.00000  Uiso   1.00
H996   H     0.40341   0.40999   0.43924   0.00000  Uiso   1.00
H997   H     0.37078   0.35994   0.42533   0.00000  Uiso   1.00
H998   H     0.40680   0.40435   0.52023   0.00000  Uiso   1.00
H999   H     0.37202   0.35732   0.51352   0.00000  Uiso   1.00
C1000  C     0.59277   0.63180   0.53597   0.00000  Uiso   1.00
C1001  C     0.59569   0.64554   0.58759   0.00000  Uiso   1.00
H1002  H     0.56132   0.63411   0.60139   0.00000  Uiso   1.00
H1003  H     0.63094   0.63409   0.60797   0.00000  Uiso   1.00
H1004  H     0.59570   0.34596   0.59327   0.00000  Uiso   1.00
H1005  H     0.59381   0.59786   0.53206   0.00000  Uiso   1.00
H1006  H     0.62743   0.64304   0.52294   0.00000  Uiso   1.00
C1007  C     0.40147   0.61684   0.49331   0.00000  Uiso   1.00
C1008  C     0.38942   0.60716   0.54149   0.00000  Uiso   1.00
H1009  H     0.35405   0.58751   0.53773   0.00000  Uiso   1.00
H1010  H     0.42074   0.59037   0.56120   0.00000  Uiso   1.00
H1011  H     0.38375   0.63581   0.56207   0.00000  Uiso   1.00
H1012  H     0.36847   0.63171   0.47343   0.00000  Uiso   1.00
H1013  H     0.40452   0.58765   0.47277   0.00000  Uiso   1.00
C1014  C     0.59098   0.37939   0.49040   0.00000  Uiso   1.00
C1015  C     0.62083   0.40156   0.53397   0.00000  Uiso   1.00
H1016  H     0.64756   0.42455   0.52340   0.00000  Uiso   1.00
H1017  H     0.59512   0.41727   0.55545   0.00000  Uiso   1.00
H1018  H     0.64489   0.38027   0.55534   0.00000  Uiso   1.00
H1019  H     0.61584   0.35800   0.47409   0.00000  Uiso   1.00
H1020  H     0.58093   0.40210   0.46362   0.00000  Uiso   1.00
C1021  C     0.43673   0.44225   0.36914   0.00000  Uiso   1.00
O1022  O     0.39156   0.44828   0.37087   0.00000  Uiso   1.00
O1023  O     0.45644   0.40300   0.37416   0.00000  Uiso   1.00
H1024  H     0.42902   0.38076   0.37436   0.00000  Uiso   1.00
C1025  C     0.58324   0.53857   0.63425   0.00000  Uiso   1.00
O1026  O     0.58108   0.56344   0.60454   0.00000  Uiso   1.00
O1027  O     0.63073   0.52542   0.65524   0.00000  Uiso   1.00
H1028  H     0.66046   0.53871   0.64245   0.00000  Uiso   1.00
C1029  C     0.43458   0.44310   0.60719   0.00000  Uiso   1.00
O1030  O     0.39067   0.45055   0.59105   0.00000  Uiso   1.00
O1031  O     0.45143   0.40274   0.60598   0.00000  Uiso   1.00
H1032  H     0.42283   0.38178   0.59435   0.00000  Uiso   1.00
C1033  C     0.56269   0.55908   0.39240   0.00000  Uiso   1.00
O1034  O     0.54505   0.59340   0.39342   0.00000  Uiso   1.00
O1035  O     0.61248   0.55299   0.41407   0.00000  Uiso   1.00
H1036  H     0.62901   0.57873   0.43168   0.00000  Uiso   1.00
C1037  C     0.83066   0.42097   0.49866   0.00000  Uiso   1.00
C1038  C     0.83367   0.57913   0.50110   0.00000  Uiso   1.00
C1039  C     0.73474   0.49978   0.48793   0.00000  Uiso   1.00
C1040  C     0.93193   0.50123   0.51210   0.00000  Uiso   1.00
C1041  C     0.67928   0.49847   0.48166   0.00000  Uiso   1.00
C1042  C     0.98744   0.50406   0.51832   0.00000  Uiso   1.00
C1043  C     0.78313   0.35334   0.49721   0.00000  Uiso   1.00
C1044  C     0.87789   0.64785   0.50905   0.00000  Uiso   1.00
C1045  C     0.78398   0.64314   0.49710   0.00000  Uiso   1.00
C1046  C     0.87642   0.35634   0.49957   0.00000  Uiso   1.00
C1047  C     0.83182   0.62407   0.50307   0.00000  Uiso   1.00
C1048  C     0.82952   0.37606   0.49660   0.00000  Uiso   1.00
C1049  C     0.80152   0.47397   0.35212   0.00000  Uiso   1.00
C1050  C     0.86939   0.52235   0.64862   0.00000  Uiso   1.00
C1051  C     0.80036   0.47473   0.63624   0.00000  Uiso   1.00
C1052  C     0.86621   0.52539   0.36384   0.00000  Uiso   1.00
Cu1053 Cu    0.83333   0.50001   0.54689   0.00000  Uiso   1.00
Cu1054 Cu    0.83333   0.49999   0.45311   0.00000  Uiso   1.00
H1055  H     0.99242   0.49149   0.44676   0.00000  Uiso   1.00
H1056  H     0.67434   0.51058   0.55330   0.00000  Uiso   1.00
N1057  N     0.83335   0.50001   0.61736   0.00000  Uiso   1.00
N1058  N     0.83332   0.49999   0.38264   0.00000  Uiso   1.00
O1059  O     0.83333   0.43989   0.53958   0.00000  Uiso   1.00
O1060  O     0.83334   0.56011   0.46042   0.00000  Uiso   1.00
O1061  O     0.83333   0.43988   0.46039   0.00000  Uiso   1.00
O1062  O     0.83334   0.56012   0.53961   0.00000  Uiso   1.00
O1063  O     0.75828   0.50000   0.53046   0.00000  Uiso   1.00
O1064  O     0.90839   0.50000   0.46954   0.00000  Uiso   1.00
O1065  O     0.75828   0.49999   0.45127   0.00000  Uiso   1.00
O1066  O     0.90839   0.50001   0.54873   0.00000  Uiso   1.00
C1067  C     0.73345   0.37566   0.49812   0.00000  Uiso   1.00
C1068  C     0.71031   0.38729   0.45005   0.00000  Uiso   1.00
H1069  H     0.67379   0.40293   0.45069   0.00000  Uiso   1.00
H1070  H     0.73675   0.40999   0.43924   0.00000  Uiso   1.00
H1071  H     0.70411   0.35994   0.42533   0.00000  Uiso   1.00
H1072  H     0.74013   0.40435   0.52023   0.00000  Uiso   1.00
H1073  H     0.70535   0.35732   0.51352   0.00000  Uiso   1.00
C1074  C     0.92611   0.63180   0.53597   0.00000  Uiso   1.00
C1075  C     0.92903   0.64554   0.58759   0.00000  Uiso   1.00
H1076  H     0.89465   0.63411   0.60139   0.00000  Uiso   1.00
H1077  H     0.96427   0.63409   0.60797   0.00000  Uiso   1.00
H1078  H     0.92903   0.34596   0.59327   0.00000  Uiso   1.00
H1079  H     0.92715   0.59786   0.53206   0.00000  Uiso   1.00
H1080  H     0.96077   0.64304   0.52294   0.00000  Uiso   1.00
C1081  C     0.73480   0.61684   0.49331   0.00000  Uiso   1.00
C1082  C     0.72275   0.60716   0.54149   0.00000  Uiso   1.00
H1083  H     0.68739   0.58751   0.53773   0.00000  Uiso   1.00
H1084  H     0.75407   0.59037   0.56120   0.00000  Uiso   1.00
H1085  H     0.71708   0.63581   0.56207   0.00000  Uiso   1.00
H1086  H     0.70180   0.63171   0.47343   0.00000  Uiso   1.00
H1087  H     0.73785   0.58765   0.47277   0.00000  Uiso   1.00
C1088  C     0.92431   0.37939   0.49040   0.00000  Uiso   1.00
C1089  C     0.95417   0.40156   0.53397   0.00000  Uiso   1.00
H1090  H     0.98089   0.42455   0.52340   0.00000  Uiso   1.00
H1091  H     0.92846   0.41727   0.55545   0.00000  Uiso   1.00
H1092  H     0.97823   0.38027   0.55534   0.00000  Uiso   1.00
H1093  H     0.94918   0.35800   0.47409   0.00000  Uiso   1.00
H1094  H     0.91427   0.40210   0.46362   0.00000  Uiso   1.00
C1095  C     0.77006   0.44225   0.36914   0.00000  Uiso   1.00
O1096  O     0.72489   0.44828   0.37087   0.00000  Uiso   1.00
O1097  O     0.78977   0.40300   0.37416   0.00000  Uiso   1.00
H1098  H     0.76236   0.38076   0.37436   0.00000  Uiso   1.00
C1099  C     0.91657   0.53857   0.63425   0.00000  Uiso   1.00
O1100  O     0.91441   0.56344   0.60454   0.00000  Uiso   1.00
O1101  O     0.96407   0.52542   0.65524   0.00000  Uiso   1.00
H1102  H     0.99379   0.53871   0.64245   0.00000  Uiso   1.00
C1103  C     0.76792   0.44310   0.60719   0.00000  Uiso   1.00
O1104  O     0.72401   0.45055   0.59105   0.00000  Uiso   1.00
O1105  O     0.78476   0.40274   0.60598   0.00000  Uiso   1.00
H1106  H     0.75617   0.38178   0.59435   0.00000  Uiso   1.00
C1107  C     0.89603   0.55908   0.39240   0.00000  Uiso   1.00
O1108  O     0.87839   0.59340   0.39342   0.00000  Uiso   1.00
O1109  O     0.94581   0.55299   0.41407   0.00000  Uiso   1.00
H1110  H     0.96234   0.57873   0.43168   0.00000  Uiso   1.00
C1111  C     0.16399   0.75430   0.49866   0.00000  Uiso   1.00
C1112  C     0.16700   0.91247   0.50110   0.00000  Uiso   1.00
C1113  C     0.06808   0.83311   0.48793   0.00000  Uiso   1.00
C1114  C     0.26527   0.83457   0.51210   0.00000  Uiso   1.00
C1115  C     0.01262   0.83180   0.48166   0.00000  Uiso   1.00
C1116  C     0.32077   0.83740   0.51832   0.00000  Uiso   1.00
C1117  C     0.11646   0.68667   0.49721   0.00000  Uiso   1.00
C1118  C     0.21122   0.98119   0.50905   0.00000  Uiso   1.00
C1119  C     0.11732   0.97647   0.49710   0.00000  Uiso   1.00
C1120  C     0.20976   0.68967   0.49957   0.00000  Uiso   1.00
C1121  C     0.16515   0.95741   0.50307   0.00000  Uiso   1.00
C1122  C     0.16285   0.70939   0.49660   0.00000  Uiso   1.00
C1123  C     0.13485   0.80730   0.35212   0.00000  Uiso   1.00
C1124  C     0.20272   0.85569   0.64862   0.00000  Uiso   1.00
C1125  C     0.13369   0.80807   0.63624   0.00000  Uiso   1.00
C1126  C     0.19954   0.85872   0.36384   0.00000  Uiso   1.00
Cu1127 Cu    0.16667   0.83334   0.54689   0.00000  Uiso   1.00
Cu1128 Cu    0.16667   0.83333   0.45311   0.00000  Uiso   1.00
H1129  H     0.32575   0.82483   0.44676   0.00000  Uiso   1.00
H1130  H     0.00767   0.84391   0.55330   0.00000  Uiso   1.00
N1131  N     0.16668   0.83334   0.61736   0.00000  Uiso   1.00
N1132  N     0.16665   0.83332   0.38264   0.00000  Uiso   1.00
O1133  O     0.16666   0.77322   0.53958   0.00000  Uiso   1.00
O1134  O     0.16667   0.89345   0.46042   0.00000  Uiso   1.00
O1135  O     0.16666   0.77321   0.46039   0.00000  Uiso   1.00
O1136  O     0.16667   0.89346   0.53961   0.00000  Uiso   1.00
O1137  O     0.09161   0.83334   0.53046   0.00000  Uiso   1.00
O1138  O     0.24172   0.83333   0.46954   0.00000  Uiso   1.00
O1139  O     0.09161   0.83333   0.45127   0.00000  Uiso   1.00
O1140  O     0.24172   0.83334   0.54873   0.00000  Uiso   1.00
C1141  C     0.06678   0.70900   0.49812   0.00000  Uiso   1.00
C1142  C     0.04365   0.72063   0.45005   0.00000  Uiso   1.00
H1143  H     0.00713   0.73627   0.45069   0.00000  Uiso   1.00
H1144  H     0.07008   0.74332   0.43924   0.00000  Uiso   1.00
H1145  H     0.03745   0.69327   0.42533   0.00000  Uiso   1.00
H1146  H     0.07347   0.73769   0.52023   0.00000  Uiso   1.00
H1147  H     0.03869   0.69065   0.51352   0.00000  Uiso   1.00
C1148  C     0.25944   0.96514   0.53597   0.00000  Uiso   1.00
C1149  C     0.26236   0.97888   0.58759   0.00000  Uiso   1.00
H1150  H     0.22799   0.96744   0.60139   0.00000  Uiso   1.00
H1151  H     0.29760   0.96742   0.60797   0.00000  Uiso   1.00
H1152  H     0.26237   0.67930   0.59327   0.00000  Uiso   1.00
H1153  H     0.26048   0.93119   0.53206   0.00000  Uiso   1.00
H1154  H     0.29410   0.97637   0.52294   0.00000  Uiso   1.00
C1155  C     0.06814   0.95017   0.49331   0.00000  Uiso   1.00
C1156  C     0.05608   0.94049   0.54149   0.00000  Uiso   1.00
H1157  H     0.02072   0.92084   0.53773   0.00000  Uiso   1.00
H1158  H     0.08740   0.92370   0.56120   0.00000  Uiso   1.00
H1159  H     0.05041   0.96915   0.56207   0.00000  Uiso   1.00
H1160  H     0.03513   0.96504   0.47343   0.00000  Uiso   1.00
H1161  H     0.07118   0.92098   0.47277   0.00000  Uiso   1.00
C1162  C     0.25765   0.71272   0.49040   0.00000  Uiso   1.00
C1163  C     0.28750   0.73490   0.53397   0.00000  Uiso   1.00
H1164  H     0.31423   0.75788   0.52340   0.00000  Uiso   1.00
H1165  H     0.26179   0.75061   0.55545   0.00000  Uiso   1.00
H1166  H     0.31156   0.71360   0.55534   0.00000  Uiso   1.00
H1167  H     0.28251   0.69133   0.47409   0.00000  Uiso   1.00
H1168  H     0.24760   0.73544   0.46362   0.00000  Uiso   1.00
C1169  C     0.10339   0.77559   0.36914   0.00000  Uiso   1.00
O1170  O     0.05822   0.78161   0.37087   0.00000  Uiso   1.00
O1171  O     0.12311   0.73633   0.37416   0.00000  Uiso   1.00
H1172  H     0.09569   0.71409   0.37436   0.00000  Uiso   1.00
C1173  C     0.24990   0.87190   0.63425   0.00000  Uiso   1.00
O1174  O     0.24775   0.89678   0.60454   0.00000  Uiso   1.00
O1175  O     0.29740   0.85876   0.65524   0.00000  Uiso   1.00
H1176  H     0.32713   0.87204   0.64245   0.00000  Uiso   1.00
C1177  C     0.10125   0.77643   0.60719   0.00000  Uiso   1.00
O1178  O     0.05734   0.78389   0.59105   0.00000  Uiso   1.00
O1179  O     0.11810   0.73608   0.60598   0.00000  Uiso   1.00
H1180  H     0.08950   0.71511   0.59435   0.00000  Uiso   1.00
C1181  C     0.22936   0.89241   0.39240   0.00000  Uiso   1.00
O1182  O     0.21172   0.92673   0.39342   0.00000  Uiso   1.00
O1183  O     0.27914   0.88632   0.41407   0.00000  Uiso   1.00
H1184  H     0.29567   0.91207   0.43168   0.00000  Uiso   1.00
C1185  C     0.49733   0.75430   0.49866   0.00000  Uiso   1.00
C1186  C     0.50034   0.91247   0.50110   0.00000  Uiso   1.00
C1187  C     0.40141   0.83311   0.48793   0.00000  Uiso   1.00
C1188  C     0.59860   0.83457   0.51210   0.00000  Uiso   1.00
C1189  C     0.34595   0.83180   0.48166   0.00000  Uiso   1.00
C1190  C     0.65411   0.83740   0.51832   0.00000  Uiso   1.00
C1191  C     0.44980   0.68667   0.49721   0.00000  Uiso   1.00
C1192  C     0.54456   0.98119   0.50905   0.00000  Uiso   1.00
C1193  C     0.45065   0.97647   0.49710   0.00000  Uiso   1.00
C1194  C     0.54309   0.68967   0.49957   0.00000  Uiso   1.00
C1195  C     0.49848   0.95741   0.50307   0.00000  Uiso   1.00
C1196  C     0.49619   0.70939   0.49660   0.00000  Uiso   1.00
C1197  C     0.46818   0.80730   0.35212   0.00000  Uiso   1.00
C1198  C     0.53605   0.85569   0.64862   0.00000  Uiso   1.00
C1199  C     0.46703   0.80807   0.63624   0.00000  Uiso   1.00
C1200  C     0.53287   0.85872   0.36384   0.00000  Uiso   1.00
Cu1201 Cu    0.50000   0.83334   0.54689   0.00000  Uiso   1.00
Cu1202 Cu    0.50000   0.83333   0.45311   0.00000  Uiso   1.00
H1203  H     0.65909   0.82483   0.44676   0.00000  Uiso   1.00
H1204  H     0.34100   0.84391   0.55330   0.00000  Uiso   1.00
N1205  N     0.50001   0.83334   0.61736   0.00000  Uiso   1.00
N1206  N     0.49999   0.83332   0.38264   0.00000  Uiso   1.00
O1207  O     0.50000   0.77322   0.53958   0.00000  Uiso   1.00
O1208  O     0.50000   0.89345   0.46042   0.00000  Uiso   1.00
O1209  O     0.50000   0.77321   0.46039   0.00000  Uiso   1.00
O1210  O     0.50000   0.89346   0.53961   0.00000  Uiso   1.00
O1211  O     0.42495   0.83334   0.53046   0.00000  Uiso   1.00
O1212  O     0.57505   0.83333   0.46954   0.00000  Uiso   1.00
O1213  O     0.42494   0.83333   0.45127   0.00000  Uiso   1.00
O1214  O     0.57506   0.83334   0.54873   0.00000  Uiso   1.00
C1215  C     0.40011   0.70900   0.49812   0.00000  Uiso   1.00
C1216  C     0.37698   0.72063   0.45005   0.00000  Uiso   1.00
H1217  H     0.34046   0.73627   0.45069   0.00000  Uiso   1.00
H1218  H     0.40341   0.74332   0.43924   0.00000  Uiso   1.00
H1219  H     0.37078   0.69327   0.42533   0.00000  Uiso   1.00
H1220  H     0.40680   0.73769   0.52023   0.00000  Uiso   1.00
H1221  H     0.37202   0.69065   0.51352   0.00000  Uiso   1.00
C1222  C     0.59277   0.96514   0.53597   0.00000  Uiso   1.00
C1223  C     0.59569   0.97888   0.58759   0.00000  Uiso   1.00
H1224  H     0.56132   0.96744   0.60139   0.00000  Uiso   1.00
H1225  H     0.63094   0.96742   0.60797   0.00000  Uiso   1.00
H1226  H     0.59570   0.67930   0.59327   0.00000  Uiso   1.00
H1227  H     0.59381   0.93119   0.53206   0.00000  Uiso   1.00
H1228  H     0.62743   0.97637   0.52294   0.00000  Uiso   1.00
C1229  C     0.40147   0.95017   0.49331   0.00000  Uiso   1.00
C1230  C     0.38942   0.94049   0.54149   0.00000  Uiso   1.00
H1231  H     0.35405   0.92084   0.53773   0.00000  Uiso   1.00
H1232  H     0.42074   0.92370   0.56120   0.00000  Uiso   1.00
H1233  H     0.38375   0.96915   0.56207   0.00000  Uiso   1.00
H1234  H     0.36847   0.96504   0.47343   0.00000  Uiso   1.00
H1235  H     0.40452   0.92098   0.47277   0.00000  Uiso   1.00
C1236  C     0.59098   0.71272   0.49040   0.00000  Uiso   1.00
C1237  C     0.62083   0.73490   0.53397   0.00000  Uiso   1.00
H1238  H     0.64756   0.75788   0.52340   0.00000  Uiso   1.00
H1239  H     0.59512   0.75061   0.55545   0.00000  Uiso   1.00
H1240  H     0.64489   0.71360   0.55534   0.00000  Uiso   1.00
H1241  H     0.61584   0.69133   0.47409   0.00000  Uiso   1.00
H1242  H     0.58093   0.73544   0.46362   0.00000  Uiso   1.00
C1243  C     0.43673   0.77559   0.36914   0.00000  Uiso   1.00
O1244  O     0.39156   0.78161   0.37087   0.00000  Uiso   1.00
O1245  O     0.45644   0.73633   0.37416   0.00000  Uiso   1.00
H1246  H     0.42902   0.71409   0.37436   0.00000  Uiso   1.00
C1247  C     0.58324   0.87190   0.63425   0.00000  Uiso   1.00
O1248  O     0.58108   0.89678   0.60454   0.00000  Uiso   1.00
O1249  O     0.63073   0.85876   0.65524   0.00000  Uiso   1.00
H1250  H     0.66046   0.87204   0.64245   0.00000  Uiso   1.00
C1251  C     0.43458   0.77643   0.60719   0.00000  Uiso   1.00
O1252  O     0.39067   0.78389   0.59105   0.00000  Uiso   1.00
O1253  O     0.45143   0.73608   0.60598   0.00000  Uiso   1.00
H1254  H     0.42283   0.71511   0.59435   0.00000  Uiso   1.00
C1255  C     0.56269   0.89241   0.39240   0.00000  Uiso   1.00
O1256  O     0.54505   0.92673   0.39342   0.00000  Uiso   1.00
O1257  O     0.61248   0.88632   0.41407   0.00000  Uiso   1.00
H1258  H     0.62901   0.91207   0.43168   0.00000  Uiso   1.00
C1259  C     0.83066   0.75430   0.49866   0.00000  Uiso   1.00
C1260  C     0.83367   0.91247   0.50110   0.00000  Uiso   1.00
C1261  C     0.73474   0.83311   0.48793   0.00000  Uiso   1.00
C1262  C     0.93193   0.83457   0.51210   0.00000  Uiso   1.00
C1263  C     0.67928   0.83180   0.48166   0.00000  Uiso   1.00
C1264  C     0.98744   0.83740   0.51832   0.00000  Uiso   1.00
C1265  C     0.78313   0.68667   0.49721   0.00000  Uiso   1.00
C1266  C     0.87789   0.98119   0.50905   0.00000  Uiso   1.00
C1267  C     0.78398   0.97647   0.49710   0.00000  Uiso   1.00
C1268  C     0.87642   0.68967   0.49957   0.00000  Uiso   1.00
C1269  C     0.83182   0.95741   0.50307   0.00000  Uiso   1.00
C1270  C     0.82952   0.70939   0.49660   0.00000  Uiso   1.00
C1271  C     0.80152   0.80730   0.35212   0.00000  Uiso   1.00
C1272  C     0.86939   0.85569   0.64862   0.00000  Uiso   1.00
C1273  C     0.80036   0.80807   0.63624   0.00000  Uiso   1.00
C1274  C     0.86621   0.85872   0.36384   0.00000  Uiso   1.00
Cu1275 Cu    0.83333   0.83334   0.54689   0.00000  Uiso   1.00
Cu1276 Cu    0.83333   0.83333   0.45311   0.00000  Uiso   1.00
H1277  H     0.99242   0.82483   0.44676   0.00000  Uiso   1.00
H1278  H     0.67434   0.84391   0.55330   0.00000  Uiso   1.00
N1279  N     0.83335   0.83334   0.61736   0.00000  Uiso   1.00
N1280  N     0.83332   0.83332   0.38264   0.00000  Uiso   1.00
O1281  O     0.83333   0.77322   0.53958   0.00000  Uiso   1.00
O1282  O     0.83334   0.89345   0.46042   0.00000  Uiso   1.00
O1283  O     0.83333   0.77321   0.46039   0.00000  Uiso   1.00
O1284  O     0.83334   0.89346   0.53961   0.00000  Uiso   1.00
O1285  O     0.75828   0.83334   0.53046   0.00000  Uiso   1.00
O1286  O     0.90839   0.83333   0.46954   0.00000  Uiso   1.00
O1287  O     0.75828   0.83333   0.45127   0.00000  Uiso   1.00
O1288  O     0.90839   0.83334   0.54873   0.00000  Uiso   1.00
C1289  C     0.73345   0.70900   0.49812   0.00000  Uiso   1.00
C1290  C     0.71031   0.72063   0.45005   0.00000  Uiso   1.00
H1291  H     0.67379   0.73627   0.45069   0.00000  Uiso   1.00
H1292  H     0.73675   0.74332   0.43924   0.00000  Uiso   1.00
H1293  H     0.70411   0.69327   0.42533   0.00000  Uiso   1.00
H1294  H     0.74013   0.73769   0.52023   0.00000  Uiso   1.00
H1295  H     0.70535   0.69065   0.51352   0.00000  Uiso   1.00
C1296  C     0.92611   0.96514   0.53597   0.00000  Uiso   1.00
C1297  C     0.92903   0.97888   0.58759   0.00000  Uiso   1.00
H1298  H     0.89465   0.96744   0.60139   0.00000  Uiso   1.00
H1299  H     0.96427   0.96742   0.60797   0.00000  Uiso   1.00
H1300  H     0.92903   0.67930   0.59327   0.00000  Uiso   1.00
H1301  H     0.92715   0.93119   0.53206   0.00000  Uiso   1.00
H1302  H     0.96077   0.97637   0.52294   0.00000  Uiso   1.00
C1303  C     0.73480   0.95017   0.49331   0.00000  Uiso   1.00
C1304  C     0.72275   0.94049   0.54149   0.00000  Uiso   1.00
H1305  H     0.68739   0.92084   0.53773   0.00000  Uiso   1.00
H1306  H     0.75407   0.92370   0.56120   0.00000  Uiso   1.00
H1307  H     0.71708   0.96915   0.56207   0.00000  Uiso   1.00
H1308  H     0.70180   0.96504   0.47343   0.00000  Uiso   1.00
H1309  H     0.73785   0.92098   0.47277   0.00000  Uiso   1.00
C1310  C     0.92431   0.71272   0.49040   0.00000  Uiso   1.00
C1311  C     0.95417   0.73490   0.53397   0.00000  Uiso   1.00
H1312  H     0.98089   0.75788   0.52340   0.00000  Uiso   1.00
H1313  H     0.92846   0.75061   0.55545   0.00000  Uiso   1.00
H1314  H     0.97823   0.71360   0.55534   0.00000  Uiso   1.00
H1315  H     0.94918   0.69133   0.47409   0.00000  Uiso   1.00
H1316  H     0.91427   0.73544   0.46362   0.00000  Uiso   1.00
C1317  C     0.77006   0.77559   0.36914   0.00000  Uiso   1.00
O1318  O     0.72489   0.78161   0.37087   0.00000  Uiso   1.00
O1319  O     0.78977   0.73633   0.37416   0.00000  Uiso   1.00
H1320  H     0.76236   0.71409   0.37436   0.00000  Uiso   1.00
C1321  C     0.91657   0.87190   0.63425   0.00000  Uiso   1.00
O1322  O     0.91441   0.89678   0.60454   0.00000  Uiso   1.00
O1323  O     0.96407   0.85876   0.65524   0.00000  Uiso   1.00
H1324  H     0.99379   0.87204   0.64245   0.00000  Uiso   1.00
C1325  C     0.76792   0.77643   0.60719   0.00000  Uiso   1.00
O1326  O     0.72401   0.78389   0.59105   0.00000  Uiso   1.00
O1327  O     0.78476   0.73608   0.60598   0.00000  Uiso   1.00
H1328  H     0.75617   0.71511   0.59435   0.00000  Uiso   1.00
C1329  C     0.89603   0.89241   0.39240   0.00000  Uiso   1.00
O1330  O     0.87839   0.92673   0.39342   0.00000  Uiso   1.00
O1331  O     0.94581   0.88632   0.41407   0.00000  Uiso   1.00
H1332  H     0.96234   0.91207   0.43168   0.00000  Uiso   1.00
C1333  C     0.16399   0.08764   0.83199   0.00000  Uiso   1.00
C1334  C     0.16700   0.24580   0.83444   0.00000  Uiso   1.00
C1335  C     0.06808   0.16645   0.82126   0.00000  Uiso   1.00
C1336  C     0.26527   0.16790   0.84544   0.00000  Uiso   1.00
C1337  C     0.01262   0.16514   0.81500   0.00000  Uiso   1.00
C1338  C     0.32077   0.17073   0.85165   0.00000  Uiso   1.00
C1339  C     0.11646   0.02001   0.83055   0.00000  Uiso   1.00
C1340  C     0.21122   0.31452   0.84239   0.00000  Uiso   1.00
C1341  C     0.11732   0.30981   0.83044   0.00000  Uiso   1.00
C1342  C     0.20976   0.02301   0.83291   0.00000  Uiso   1.00
C1343  C     0.16515   0.29074   0.83640   0.00000  Uiso   1.00
C1344  C     0.16285   0.04272   0.82993   0.00000  Uiso   1.00
C1345  C     0.13485   0.14063   0.68545   0.00000  Uiso   1.00
C1346  C     0.20272   0.18902   0.98195   0.00000  Uiso   1.00
C1347  C     0.13369   0.14140   0.96957   0.00000  Uiso   1.00
C1348  C     0.19954   0.19206   0.69717   0.00000  Uiso   1.00
Cu1349 Cu    0.16667   0.16667   0.88022   0.00000  Uiso   1.00
Cu1350 Cu    0.16667   0.16666   0.78645   0.00000  Uiso   1.00
H1351  H     0.32575   0.15816   0.78009   0.00000  Uiso   1.00
H1352  H     0.00767   0.17724   0.88663   0.00000  Uiso   1.00
N1353  N     0.16668   0.16668   0.95069   0.00000  Uiso   1.00
N1354  N     0.16665   0.16666   0.71597   0.00000  Uiso   1.00
O1355  O     0.16666   0.10655   0.87291   0.00000  Uiso   1.00
O1356  O     0.16667   0.22678   0.79375   0.00000  Uiso   1.00
O1357  O     0.16666   0.10654   0.79372   0.00000  Uiso   1.00
O1358  O     0.16667   0.22679   0.87294   0.00000  Uiso   1.00
O1359  O     0.09161   0.16667   0.86379   0.00000  Uiso   1.00
O1360  O     0.24172   0.16666   0.80288   0.00000  Uiso   1.00
O1361  O     0.09161   0.16666   0.78460   0.00000  Uiso   1.00
O1362  O     0.24172   0.16667   0.88207   0.00000  Uiso   1.00
C1363  C     0.06678   0.04233   0.83145   0.00000  Uiso   1.00
C1364  C     0.04365   0.05396   0.78338   0.00000  Uiso   1.00
H1365  H     0.00713   0.06960   0.78402   0.00000  Uiso   1.00
H1366  H     0.07008   0.07665   0.77258   0.00000  Uiso   1.00
H1367  H     0.03745   0.02661   0.75866   0.00000  Uiso   1.00
H1368  H     0.07347   0.07102   0.85356   0.00000  Uiso   1.00
H1369  H     0.03869   0.02398   0.84686   0.00000  Uiso   1.00
C1370  C     0.25944   0.29847   0.86931   0.00000  Uiso   1.00
C1371  C     0.26236   0.31221   0.92092   0.00000  Uiso   1.00
H1372  H     0.22799   0.30077   0.93472   0.00000  Uiso   1.00
H1373  H     0.29760   0.30076   0.94131   0.00000  Uiso   1.00
H1374  H     0.26237   0.01263   0.92661   0.00000  Uiso   1.00
H1375  H     0.26048   0.26453   0.86539   0.00000  Uiso   1.00
H1376  H     0.29410   0.30970   0.85627   0.00000  Uiso   1.00
C1377  C     0.06814   0.28351   0.82665   0.00000  Uiso   1.00
C1378  C     0.05608   0.27383   0.87483   0.00000  Uiso   1.00
H1379  H     0.02072   0.25417   0.87107   0.00000  Uiso   1.00
H1380  H     0.08740   0.25703   0.89453   0.00000  Uiso   1.00
H1381  H     0.05041   0.30248   0.89540   0.00000  Uiso   1.00
H1382  H     0.03513   0.29838   0.80676   0.00000  Uiso   1.00
H1383  H     0.07118   0.25432   0.80611   0.00000  Uiso   1.00
C1384  C     0.25765   0.04605   0.82373   0.00000  Uiso   1.00
C1385  C     0.28750   0.06823   0.86730   0.00000  Uiso   1.00
H1386  H     0.31423   0.09122   0.85673   0.00000  Uiso   1.00
H1387  H     0.26179   0.08394   0.88878   0.00000  Uiso   1.00
H1388  H     0.31156   0.04694   0.88867   0.00000  Uiso   1.00
H1389  H     0.28251   0.02467   0.80742   0.00000  Uiso   1.00
H1390  H     0.24760   0.06877   0.79696   0.00000  Uiso   1.00
C1391  C     0.10339   0.10892   0.70247   0.00000  Uiso   1.00
O1392  O     0.05822   0.11495   0.70420   0.00000  Uiso   1.00
O1393  O     0.12311   0.06966   0.70749   0.00000  Uiso   1.00
H1394  H     0.09569   0.04743   0.70770   0.00000  Uiso   1.00
C1395  C     0.24990   0.20523   0.96758   0.00000  Uiso   1.00
O1396  O     0.24775   0.23011   0.93787   0.00000  Uiso   1.00
O1397  O     0.29740   0.19209   0.98858   0.00000  Uiso   1.00
H1398  H     0.32713   0.20538   0.97578   0.00000  Uiso   1.00
C1399  C     0.10125   0.10976   0.94052   0.00000  Uiso   1.00
O1400  O     0.05734   0.11722   0.92438   0.00000  Uiso   1.00
O1401  O     0.11810   0.06941   0.93931   0.00000  Uiso   1.00
H1402  H     0.08950   0.04845   0.92768   0.00000  Uiso   1.00
C1403  C     0.22936   0.22574   0.72574   0.00000  Uiso   1.00
O1404  O     0.21172   0.26007   0.72676   0.00000  Uiso   1.00
O1405  O     0.27914   0.21966   0.74741   0.00000  Uiso   1.00
H1406  H     0.29567   0.24540   0.76501   0.00000  Uiso   1.00
C1407  C     0.49733   0.08764   0.83199   0.00000  Uiso   1.00
C1408  C     0.50034   0.24580   0.83444   0.00000  Uiso   1.00
C1409  C     0.40141   0.16645   0.82126   0.00000  Uiso   1.00
C1410  C     0.59860   0.16790   0.84544   0.00000  Uiso   1.00
C1411  C     0.34595   0.16514   0.81500   0.00000  Uiso   1.00
C1412  C     0.65411   0.17073   0.85165   0.00000  Uiso   1.00
C1413  C     0.44980   0.02001   0.83055   0.00000  Uiso   1.00
C1414  C     0.54456   0.31452   0.84239   0.00000  Uiso   1.00
C1415  C     0.45065   0.30981   0.83044   0.00000  Uiso   1.00
C1416  C     0.54309   0.02301   0.83291   0.00000  Uiso   1.00
C1417  C     0.49848   0.29074   0.83640   0.00000  Uiso   1.00
C1418  C     0.49619   0.04272   0.82993   0.00000  Uiso   1.00
C1419  C     0.46818   0.14063   0.68545   0.00000  Uiso   1.00
C1420  C     0.53605   0.18902   0.98195   0.00000  Uiso   1.00
C1421  C     0.46703   0.14140   0.96957   0.00000  Uiso   1.00
C1422  C     0.53287   0.19206   0.69717   0.00000  Uiso   1.00
Cu1423 Cu    0.50000   0.16667   0.88022   0.00000  Uiso   1.00
Cu1424 Cu    0.50000   0.16666   0.78645   0.00000  Uiso   1.00
H1425  H     0.65909   0.15816   0.78009   0.00000  Uiso   1.00
H1426  H     0.34100   0.17724   0.88663   0.00000  Uiso   1.00
N1427  N     0.50001   0.16668   0.95069   0.00000  Uiso   1.00
N1428  N     0.49999   0.16666   0.71597   0.00000  Uiso   1.00
O1429  O     0.50000   0.10655   0.87291   0.00000  Uiso   1.00
O1430  O     0.50000   0.22678   0.79375   0.00000  Uiso   1.00
O1431  O     0.50000   0.10654   0.79372   0.00000  Uiso   1.00
O1432  O     0.50000   0.22679   0.87294   0.00000  Uiso   1.00
O1433  O     0.42495   0.16667   0.86379   0.00000  Uiso   1.00
O1434  O     0.57505   0.16666   0.80288   0.00000  Uiso   1.00
O1435  O     0.42494   0.16666   0.78460   0.00000  Uiso   1.00
O1436  O     0.57506   0.16667   0.88207   0.00000  Uiso   1.00
C1437  C     0.40011   0.04233   0.83145   0.00000  Uiso   1.00
C1438  C     0.37698   0.05396   0.78338   0.00000  Uiso   1.00
H1439  H     0.34046   0.06960   0.78402   0.00000  Uiso   1.00
H1440  H     0.40341   0.07665   0.77258   0.00000  Uiso   1.00
H1441  H     0.37078   0.02661   0.75866   0.00000  Uiso   1.00
H1442  H     0.40680   0.07102   0.85356   0.00000  Uiso   1.00
H1443  H     0.37202   0.02398   0.84686   0.00000  Uiso   1.00
C1444  C     0.59277   0.29847   0.86931   0.00000  Uiso   1.00
C1445  C     0.59569   0.31221   0.92092   0.00000  Uiso   1.00
H1446  H     0.56132   0.30077   0.93472   0.00000  Uiso   1.00
H1447  H     0.63094   0.30076   0.94131   0.00000  Uiso   1.00
H1448  H     0.59570   0.01263   0.92661   0.00000  Uiso   1.00
H1449  H     0.59381   0.26453   0.86539   0.00000  Uiso   1.00
H1450  H     0.62743   0.30970   0.85627   0.00000  Uiso   1.00
C1451  C     0.40147   0.28351   0.82665   0.00000  Uiso   1.00
C1452  C     0.38942   0.27383   0.87483   0.00000  Uiso   1.00
H1453  H     0.35405   0.25417   0.87107   0.00000  Uiso   1.00
H1454  H     0.42074   0.25703   0.89453   0.00000  Uiso   1.00
H1455  H     0.38375   0.30248   0.89540   0.00000  Uiso   1.00
H1456  H     0.36847   0.29838   0.80676   0.00000  Uiso   1.00
H1457  H     0.40452   0.25432   0.80611   0.00000  Uiso   1.00
C1458  C     0.59098   0.04605   0.82373   0.00000  Uiso   1.00
C1459  C     0.62083   0.06823   0.86730   0.00000  Uiso   1.00
H1460  H     0.64756   0.09122   0.85673   0.00000  Uiso   1.00
H1461  H     0.59512   0.08394   0.88878   0.00000  Uiso   1.00
H1462  H     0.64489   0.04694   0.88867   0.00000  Uiso   1.00
H1463  H     0.61584   0.02467   0.80742   0.00000  Uiso   1.00
H1464  H     0.58093   0.06877   0.79696   0.00000  Uiso   1.00
C1465  C     0.43673   0.10892   0.70247   0.00000  Uiso   1.00
O1466  O     0.39156   0.11495   0.70420   0.00000  Uiso   1.00
O1467  O     0.45644   0.06966   0.70749   0.00000  Uiso   1.00
H1468  H     0.42902   0.04743   0.70770   0.00000  Uiso   1.00
C1469  C     0.58324   0.20523   0.96758   0.00000  Uiso   1.00
O1470  O     0.58108   0.23011   0.93787   0.00000  Uiso   1.00
O1471  O     0.63073   0.19209   0.98858   0.00000  Uiso   1.00
H1472  H     0.66046   0.20538   0.97578   0.00000  Uiso   1.00
C1473  C     0.43458   0.10976   0.94052   0.00000  Uiso   1.00
O1474  O     0.39067   0.11722   0.92438   0.00000  Uiso   1.00
O1475  O     0.45143   0.06941   0.93931   0.00000  Uiso   1.00
H1476  H     0.42283   0.04845   0.92768   0.00000  Uiso   1.00
C1477  C     0.56269   0.22574   0.72574   0.00000  Uiso   1.00
O1478  O     0.54505   0.26007   0.72676   0.00000  Uiso   1.00
O1479  O     0.61248   0.21966   0.74741   0.00000  Uiso   1.00
H1480  H     0.62901   0.24540   0.76501   0.00000  Uiso   1.00
C1481  C     0.83066   0.08764   0.83199   0.00000  Uiso   1.00
C1482  C     0.83367   0.24580   0.83444   0.00000  Uiso   1.00
C1483  C     0.73474   0.16645   0.82126   0.00000  Uiso   1.00
C1484  C     0.93193   0.16790   0.84544   0.00000  Uiso   1.00
C1485  C     0.67928   0.16514   0.81500   0.00000  Uiso   1.00
C1486  C     0.98744   0.17073   0.85165   0.00000  Uiso   1.00
C1487  C     0.78313   0.02001   0.83055   0.00000  Uiso   1.00
C1488  C     0.87789   0.31452   0.84239   0.00000  Uiso   1.00
C1489  C     0.78398   0.30981   0.83044   0.00000  Uiso   1.00
C1490  C     0.87642   0.02301   0.83291   0.00000  Uiso   1.00
C1491  C     0.83182   0.29074   0.83640   0.00000  Uiso   1.00
C1492  C     0.82952   0.04272   0.82993   0.00000  Uiso   1.00
C1493  C     0.80152   0.14063   0.68545   0.00000  Uiso   1.00
C1494  C     0.86939   0.18902   0.98195   0.00000  Uiso   1.00
C1495  C     0.80036   0.14140   0.96957   0.00000  Uiso   1.00
C1496  C     0.86621   0.19206   0.69717   0.00000  Uiso   1.00
Cu1497 Cu    0.83333   0.16667   0.88022   0.00000  Uiso   1.00
Cu1498 Cu    0.83333   0.16666   0.78645   0.00000  Uiso   1.00
H1499  H     0.99242   0.15816   0.78009   0.00000  Uiso   1.00
H1500  H     0.67434   0.17724   0.88663   0.00000  Uiso   1.00
N1501  N     0.83335   0.16668   0.95069   0.00000  Uiso   1.00
N1502  N     0.83332   0.16666   0.71597   0.00000  Uiso   1.00
O1503  O     0.83333   0.10655   0.87291   0.00000  Uiso   1.00
O1504  O     0.83334   0.22678   0.79375   0.00000  Uiso   1.00
O1505  O     0.83333   0.10654   0.79372   0.00000  Uiso   1.00
O1506  O     0.83334   0.22679   0.87294   0.00000  Uiso   1.00
O1507  O     0.75828   0.16667   0.86379   0.00000  Uiso   1.00
O1508  O     0.90839   0.16666   0.80288   0.00000  Uiso   1.00
O1509  O     0.75828   0.16666   0.78460   0.00000  Uiso   1.00
O1510  O     0.90839   0.16667   0.88207   0.00000  Uiso   1.00
C1511  C     0.73345   0.04233   0.83145   0.00000  Uiso   1.00
C1512  C     0.71031   0.05396   0.78338   0.00000  Uiso   1.00
H1513  H     0.67379   0.06960   0.78402   0.00000  Uiso   1.00
H1514  H     0.73675   0.07665   0.77258   0.00000  Uiso   1.00
H1515  H     0.70411   0.02661   0.75866   0.00000  Uiso   1.00
H1516  H     0.74013   0.07102   0.85356   0.00000  Uiso   1.00
H1517  H     0.70535   0.02398   0.84686   0.00000  Uiso   1.00
C1518  C     0.92611   0.29847   0.86931   0.00000  Uiso   1.00
C1519  C     0.92903   0.31221   0.92092   0.00000  Uiso   1.00
H1520  H     0.89465   0.30077   0.93472   0.00000  Uiso   1.00
H1521  H     0.96427   0.30076   0.94131   0.00000  Uiso   1.00
H1522  H     0.92903   0.01263   0.92661   0.00000  Uiso   1.00
H1523  H     0.92715   0.26453   0.86539   0.00000  Uiso   1.00
H1524  H     0.96077   0.30970   0.85627   0.00000  Uiso   1.00
C1525  C     0.73480   0.28351   0.82665   0.00000  Uiso   1.00
C1526  C     0.72275   0.27383   0.87483   0.00000  Uiso   1.00
H1527  H     0.68739   0.25417   0.87107   0.00000  Uiso   1.00
H1528  H     0.75407   0.25703   0.89453   0.00000  Uiso   1.00
H1529  H     0.71708   0.30248   0.89540   0.00000  Uiso   1.00
H1530  H     0.70180   0.29838   0.80676   0.00000  Uiso   1.00
H1531  H     0.73785   0.25432   0.80611   0.00000  Uiso   1.00
C1532  C     0.92431   0.04605   0.82373   0.00000  Uiso   1.00
C1533  C     0.95417   0.06823   0.86730   0.00000  Uiso   1.00
H1534  H     0.98089   0.09122   0.85673   0.00000  Uiso   1.00
H1535  H     0.92846   0.08394   0.88878   0.00000  Uiso   1.00
H1536  H     0.97823   0.04694   0.88867   0.00000  Uiso   1.00
H1537  H     0.94918   0.02467   0.80742   0.00000  Uiso   1.00
H1538  H     0.91427   0.06877   0.79696   0.00000  Uiso   1.00
C1539  C     0.77006   0.10892   0.70247   0.00000  Uiso   1.00
O1540  O     0.72489   0.11495   0.70420   0.00000  Uiso   1.00
O1541  O     0.78977   0.06966   0.70749   0.00000  Uiso   1.00
H1542  H     0.76236   0.04743   0.70770   0.00000  Uiso   1.00
C1543  C     0.91657   0.20523   0.96758   0.00000  Uiso   1.00
O1544  O     0.91441   0.23011   0.93787   0.00000  Uiso   1.00
O1545  O     0.96407   0.19209   0.98858   0.00000  Uiso   1.00
H1546  H     0.99379   0.20538   0.97578   0.00000  Uiso   1.00
C1547  C     0.76792   0.10976   0.94052   0.00000  Uiso   1.00
O1548  O     0.72401   0.11722   0.92438   0.00000  Uiso   1.00
O1549  O     0.78476   0.06941   0.93931   0.00000  Uiso   1.00
H1550  H     0.75617   0.04845   0.92768   0.00000  Uiso   1.00
C1551  C     0.89603   0.22574   0.72574   0.00000  Uiso   1.00
O1552  O     0.87839   0.26007   0.72676   0.00000  Uiso   1.00
O1553  O     0.94581   0.21966   0.74741   0.00000  Uiso   1.00
H1554  H     0.96234   0.24540   0.76501   0.00000  Uiso   1.00
C1555  C     0.16399   0.42097   0.83199   0.00000  Uiso   1.00
C1556  C     0.16700   0.57913   0.83444   0.00000  Uiso   1.00
C1557  C     0.06808   0.49978   0.82126   0.00000  Uiso   1.00
C1558  C     0.26527   0.50123   0.84544   0.00000  Uiso   1.00
C1559  C     0.01262   0.49847   0.81500   0.00000  Uiso   1.00
C1560  C     0.32077   0.50406   0.85165   0.00000  Uiso   1.00
C1561  C     0.11646   0.35334   0.83055   0.00000  Uiso   1.00
C1562  C     0.21122   0.64785   0.84239   0.00000  Uiso   1.00
C1563  C     0.11732   0.64314   0.83044   0.00000  Uiso   1.00
C1564  C     0.20976   0.35634   0.83291   0.00000  Uiso   1.00
C1565  C     0.16515   0.62407   0.83640   0.00000  Uiso   1.00
C1566  C     0.16285   0.37606   0.82993   0.00000  Uiso   1.00
C1567  C     0.13485   0.47397   0.68545   0.00000  Uiso   1.00
C1568  C     0.20272   0.52235   0.98195   0.00000  Uiso   1.00
C1569  C     0.13369   0.47473   0.96957   0.00000  Uiso   1.00
C1570  C     0.19954   0.52539   0.69717   0.00000  Uiso   1.00
Cu1571 Cu    0.16667   0.50001   0.88022   0.00000  Uiso   1.00
Cu1572 Cu    0.16667   0.49999   0.78645   0.00000  Uiso   1.00
H1573  H     0.32575   0.49149   0.78009   0.00000  Uiso   1.00
H1574  H     0.00767   0.51058   0.88663   0.00000  Uiso   1.00
N1575  N     0.16668   0.50001   0.95069   0.00000  Uiso   1.00
N1576  N     0.16665   0.49999   0.71597   0.00000  Uiso   1.00
O1577  O     0.16666   0.43989   0.87291   0.00000  Uiso   1.00
O1578  O     0.16667   0.56011   0.79375   0.00000  Uiso   1.00
O1579  O     0.16666   0.43988   0.79372   0.00000  Uiso   1.00
O1580  O     0.16667   0.56012   0.87294   0.00000  Uiso   1.00
O1581  O     0.09161   0.50000   0.86379   0.00000  Uiso   1.00
O1582  O     0.24172   0.50000   0.80288   0.00000  Uiso   1.00
O1583  O     0.09161   0.49999   0.78460   0.00000  Uiso   1.00
O1584  O     0.24172   0.50001   0.88207   0.00000  Uiso   1.00
C1585  C     0.06678   0.37566   0.83145   0.00000  Uiso   1.00
C1586  C     0.04365   0.38729   0.78338   0.00000  Uiso   1.00
H1587  H     0.00713   0.40293   0.78402   0.00000  Uiso   1.00
H1588  H     0.07008   0.40999   0.77258   0.00000  Uiso   1.00
H1589  H     0.03745   0.35994   0.75866   0.00000  Uiso   1.00
H1590  H     0.07347   0.40435   0.85356   0.00000  Uiso   1.00
H1591  H     0.03869   0.35732   0.84686   0.00000  Uiso   1.00
C1592  C     0.25944   0.63180   0.86931   0.00000  Uiso   1.00
C1593  C     0.26236   0.64554   0.92092   0.00000  Uiso   1.00
H1594  H     0.22799   0.63411   0.93472   0.00000  Uiso   1.00
H1595  H     0.29760   0.63409   0.94131   0.00000  Uiso   1.00
H1596  H     0.26237   0.34596   0.92661   0.00000  Uiso   1.00
H1597  H     0.26048   0.59786   0.86539   0.00000  Uiso   1.00
H1598  H     0.29410   0.64304   0.85627   0.00000  Uiso   1.00
C1599  C     0.06814   0.61684   0.82665   0.00000  Uiso   1.00
C1600  C     0.05608   0.60716   0.87483   0.00000  Uiso   1.00
H1601  H     0.02072   0.58751   0.87107   0.00000  Uiso   1.00
H1602  H     0.08740   0.59037   0.89453   0.00000  Uiso   1.00
H1603  H     0.05041   0.63581   0.89540   0.00000  Uiso   1.00
H1604  H     0.03513   0.63171   0.80676   0.00000  Uiso   1.00
H1605  H     0.07118   0.58765   0.80611   0.00000  Uiso   1.00
C1606  C     0.25765   0.37939   0.82373   0.00000  Uiso   1.00
C1607  C     0.28750   0.40156   0.86730   0.00000  Uiso   1.00
H1608  H     0.31423   0.42455   0.85673   0.00000  Uiso   1.00
H1609  H     0.26179   0.41727   0.88878   0.00000  Uiso   1.00
H1610  H     0.31156   0.38027   0.88867   0.00000  Uiso   1.00
H1611  H     0.28251   0.35800   0.80742   0.00000  Uiso   1.00
H1612  H     0.24760   0.40210   0.79696   0.00000  Uiso   1.00
C1613  C     0.10339   0.44225   0.70247   0.00000  Uiso   1.00
O1614  O     0.05822   0.44828   0.70420   0.00000  Uiso   1.00
O1615  O     0.12311   0.40300   0.70749   0.00000  Uiso   1.00
H1616  H     0.09569   0.38076   0.70770   0.00000  Uiso   1.00
C1617  C     0.24990   0.53857   0.96758   0.00000  Uiso   1.00
O1618  O     0.24775   0.56344   0.93787   0.00000  Uiso   1.00
O1619  O     0.29740   0.52542   0.98858   0.00000  Uiso   1.00
H1620  H     0.32713   0.53871   0.97578   0.00000  Uiso   1.00
C1621  C     0.10125   0.44310   0.94052   0.00000  Uiso   1.00
O1622  O     0.05734   0.45055   0.92438   0.00000  Uiso   1.00
O1623  O     0.11810   0.40274   0.93931   0.00000  Uiso   1.00
H1624  H     0.08950   0.38178   0.92768   0.00000  Uiso   1.00
C1625  C     0.22936   0.55908   0.72574   0.00000  Uiso   1.00
O1626  O     0.21172   0.59340   0.72676   0.00000  Uiso   1.00
O1627  O     0.27914   0.55299   0.74741   0.00000  Uiso   1.00
H1628  H     0.29567   0.57873   0.76501   0.00000  Uiso   1.00
C1629  C     0.49733   0.42097   0.83199   0.00000  Uiso   1.00
C1630  C     0.50034   0.57913   0.83444   0.00000  Uiso   1.00
C1631  C     0.40141   0.49978   0.82126   0.00000  Uiso   1.00
C1632  C     0.59860   0.50123   0.84544   0.00000  Uiso   1.00
C1633  C     0.34595   0.49847   0.81500   0.00000  Uiso   1.00
C1634  C     0.65411   0.50406   0.85165   0.00000  Uiso   1.00
C1635  C     0.44980   0.35334   0.83055   0.00000  Uiso   1.00
C1636  C     0.54456   0.64785   0.84239   0.00000  Uiso   1.00
C1637  C     0.45065   0.64314   0.83044   0.00000  Uiso   1.00
C1638  C     0.54309   0.35634   0.83291   0.00000  Uiso   1.00
C1639  C     0.49848   0.62407   0.83640   0.00000  Uiso   1.00
C1640  C     0.49619   0.37606   0.82993   0.00000  Uiso   1.00
C1641  C     0.46818   0.47397   0.68545   0.00000  Uiso   1.00
C1642  C     0.53605   0.52235   0.98195   0.00000  Uiso   1.00
C1643  C     0.46703   0.47473   0.96957   0.00000  Uiso   1.00
C1644  C     0.53287   0.52539   0.69717   0.00000  Uiso   1.00
Cu1645 Cu    0.50000   0.50001   0.88022   0.00000  Uiso   1.00
Cu1646 Cu    0.50000   0.49999   0.78645   0.00000  Uiso   1.00
H1647  H     0.65909   0.49149   0.78009   0.00000  Uiso   1.00
H1648  H     0.34100   0.51058   0.88663   0.00000  Uiso   1.00
N1649  N     0.50001   0.50001   0.95069   0.00000  Uiso   1.00
N1650  N     0.49999   0.49999   0.71597   0.00000  Uiso   1.00
O1651  O     0.50000   0.43989   0.87291   0.00000  Uiso   1.00
O1652  O     0.50000   0.56011   0.79375   0.00000  Uiso   1.00
O1653  O     0.50000   0.43988   0.79372   0.00000  Uiso   1.00
O1654  O     0.50000   0.56012   0.87294   0.00000  Uiso   1.00
O1655  O     0.42495   0.50000   0.86379   0.00000  Uiso   1.00
O1656  O     0.57505   0.50000   0.80288   0.00000  Uiso   1.00
O1657  O     0.42494   0.49999   0.78460   0.00000  Uiso   1.00
O1658  O     0.57506   0.50001   0.88207   0.00000  Uiso   1.00
C1659  C     0.40011   0.37566   0.83145   0.00000  Uiso   1.00
C1660  C     0.37698   0.38729   0.78338   0.00000  Uiso   1.00
H1661  H     0.34046   0.40293   0.78402   0.00000  Uiso   1.00
H1662  H     0.40341   0.40999   0.77258   0.00000  Uiso   1.00
H1663  H     0.37078   0.35994   0.75866   0.00000  Uiso   1.00
H1664  H     0.40680   0.40435   0.85356   0.00000  Uiso   1.00
H1665  H     0.37202   0.35732   0.84686   0.00000  Uiso   1.00
C1666  C     0.59277   0.63180   0.86931   0.00000  Uiso   1.00
C1667  C     0.59569   0.64554   0.92092   0.00000  Uiso   1.00
H1668  H     0.56132   0.63411   0.93472   0.00000  Uiso   1.00
H1669  H     0.63094   0.63409   0.94131   0.00000  Uiso   1.00
H1670  H     0.59570   0.34596   0.92661   0.00000  Uiso   1.00
H1671  H     0.59381   0.59786   0.86539   0.00000  Uiso   1.00
H1672  H     0.62743   0.64304   0.85627   0.00000  Uiso   1.00
C1673  C     0.40147   0.61684   0.82665   0.00000  Uiso   1.00
C1674  C     0.38942   0.60716   0.87483   0.00000  Uiso   1.00
H1675  H     0.35405   0.58751   0.87107   0.00000  Uiso   1.00
H1676  H     0.42074   0.59037   0.89453   0.00000  Uiso   1.00
H1677  H     0.38375   0.63581   0.89540   0.00000  Uiso   1.00
H1678  H     0.36847   0.63171   0.80676   0.00000  Uiso   1.00
H1679  H     0.40452   0.58765   0.80611   0.00000  Uiso   1.00
C1680  C     0.59098   0.37939   0.82373   0.00000  Uiso   1.00
C1681  C     0.62083   0.40156   0.86730   0.00000  Uiso   1.00
H1682  H     0.64756   0.42455   0.85673   0.00000  Uiso   1.00
H1683  H     0.59512   0.41727   0.88878   0.00000  Uiso   1.00
H1684  H     0.64489   0.38027   0.88867   0.00000  Uiso   1.00
H1685  H     0.61584   0.35800   0.80742   0.00000  Uiso   1.00
H1686  H     0.58093   0.40210   0.79696   0.00000  Uiso   1.00
C1687  C     0.43673   0.44225   0.70247   0.00000  Uiso   1.00
O1688  O     0.39156   0.44828   0.70420   0.00000  Uiso   1.00
O1689  O     0.45644   0.40300   0.70749   0.00000  Uiso   1.00
H1690  H     0.42902   0.38076   0.70770   0.00000  Uiso   1.00
C1691  C     0.58324   0.53857   0.96758   0.00000  Uiso   1.00
O1692  O     0.58108   0.56344   0.93787   0.00000  Uiso   1.00
O1693  O     0.63073   0.52542   0.98858   0.00000  Uiso   1.00
H1694  H     0.66046   0.53871   0.97578   0.00000  Uiso   1.00
C1695  C     0.43458   0.44310   0.94052   0.00000  Uiso   1.00
O1696  O     0.39067   0.45055   0.92438   0.00000  Uiso   1.00
O1697  O     0.45143   0.40274   0.93931   0.00000  Uiso   1.00
H1698  H     0.42283   0.38178   0.92768   0.00000  Uiso   1.00
C1699  C     0.56269   0.55908   0.72574   0.00000  Uiso   1.00
O1700  O     0.54505   0.59340   0.72676   0.00000  Uiso   1.00
O1701  O     0.61248   0.55299   0.74741   0.00000  Uiso   1.00
H1702  H     0.62901   0.57873   0.76501   0.00000  Uiso   1.00
C1703  C     0.83066   0.42097   0.83199   0.00000  Uiso   1.00
C1704  C     0.83367   0.57913   0.83444   0.00000  Uiso   1.00
C1705  C     0.73474   0.49978   0.82126   0.00000  Uiso   1.00
C1706  C     0.93193   0.50123   0.84544   0.00000  Uiso   1.00
C1707  C     0.67928   0.49847   0.81500   0.00000  Uiso   1.00
C1708  C     0.98744   0.50406   0.85165   0.00000  Uiso   1.00
C1709  C     0.78313   0.35334   0.83055   0.00000  Uiso   1.00
C1710  C     0.87789   0.64785   0.84239   0.00000  Uiso   1.00
C1711  C     0.78398   0.64314   0.83044   0.00000  Uiso   1.00
C1712  C     0.87642   0.35634   0.83291   0.00000  Uiso   1.00
C1713  C     0.83182   0.62407   0.83640   0.00000  Uiso   1.00
C1714  C     0.82952   0.37606   0.82993   0.00000  Uiso   1.00
C1715  C     0.80152   0.47397   0.68545   0.00000  Uiso   1.00
C1716  C     0.86939   0.52235   0.98195   0.00000  Uiso   1.00
C1717  C     0.80036   0.47473   0.96957   0.00000  Uiso   1.00
C1718  C     0.86621   0.52539   0.69717   0.00000  Uiso   1.00
Cu1719 Cu    0.83333   0.50001   0.88022   0.00000  Uiso   1.00
Cu1720 Cu    0.83333   0.49999   0.78645   0.00000  Uiso   1.00
H1721  H     0.99242   0.49149   0.78009   0.00000  Uiso   1.00
H1722  H     0.67434   0.51058   0.88663   0.00000  Uiso   1.00
N1723  N     0.83335   0.50001   0.95069   0.00000  Uiso   1.00
N1724  N     0.83332   0.49999   0.71597   0.00000  Uiso   1.00
O1725  O     0.83333   0.43989   0.87291   0.00000  Uiso   1.00
O1726  O     0.83334   0.56011   0.79375   0.00000  Uiso   1.00
O1727  O     0.83333   0.43988   0.79372   0.00000  Uiso   1.00
O1728  O     0.83334   0.56012   0.87294   0.00000  Uiso   1.00
O1729  O     0.75828   0.50000   0.86379   0.00000  Uiso   1.00
O1730  O     0.90839   0.50000   0.80288   0.00000  Uiso   1.00
O1731  O     0.75828   0.49999   0.78460   0.00000  Uiso   1.00
O1732  O     0.90839   0.50001   0.88207   0.00000  Uiso   1.00
C1733  C     0.73345   0.37566   0.83145   0.00000  Uiso   1.00
C1734  C     0.71031   0.38729   0.78338   0.00000  Uiso   1.00
H1735  H     0.67379   0.40293   0.78402   0.00000  Uiso   1.00
H1736  H     0.73675   0.40999   0.77258   0.00000  Uiso   1.00
H1737  H     0.70411   0.35994   0.75866   0.00000  Uiso   1.00
H1738  H     0.74013   0.40435   0.85356   0.00000  Uiso   1.00
H1739  H     0.70535   0.35732   0.84686   0.00000  Uiso   1.00
C1740  C     0.92611   0.63180   0.86931   0.00000  Uiso   1.00
C1741  C     0.92903   0.64554   0.92092   0.00000  Uiso   1.00
H1742  H     0.89465   0.63411   0.93472   0.00000  Uiso   1.00
H1743  H     0.96427   0.63409   0.94131   0.00000  Uiso   1.00
H1744  H     0.92903   0.34596   0.92661   0.00000  Uiso   1.00
H1745  H     0.92715   0.59786   0.86539   0.00000  Uiso   1.00
H1746  H     0.96077   0.64304   0.85627   0.00000  Uiso   1.00
C1747  C     0.73480   0.61684   0.82665   0.00000  Uiso   1.00
C1748  C     0.72275   0.60716   0.87483   0.00000  Uiso   1.00
H1749  H     0.68739   0.58751   0.87107   0.00000  Uiso   1.00
H1750  H     0.75407   0.59037   0.89453   0.00000  Uiso   1.00
H1751  H     0.71708   0.63581   0.89540   0.00000  Uiso   1.00
H1752  H     0.70180   0.63171   0.80676   0.00000  Uiso   1.00
H1753  H     0.73785   0.58765   0.80611   0.00000  Uiso   1.00
C1754  C     0.92431   0.37939   0.82373   0.00000  Uiso   1.00
C1755  C     0.95417   0.40156   0.86730   0.00000  Uiso   1.00
H1756  H     0.98089   0.42455   0.85673   0.00000  Uiso   1.00
H1757  H     0.92846   0.41727   0.88878   0.00000  Uiso   1.00
H1758  H     0.97823   0.38027   0.88867   0.00000  Uiso   1.00
H1759  H     0.94918   0.35800   0.80742   0.00000  Uiso   1.00
H1760  H     0.91427   0.40210   0.79696   0.00000  Uiso   1.00
C1761  C     0.77006   0.44225   0.70247   0.00000  Uiso   1.00
O1762  O     0.72489   0.44828   0.70420   0.00000  Uiso   1.00
O1763  O     0.78977   0.40300   0.70749   0.00000  Uiso   1.00
H1764  H     0.76236   0.38076   0.70770   0.00000  Uiso   1.00
C1765  C     0.91657   0.53857   0.96758   0.00000  Uiso   1.00
O1766  O     0.91441   0.56344   0.93787   0.00000  Uiso   1.00
O1767  O     0.96407   0.52542   0.98858   0.00000  Uiso   1.00
H1768  H     0.99379   0.53871   0.97578   0.00000  Uiso   1.00
C1769  C     0.76792   0.44310   0.94052   0.00000  Uiso   1.00
O1770  O     0.72401   0.45055   0.92438   0.00000  Uiso   1.00
O1771  O     0.78476   0.40274   0.93931   0.00000  Uiso   1.00
H1772  H     0.75617   0.38178   0.92768   0.00000  Uiso   1.00
C1773  C     0.89603   0.55908   0.72574   0.00000  Uiso   1.00
O1774  O     0.87839   0.59340   0.72676   0.00000  Uiso   1.00
O1775  O     0.94581   0.55299   0.74741   0.00000  Uiso   1.00
H1776  H     0.96234   0.57873   0.76501   0.00000  Uiso   1.00
C1777  C     0.16399   0.75430   0.83199   0.00000  Uiso   1.00
C1778  C     0.16700   0.91247   0.83444   0.00000  Uiso   1.00
C1779  C     0.06808   0.83311   0.82126   0.00000  Uiso   1.00
C1780  C     0.26527   0.83457   0.84544   0.00000  Uiso   1.00
C1781  C     0.01262   0.83180   0.81500   0.00000  Uiso   1.00
C1782  C     0.32077   0.83740   0.85165   0.00000  Uiso   1.00
C1783  C     0.11646   0.68667   0.83055   0.00000  Uiso   1.00
C1784  C     0.21122   0.98119   0.84239   0.00000  Uiso   1.00
C1785  C     0.11732   0.97647   0.83044   0.00000  Uiso   1.00
C1786  C     0.20976   0.68967   0.83291   0.00000  Uiso   1.00
C1787  C     0.16515   0.95741   0.83640   0.00000  Uiso   1.00
C1788  C     0.16285   0.70939   0.82993   0.00000  Uiso   1.00
C1789  C     0.13485   0.80730   0.68545   0.00000  Uiso   1.00
C1790  C     0.20272   0.85569   0.98195   0.00000  Uiso   1.00
C1791  C     0.13369   0.80807   0.96957   0.00000  Uiso   1.00
C1792  C     0.19954   0.85872   0.69717   0.00000  Uiso   1.00
Cu1793 Cu    0.16667   0.83334   0.88022   0.00000  Uiso   1.00
Cu1794 Cu    0.16667   0.83333   0.78645   0.00000  Uiso   1.00
H1795  H     0.32575   0.82483   0.78009   0.00000  Uiso   1.00
H1796  H     0.00767   0.84391   0.88663   0.00000  Uiso   1.00
N1797  N     0.16668   0.83334   0.95069   0.00000  Uiso   1.00
N1798  N     0.16665   0.83332   0.71597   0.00000  Uiso   1.00
O1799  O     0.16666   0.77322   0.87291   0.00000  Uiso   1.00
O1800  O     0.16667   0.89345   0.79375   0.00000  Uiso   1.00
O1801  O     0.16666   0.77321   0.79372   0.00000  Uiso   1.00
O1802  O     0.16667   0.89346   0.87294   0.00000  Uiso   1.00
O1803  O     0.09161   0.83334   0.86379   0.00000  Uiso   1.00
O1804  O     0.24172   0.83333   0.80288   0.00000  Uiso   1.00
O1805  O     0.09161   0.83333   0.78460   0.00000  Uiso   1.00
O1806  O     0.24172   0.83334   0.88207   0.00000  Uiso   1.00
C1807  C     0.06678   0.70900   0.83145   0.00000  Uiso   1.00
C1808  C     0.04365   0.72063   0.78338   0.00000  Uiso   1.00
H1809  H     0.00713   0.73627   0.78402   0.00000  Uiso   1.00
H1810  H     0.07008   0.74332   0.77258   0.00000  Uiso   1.00
H1811  H     0.03745   0.69327   0.75866   0.00000  Uiso   1.00
H1812  H     0.07347   0.73769   0.85356   0.00000  Uiso   1.00
H1813  H     0.03869   0.69065   0.84686   0.00000  Uiso   1.00
C1814  C     0.25944   0.96514   0.86931   0.00000  Uiso   1.00
C1815  C     0.26236   0.97888   0.92092   0.00000  Uiso   1.00
H1816  H     0.22799   0.96744   0.93472   0.00000  Uiso   1.00
H1817  H     0.29760   0.96742   0.94131   0.00000  Uiso   1.00
H1818  H     0.26237   0.67930   0.92661   0.00000  Uiso   1.00
H1819  H     0.26048   0.93119   0.86539   0.00000  Uiso   1.00
H1820  H     0.29410   0.97637   0.85627   0.00000  Uiso   1.00
C1821  C     0.06814   0.95017   0.82665   0.00000  Uiso   1.00
C1822  C     0.05608   0.94049   0.87483   0.00000  Uiso   1.00
H1823  H     0.02072   0.92084   0.87107   0.00000  Uiso   1.00
H1824  H     0.08740   0.92370   0.89453   0.00000  Uiso   1.00
H1825  H     0.05041   0.96915   0.89540   0.00000  Uiso   1.00
H1826  H     0.03513   0.96504   0.80676   0.00000  Uiso   1.00
H1827  H     0.07118   0.92098   0.80611   0.00000  Uiso   1.00
C1828  C     0.25765   0.71272   0.82373   0.00000  Uiso   1.00
C1829  C     0.28750   0.73490   0.86730   0.00000  Uiso   1.00
H1830  H     0.31423   0.75788   0.85673   0.00000  Uiso   1.00
H1831  H     0.26179   0.75061   0.88878   0.00000  Uiso   1.00
H1832  H     0.31156   0.71360   0.88867   0.00000  Uiso   1.00
H1833  H     0.28251   0.69133   0.80742   0.00000  Uiso   1.00
H1834  H     0.24760   0.73544   0.79696   0.00000  Uiso   1.00
C1835  C     0.10339   0.77559   0.70247   0.00000  Uiso   1.00
O1836  O     0.05822   0.78161   0.70420   0.00000  Uiso   1.00
O1837  O     0.12311   0.73633   0.70749   0.00000  Uiso   1.00
H1838  H     0.09569   0.71409   0.70770   0.00000  Uiso   1.00
C1839  C     0.24990   0.87190   0.96758   0.00000  Uiso   1.00
O1840  O     0.24775   0.89678   0.93787   0.00000  Uiso   1.00
O1841  O     0.29740   0.85876   0.98858   0.00000  Uiso   1.00
H1842  H     0.32713   0.87204   0.97578   0.00000  Uiso   1.00
C1843  C     0.10125   0.77643   0.94052   0.00000  Uiso   1.00
O1844  O     0.05734   0.78389   0.92438   0.00000  Uiso   1.00
O1845  O     0.11810   0.73608   0.93931   0.00000  Uiso   1.00
H1846  H     0.08950   0.71511   0.92768   0.00000  Uiso   1.00
C1847  C     0.22936   0.89241   0.72574   0.00000  Uiso   1.00
O1848  O     0.21172   0.92673   0.72676   0.00000  Uiso   1.00
O1849  O     0.27914   0.88632   0.74741   0.00000  Uiso   1.00
H1850  H     0.29567   0.91207   0.76501   0.00000  Uiso   1.00
C1851  C     0.49733   0.75430   0.83199   0.00000  Uiso   1.00
C1852  C     0.50034   0.91247   0.83444   0.00000  Uiso   1.00
C1853  C     0.40141   0.83311   0.82126   0.00000  Uiso   1.00
C1854  C     0.59860   0.83457   0.84544   0.00000  Uiso   1.00
C1855  C     0.34595   0.83180   0.81500   0.00000  Uiso   1.00
C1856  C     0.65411   0.83740   0.85165   0.00000  Uiso   1.00
C1857  C     0.44980   0.68667   0.83055   0.00000  Uiso   1.00
C1858  C     0.54456   0.98119   0.84239   0.00000  Uiso   1.00
C1859  C     0.45065   0.97647   0.83044   0.00000  Uiso   1.00
C1860  C     0.54309   0.68967   0.83291   0.00000  Uiso   1.00
C1861  C     0.49848   0.95741   0.83640   0.00000  Uiso   1.00
C1862  C     0.49619   0.70939   0.82993   0.00000  Uiso   1.00
C1863  C     0.46818   0.80730   0.68545   0.00000  Uiso   1.00
C1864  C     0.53605   0.85569   0.98195   0.00000  Uiso   1.00
C1865  C     0.46703   0.80807   0.96957   0.00000  Uiso   1.00
C1866  C     0.53287   0.85872   0.69717   0.00000  Uiso   1.00
Cu1867 Cu    0.50000   0.83334   0.88022   0.00000  Uiso   1.00
Cu1868 Cu    0.50000   0.83333   0.78645   0.00000  Uiso   1.00
H1869  H     0.65909   0.82483   0.78009   0.00000  Uiso   1.00
H1870  H     0.34100   0.84391   0.88663   0.00000  Uiso   1.00
N1871  N     0.50001   0.83334   0.95069   0.00000  Uiso   1.00
N1872  N     0.49999   0.83332   0.71597   0.00000  Uiso   1.00
O1873  O     0.50000   0.77322   0.87291   0.00000  Uiso   1.00
O1874  O     0.50000   0.89345   0.79375   0.00000  Uiso   1.00
O1875  O     0.50000   0.77321   0.79372   0.00000  Uiso   1.00
O1876  O     0.50000   0.89346   0.87294   0.00000  Uiso   1.00
O1877  O     0.42495   0.83334   0.86379   0.00000  Uiso   1.00
O1878  O     0.57505   0.83333   0.80288   0.00000  Uiso   1.00
O1879  O     0.42494   0.83333   0.78460   0.00000  Uiso   1.00
O1880  O     0.57506   0.83334   0.88207   0.00000  Uiso   1.00
C1881  C     0.40011   0.70900   0.83145   0.00000  Uiso   1.00
C1882  C     0.37698   0.72063   0.78338   0.00000  Uiso   1.00
H1883  H     0.34046   0.73627   0.78402   0.00000  Uiso   1.00
H1884  H     0.40341   0.74332   0.77258   0.00000  Uiso   1.00
H1885  H     0.37078   0.69327   0.75866   0.00000  Uiso   1.00
H1886  H     0.40680   0.73769   0.85356   0.00000  Uiso   1.00
H1887  H     0.37202   0.69065   0.84686   0.00000  Uiso   1.00
C1888  C     0.59277   0.96514   0.86931   0.00000  Uiso   1.00
C1889  C     0.59569   0.97888   0.92092   0.00000  Uiso   1.00
H1890  H     0.56132   0.96744   0.93472   0.00000  Uiso   1.00
H1891  H     0.63094   0.96742   0.94131   0.00000  Uiso   1.00
H1892  H     0.59570   0.67930   0.92661   0.00000  Uiso   1.00
H1893  H     0.59381   0.93119   0.86539   0.00000  Uiso   1.00
H1894  H     0.62743   0.97637   0.85627   0.00000  Uiso   1.00
C1895  C     0.40147   0.95017   0.82665   0.00000  Uiso   1.00
C1896  C     0.38942   0.94049   0.87483   0.00000  Uiso   1.00
H1897  H     0.35405   0.92084   0.87107   0.00000  Uiso   1.00
H1898  H     0.42074   0.92370   0.89453   0.00000  Uiso   1.00
H1899  H     0.38375   0.96915   0.89540   0.00000  Uiso   1.00
H1900  H     0.36847   0.96504   0.80676   0.00000  Uiso   1.00
H1901  H     0.40452   0.92098   0.80611   0.00000  Uiso   1.00
C1902  C     0.59098   0.71272   0.82373   0.00000  Uiso   1.00
C1903  C     0.62083   0.73490   0.86730   0.00000  Uiso   1.00
H1904  H     0.64756   0.75788   0.85673   0.00000  Uiso   1.00
H1905  H     0.59512   0.75061   0.88878   0.00000  Uiso   1.00
H1906  H     0.64489   0.71360   0.88867   0.00000  Uiso   1.00
H1907  H     0.61584   0.69133   0.80742   0.00000  Uiso   1.00
H1908  H     0.58093   0.73544   0.79696   0.00000  Uiso   1.00
C1909  C     0.43673   0.77559   0.70247   0.00000  Uiso   1.00
O1910  O     0.39156   0.78161   0.70420   0.00000  Uiso   1.00
O1911  O     0.45644   0.73633   0.70749   0.00000  Uiso   1.00
H1912  H     0.42902   0.71409   0.70770   0.00000  Uiso   1.00
C1913  C     0.58324   0.87190   0.96758   0.00000  Uiso   1.00
O1914  O     0.58108   0.89678   0.93787   0.00000  Uiso   1.00
O1915  O     0.63073   0.85876   0.98858   0.00000  Uiso   1.00
H1916  H     0.66046   0.87204   0.97578   0.00000  Uiso   1.00
C1917  C     0.43458   0.77643   0.94052   0.00000  Uiso   1.00
O1918  O     0.39067   0.78389   0.92438   0.00000  Uiso   1.00
O1919  O     0.45143   0.73608   0.93931   0.00000  Uiso   1.00
H1920  H     0.42283   0.71511   0.92768   0.00000  Uiso   1.00
C1921  C     0.56269   0.89241   0.72574   0.00000  Uiso   1.00
O1922  O     0.54505   0.92673   0.72676   0.00000  Uiso   1.00
O1923  O     0.61248   0.88632   0.74741   0.00000  Uiso   1.00
H1924  H     0.62901   0.91207   0.76501   0.00000  Uiso   1.00
C1925  C     0.83066   0.75430   0.83199   0.00000  Uiso   1.00
C1926  C     0.83367   0.91247   0.83444   0.00000  Uiso   1.00
C1927  C     0.73474   0.83311   0.82126   0.00000  Uiso   1.00
C1928  C     0.93193   0.83457   0.84544   0.00000  Uiso   1.00
C1929  C     0.67928   0.83180   0.81500   0.00000  Uiso   1.00
C1930  C     0.98744   0.83740   0.85165   0.00000  Uiso   1.00
C1931  C     0.78313   0.68667   0.83055   0.00000  Uiso   1.00
C1932  C     0.87789   0.98119   0.84239   0.00000  Uiso   1.00
C1933  C     0.78398   0.97647   0.83044   0.00000  Uiso   1.00
C1934  C     0.87642   0.68967   0.83291   0.00000  Uiso   1.00
C1935  C     0.83182   0.95741   0.83640   0.00000  Uiso   1.00
C1936  C     0.82952   0.70939   0.82993   0.00000  Uiso   1.00
C1937  C     0.80152   0.80730   0.68545   0.00000  Uiso   1.00
C1938  C     0.86939   0.85569   0.98195   0.00000  Uiso   1.00
C1939  C     0.80036   0.80807   0.96957   0.00000  Uiso   1.00
C1940  C     0.86621   0.85872   0.69717   0.00000  Uiso   1.00
Cu1941 Cu    0.83333   0.83334   0.88022   0.00000  Uiso   1.00
Cu1942 Cu    0.83333   0.83333   0.78645   0.00000  Uiso   1.00
H1943  H     0.99242   0.82483   0.78009   0.00000  Uiso   1.00
H1944  H     0.67434   0.84391   0.88663   0.00000  Uiso   1.00
N1945  N     0.83335   0.83334   0.95069   0.00000  Uiso   1.00
N1946  N     0.83332   0.83332   0.71597   0.00000  Uiso   1.00
O1947  O     0.83333   0.77322   0.87291   0.00000  Uiso   1.00
O1948  O     0.83334   0.89345   0.79375   0.00000  Uiso   1.00
O1949  O     0.83333   0.77321   0.79372   0.00000  Uiso   1.00
O1950  O     0.83334   0.89346   0.87294   0.00000  Uiso   1.00
O1951  O     0.75828   0.83334   0.86379   0.00000  Uiso   1.00
O1952  O     0.90839   0.83333   0.80288   0.00000  Uiso   1.00
O1953  O     0.75828   0.83333   0.78460   0.00000  Uiso   1.00
O1954  O     0.90839   0.83334   0.88207   0.00000  Uiso   1.00
C1955  C     0.73345   0.70900   0.83145   0.00000  Uiso   1.00
C1956  C     0.71031   0.72063   0.78338   0.00000  Uiso   1.00
H1957  H     0.67379   0.73627   0.78402   0.00000  Uiso   1.00
H1958  H     0.73675   0.74332   0.77258   0.00000  Uiso   1.00
H1959  H     0.70411   0.69327   0.75866   0.00000  Uiso   1.00
H1960  H     0.74013   0.73769   0.85356   0.00000  Uiso   1.00
H1961  H     0.70535   0.69065   0.84686   0.00000  Uiso   1.00
C1962  C     0.92611   0.96514   0.86931   0.00000  Uiso   1.00
C1963  C     0.92903   0.97888   0.92092   0.00000  Uiso   1.00
H1964  H     0.89465   0.96744   0.93472   0.00000  Uiso   1.00
H1965  H     0.96427   0.96742   0.94131   0.00000  Uiso   1.00
H1966  H     0.92903   0.67930   0.92661   0.00000  Uiso   1.00
H1967  H     0.92715   0.93119   0.86539   0.00000  Uiso   1.00
H1968  H     0.96077   0.97637   0.85627   0.00000  Uiso   1.00
C1969  C     0.73480   0.95017   0.82665   0.00000  Uiso   1.00
C1970  C     0.72275   0.94049   0.87483   0.00000  Uiso   1.00
H1971  H     0.68739   0.92084   0.87107   0.00000  Uiso   1.00
H1972  H     0.75407   0.92370   0.89453   0.00000  Uiso   1.00
H1973  H     0.71708   0.96915   0.89540   0.00000  Uiso   1.00
H1974  H     0.70180   0.96504   0.80676   0.00000  Uiso   1.00
H1975  H     0.73785   0.92098   0.80611   0.00000  Uiso   1.00
C1976  C     0.92431   0.71272   0.82373   0.00000  Uiso   1.00
C1977  C     0.95417   0.73490   0.86730   0.00000  Uiso   1.00
H1978  H     0.98089   0.75788   0.85673   0.00000  Uiso   1.00
H1979  H     0.92846   0.75061   0.88878   0.00000  Uiso   1.00
H1980  H     0.97823   0.71360   0.88867   0.00000  Uiso   1.00
H1981  H     0.94918   0.69133   0.80742   0.00000  Uiso   1.00
H1982  H     0.91427   0.73544   0.79696   0.00000  Uiso   1.00
C1983  C     0.77006   0.77559   0.70247   0.00000  Uiso   1.00
O1984  O     0.72489   0.78161   0.70420   0.00000  Uiso   1.00
O1985  O     0.78977   0.73633   0.70749   0.00000  Uiso   1.00
H1986  H     0.76236   0.71409   0.70770   0.00000  Uiso   1.00
C1987  C     0.91657   0.87190   0.96758   0.00000  Uiso   1.00
O1988  O     0.91441   0.89678   0.93787   0.00000  Uiso   1.00
O1989  O     0.96407   0.85876   0.98858   0.00000  Uiso   1.00
H1990  H     0.99379   0.87204   0.97578   0.00000  Uiso   1.00
C1991  C     0.76792   0.77643   0.94052   0.00000  Uiso   1.00
O1992  O     0.72401   0.78389   0.92438   0.00000  Uiso   1.00
O1993  O     0.78476   0.73608   0.93931   0.00000  Uiso   1.00
H1994  H     0.75617   0.71511   0.92768   0.00000  Uiso   1.00
C1995  C     0.89603   0.89241   0.72574   0.00000  Uiso   1.00
O1996  O     0.87839   0.92673   0.72676   0.00000  Uiso   1.00
O1997  O     0.94581   0.88632   0.74741   0.00000  Uiso   1.00
H1998  H     0.96234   0.91207   0.76501   0.00000  Uiso   1.00
loop_
_geom_bond_atom_site_label_1
_geom_bond_atom_site_label_2
_geom_bond_distance
_geom_bond_site_symmetry_2
_ccdc_geom_bond_type
C1     O25     1.309   .     A
C1     C12     1.460   .     S
C1     O23     1.305   .     A
C2     O26     1.308   .     A
C2     C11     1.464   .     S
C2     O24     1.308   .     A
C3     O27     1.299   .     A
C3     O29     1.313   .     A
C3     C5      1.449   .     S
C4     C6      1.450   .     S
C4     O28     1.299   .     A
C4     O30     1.314   .     A
C5     C154    1.347   1_455 S
C5     H167    1.085   1_455 S
C6     C79     1.347   .     S
C6     H94     1.085   .     S
C7     C12     1.418   .     A
C7     C31     1.520   .     S
C7     C453    1.418   1_545 S
C8     C38     1.512   .     S
C8     C11     1.409   .     A
C8     C232    1.403   .     S
C9     C45     1.525   .     S
C9     C11     1.414   .     A
C9     C229    1.418   .     S
C10    C52     1.519   .     S
C10    C12     1.404   .     A
C10    C452    1.403   1_545 S
C13    C59     1.460   .     S
C13    N22     1.371   .     A
C13    C1347   1.430   1_554 S
C14    N21     1.380   .     A
C14    C63     1.467   .     S
C14    C682    1.427   .     S
C15    N21     1.375   .     A
C15    C67     1.471   .     S
C15    C679    1.430   .     S
C16    C71     1.478   .     S
C16    N22     1.374   .     A
C16    C1346   1.427   1_554 S
Cu17   Cu18    2.730   .     S
Cu17   O30     1.976   .     S
Cu17   O23     1.959   .     S
Cu17   O26     1.980   .     S
Cu17   O27     1.969   .     S
Cu17   N21     2.051   .     S
Cu18   N22     2.051   .     S
Cu18   O29     1.976   .     S
Cu18   O25     1.980   .     S
Cu18   O28     1.969   .     S
Cu18   O24     1.959   .     S
H19    C79     1.085   .     S
H20    C154    1.085   1_455 S
C31    C32     1.511   .     S
C31    H36     1.103   .     S
C31    H37     1.101   .     S
C32    H35     1.110   .     S
C32    H33     1.105   .     S
C32    H34     1.093   .     S
C38    H44     1.103   .     S
C38    C39     1.537   .     S
C38    H43     1.107   .     S
C39    H41     1.110   .     S
C39    H40     1.110   .     S
C39    H264    1.104   .     S
H42    C483    1.104   1_545 S
C45    C46     1.530   .     S
C45    H50     1.108   .     S
C45    H51     1.109   .     S
C46    H49     1.110   .     S
C46    H48     1.107   .     S
C46    H47     1.107   .     S
C52    H58     1.109   .     S
C52    H57     1.107   .     S
C52    C53     1.528   .     S
C53    H55     1.108   .     S
C53    H56     1.104   .     S
C53    H54     1.102   .     S
C59    O60     1.222   .     D
C59    O61     1.399   .     S
O61    H62     1.012   .     S
C63    O65     1.398   .     S
C63    O64     1.210   .     D
O65    H66     1.014   .     S
C67    O68     1.220   .     D
C67    O69     1.399   .     S
O69    H70     1.013   .     S
C71    O72     1.223   .     D
C71    O73     1.395   .     S
O73    H74     1.014   .     S
C75    O99     1.309   .     A
C75    C86     1.460   .     S
C75    O97     1.305   .     A
C76    O100    1.308   .     A
C76    C85     1.464   .     S
C76    O98     1.308   .     A
C77    O101    1.299   .     A
C77    O103    1.313   .     A
C77    C79     1.449   .     S
C78    C80     1.450   .     S
C78    O102    1.299   .     A
C78    O104    1.314   .     A
C80    C153    1.347   .     S
C80    H168    1.085   .     S
C81    C86     1.418   .     A
C81    C105    1.520   .     S
C81    C527    1.418   1_545 S
C82    C112    1.512   .     S
C82    C85     1.409   .     A
C82    C306    1.403   .     S
C83    C119    1.525   .     S
C83    C85     1.414   .     A
C83    C303    1.418   .     S
C84    C126    1.519   .     S
C84    C86     1.404   .     A
C84    C526    1.403   1_545 S
C87    C133    1.460   .     S
C87    N96     1.371   .     A
C87    C1421   1.430   1_554 S
C88    N95     1.380   .     A
C88    C137    1.467   .     S
C88    C756    1.427   .     S
C89    N95     1.375   .     A
C89    C141    1.471   .     S
C89    C753    1.430   .     S
C90    C145    1.478   .     S
C90    N96     1.374   .     A
C90    C1420   1.427   1_554 S
Cu91   Cu92    2.730   .     S
Cu91   O104    1.976   .     S
Cu91   O97     1.959   .     S
Cu91   O100    1.980   .     S
Cu91   O101    1.969   .     S
Cu91   N95     2.051   .     S
Cu92   N96     2.051   .     S
Cu92   O103    1.976   .     S
Cu92   O99     1.980   .     S
Cu92   O102    1.969   .     S
Cu92   O98     1.959   .     S
H93    C153    1.085   .     S
C105   C106    1.511   .     S
C105   H110    1.103   .     S
C105   H111    1.101   .     S
C106   H109    1.110   .     S
C106   H107    1.105   .     S
C106   H108    1.093   .     S
C112   H118    1.103   .     S
C112   C113    1.537   .     S
C112   H117    1.107   .     S
C113   H115    1.110   .     S
C113   H114    1.110   .     S
C113   H338    1.104   .     S
H116   C557    1.104   1_545 S
C119   C120    1.530   .     S
C119   H124    1.108   .     S
C119   H125    1.109   .     S
C120   H123    1.110   .     S
C120   H122    1.107   .     S
C120   H121    1.107   .     S
C126   H132    1.109   .     S
C126   H131    1.107   .     S
C126   C127    1.528   .     S
C127   H129    1.108   .     S
C127   H130    1.104   .     S
C127   H128    1.102   .     S
C133   O134    1.222   .     D
C133   O135    1.399   .     S
O135   H136    1.012   .     S
C137   O139    1.398   .     S
C137   O138    1.210   .     D
O139   H140    1.014   .     S
C141   O142    1.220   .     D
C141   O143    1.399   .     S
O143   H144    1.013   .     S
C145   O146    1.223   .     D
C145   O147    1.395   .     S
O147   H148    1.014   .     S
C149   O173    1.309   .     A
C149   C160    1.460   .     S
C149   O171    1.305   .     A
C150   O174    1.308   .     A
C150   C159    1.464   .     S
C150   O172    1.308   .     A
C151   O175    1.299   .     A
C151   O177    1.313   .     A
C151   C153    1.449   .     S
C152   C154    1.450   .     S
C152   O176    1.299   .     A
C152   O178    1.314   .     A
C154   C5      1.347   1_655 S
C154   H20     1.085   1_655 S
C155   C160    1.418   .     A
C155   C179    1.520   .     S
C155   C601    1.418   1_545 S
C156   C186    1.512   .     S
C156   C159    1.409   .     A
C156   C380    1.403   .     S
C157   C193    1.525   .     S
C157   C159    1.414   .     A
C157   C377    1.418   .     S
C158   C200    1.519   .     S
C158   C160    1.404   .     A
C158   C600    1.403   1_545 S
C161   C207    1.460   .     S
C161   N170    1.371   .     A
C161   C1495   1.430   1_554 S
C162   N169    1.380   .     A
C162   C211    1.467   .     S
C162   C830    1.427   .     S
C163   N169    1.375   .     A
C163   C215    1.471   .     S
C163   C827    1.430   .     S
C164   C219    1.478   .     S
C164   N170    1.374   .     A
C164   C1494   1.427   1_554 S
Cu165  Cu166   2.730   .     S
Cu165  O178    1.976   .     S
Cu165  O171    1.959   .     S
Cu165  O174    1.980   .     S
Cu165  O175    1.969   .     S
Cu165  N169    2.051   .     S
Cu166  N170    2.051   .     S
Cu166  O177    1.976   .     S
Cu166  O173    1.980   .     S
Cu166  O176    1.969   .     S
Cu166  O172    1.959   .     S
H167   C5      1.085   1_655 S
C179   C180    1.511   .     S
C179   H184    1.103   .     S
C179   H185    1.101   .     S
C180   H183    1.110   .     S
C180   H181    1.105   .     S
C180   H182    1.093   .     S
C186   H192    1.103   .     S
C186   C187    1.537   .     S
C186   H191    1.107   .     S
C187   H189    1.110   .     S
C187   H188    1.110   .     S
C187   H412    1.104   .     S
H190   C631    1.104   1_545 S
C193   C194    1.530   .     S
C193   H198    1.108   .     S
C193   H199    1.109   .     S
C194   H197    1.110   .     S
C194   H196    1.107   .     S
C194   H195    1.107   .     S
C200   H206    1.109   .     S
C200   H205    1.107   .     S
C200   C201    1.528   .     S
C201   H203    1.108   .     S
C201   H204    1.104   .     S
C201   H202    1.102   .     S
C207   O208    1.222   .     D
C207   O209    1.399   .     S
O209   H210    1.012   .     S
C211   O213    1.398   .     S
C211   O212    1.210   .     D
O213   H214    1.014   .     S
C215   O216    1.220   .     D
C215   O217    1.399   .     S
O217   H218    1.013   .     S
C219   O220    1.223   .     D
C219   O221    1.395   .     S
O221   H222    1.014   .     S
C223   O247    1.309   .     A
C223   C234    1.460   .     S
C223   O245    1.305   .     A
C224   O248    1.308   .     A
C224   C233    1.464   .     S
C224   O246    1.308   .     A
C225   O249    1.299   .     A
C225   O251    1.313   .     A
C225   C227    1.449   .     S
C226   C228    1.450   .     S
C226   O250    1.299   .     A
C226   O252    1.314   .     A
C227   C376    1.347   1_455 S
C227   H389    1.085   1_455 S
C228   C301    1.347   .     S
C228   H316    1.085   .     S
C229   C234    1.418   .     A
C229   C253    1.520   .     S
C230   C260    1.512   .     S
C230   C233    1.409   .     A
C230   C454    1.403   .     S
C231   C267    1.525   .     S
C231   C233    1.414   .     A
C231   C451    1.418   .     S
C232   C274    1.519   .     S
C232   C234    1.404   .     A
C235   C281    1.460   .     S
C235   N244    1.371   .     A
C235   C1569   1.430   1_554 S
C236   N243    1.380   .     A
C236   C285    1.467   .     S
C236   C904    1.427   .     S
C237   N243    1.375   .     A
C237   C289    1.471   .     S
C237   C901    1.430   .     S
C238   C293    1.478   .     S
C238   N244    1.374   .     A
C238   C1568   1.427   1_554 S
Cu239  Cu240   2.730   .     S
Cu239  O252    1.976   .     S
Cu239  O245    1.959   .     S
Cu239  O248    1.980   .     S
Cu239  O249    1.969   .     S
Cu239  N243    2.051   .     S
Cu240  N244    2.051   .     S
Cu240  O251    1.976   .     S
Cu240  O247    1.980   .     S
Cu240  O250    1.969   .     S
Cu240  O246    1.959   .     S
H241   C301    1.085   .     S
H242   C376    1.085   1_455 S
C253   C254    1.511   .     S
C253   H258    1.103   .     S
C253   H259    1.101   .     S
C254   H257    1.110   .     S
C254   H255    1.105   .     S
C254   H256    1.093   .     S
C260   H266    1.103   .     S
C260   C261    1.537   .     S
C260   H265    1.107   .     S
C261   H263    1.110   .     S
C261   H262    1.110   .     S
C261   H486    1.104   .     S
C267   C268    1.530   .     S
C267   H272    1.108   .     S
C267   H273    1.109   .     S
C268   H271    1.110   .     S
C268   H270    1.107   .     S
C268   H269    1.107   .     S
C274   H280    1.109   .     S
C274   H279    1.107   .     S
C274   C275    1.528   .     S
C275   H277    1.108   .     S
C275   H278    1.104   .     S
C275   H276    1.102   .     S
C281   O282    1.222   .     D
C281   O283    1.399   .     S
O283   H284    1.012   .     S
C285   O287    1.398   .     S
C285   O286    1.210   .     D
O287   H288    1.014   .     S
C289   O290    1.220   .     D
C289   O291    1.399   .     S
O291   H292    1.013   .     S
C293   O294    1.223   .     D
C293   O295    1.395   .     S
O295   H296    1.014   .     S
C297   O321    1.309   .     A
C297   C308    1.460   .     S
C297   O319    1.305   .     A
C298   O322    1.308   .     A
C298   C307    1.464   .     S
C298   O320    1.308   .     A
C299   O323    1.299   .     A
C299   O325    1.313   .     A
C299   C301    1.449   .     S
C300   C302    1.450   .     S
C300   O324    1.299   .     A
C300   O326    1.314   .     A
C302   C375    1.347   .     S
C302   H390    1.085   .     S
C303   C308    1.418   .     A
C303   C327    1.520   .     S
C304   C334    1.512   .     S
C304   C307    1.409   .     A
C304   C528    1.403   .     S
C305   C341    1.525   .     S
C305   C307    1.414   .     A
C305   C525    1.418   .     S
C306   C348    1.519   .     S
C306   C308    1.404   .     A
C309   C355    1.460   .     S
C309   N318    1.371   .     A
C309   C1643   1.430   1_554 S
C310   N317    1.380   .     A
C310   C359    1.467   .     S
C310   C978    1.427   .     S
C311   N317    1.375   .     A
C311   C363    1.471   .     S
C311   C975    1.430   .     S
C312   C367    1.478   .     S
C312   N318    1.374   .     A
C312   C1642   1.427   1_554 S
Cu313  Cu314   2.730   .     S
Cu313  O326    1.976   .     S
Cu313  O319    1.959   .     S
Cu313  O322    1.980   .     S
Cu313  O323    1.969   .     S
Cu313  N317    2.051   .     S
Cu314  N318    2.051   .     S
Cu314  O325    1.976   .     S
Cu314  O321    1.980   .     S
Cu314  O324    1.969   .     S
Cu314  O320    1.959   .     S
H315   C375    1.085   .     S
C327   C328    1.511   .     S
C327   H332    1.103   .     S
C327   H333    1.101   .     S
C328   H331    1.110   .     S
C328   H329    1.105   .     S
C328   H330    1.093   .     S
C334   H340    1.103   .     S
C334   C335    1.537   .     S
C334   H339    1.107   .     S
C335   H337    1.110   .     S
C335   H336    1.110   .     S
C335   H560    1.104   .     S
C341   C342    1.530   .     S
C341   H346    1.108   .     S
C341   H347    1.109   .     S
C342   H345    1.110   .     S
C342   H344    1.107   .     S
C342   H343    1.107   .     S
C348   H354    1.109   .     S
C348   H353    1.107   .     S
C348   C349    1.528   .     S
C349   H351    1.108   .     S
C349   H352    1.104   .     S
C349   H350    1.102   .     S
C355   O356    1.222   .     D
C355   O357    1.399   .     S
O357   H358    1.012   .     S
C359   O361    1.398   .     S
C359   O360    1.210   .     D
O361   H362    1.014   .     S
C363   O364    1.220   .     D
C363   O365    1.399   .     S
O365   H366    1.013   .     S
C367   O368    1.223   .     D
C367   O369    1.395   .     S
O369   H370    1.014   .     S
C371   O395    1.309   .     A
C371   C382    1.460   .     S
C371   O393    1.305   .     A
C372   O396    1.308   .     A
C372   C381    1.464   .     S
C372   O394    1.308   .     A
C373   O397    1.299   .     A
C373   O399    1.313   .     A
C373   C375    1.449   .     S
C374   C376    1.450   .     S
C374   O398    1.299   .     A
C374   O400    1.314   .     A
C376   C227    1.347   1_655 S
C376   H242    1.085   1_655 S
C377   C382    1.418   .     A
C377   C401    1.520   .     S
C378   C408    1.512   .     S
C378   C381    1.409   .     A
C378   C602    1.403   .     S
C379   C415    1.525   .     S
C379   C381    1.414   .     A
C379   C599    1.418   .     S
C380   C422    1.519   .     S
C380   C382    1.404   .     A
C383   C429    1.460   .     S
C383   N392    1.371   .     A
C383   C1717   1.430   1_554 S
C384   N391    1.380   .     A
C384   C433    1.467   .     S
C384   C1052   1.427   .     S
C385   N391    1.375   .     A
C385   C437    1.471   .     S
C385   C1049   1.430   .     S
C386   C441    1.478   .     S
C386   N392    1.374   .     A
C386   C1716   1.427   1_554 S
Cu387  Cu388   2.730   .     S
Cu387  O400    1.976   .     S
Cu387  O393    1.959   .     S
Cu387  O396    1.980   .     S
Cu387  O397    1.969   .     S
Cu387  N391    2.051   .     S
Cu388  N392    2.051   .     S
Cu388  O399    1.976   .     S
Cu388  O395    1.980   .     S
Cu388  O398    1.969   .     S
Cu388  O394    1.959   .     S
H389   C227    1.085   1_655 S
C401   C402    1.511   .     S
C401   H406    1.103   .     S
C401   H407    1.101   .     S
C402   H405    1.110   .     S
C402   H403    1.105   .     S
C402   H404    1.093   .     S
C408   H414    1.103   .     S
C408   C409    1.537   .     S
C408   H413    1.107   .     S
C409   H411    1.110   .     S
C409   H410    1.110   .     S
C409   H634    1.104   .     S
C415   C416    1.530   .     S
C415   H420    1.108   .     S
C415   H421    1.109   .     S
C416   H419    1.110   .     S
C416   H418    1.107   .     S
C416   H417    1.107   .     S
C422   H428    1.109   .     S
C422   H427    1.107   .     S
C422   C423    1.528   .     S
C423   H425    1.108   .     S
C423   H426    1.104   .     S
C423   H424    1.102   .     S
C429   O430    1.222   .     D
C429   O431    1.399   .     S
O431   H432    1.012   .     S
C433   O435    1.398   .     S
C433   O434    1.210   .     D
O435   H436    1.014   .     S
C437   O438    1.220   .     D
C437   O439    1.399   .     S
O439   H440    1.013   .     S
C441   O442    1.223   .     D
C441   O443    1.395   .     S
O443   H444    1.014   .     S
C445   O469    1.309   .     A
C445   C456    1.460   .     S
C445   O467    1.305   .     A
C446   O470    1.308   .     A
C446   C455    1.464   .     S
C446   O468    1.308   .     A
C447   O471    1.299   .     A
C447   O473    1.313   .     A
C447   C449    1.449   .     S
C448   C450    1.450   .     S
C448   O472    1.299   .     A
C448   O474    1.314   .     A
C449   C598    1.347   1_455 S
C449   H611    1.085   1_455 S
C450   C523    1.347   .     S
C450   H538    1.085   .     S
C451   C456    1.418   .     A
C451   C475    1.520   .     S
C452   C482    1.512   .     S
C452   C455    1.409   .     A
C452   C10     1.403   1_565 S
C453   C489    1.525   .     S
C453   C455    1.414   .     A
C453   C7      1.418   1_565 S
C454   C496    1.519   .     S
C454   C456    1.404   .     A
C457   C503    1.460   .     S
C457   N466    1.371   .     A
C457   C1791   1.430   1_554 S
C458   N465    1.380   .     A
C458   C507    1.467   .     S
C458   C1126   1.427   .     S
C459   N465    1.375   .     A
C459   C511    1.471   .     S
C459   C1123   1.430   .     S
C460   C515    1.478   .     S
C460   N466    1.374   .     A
C460   C1790   1.427   1_554 S
Cu461  Cu462   2.730   .     S
Cu461  O474    1.976   .     S
Cu461  O467    1.959   .     S
Cu461  O470    1.980   .     S
Cu461  O471    1.969   .     S
Cu461  N465    2.051   .     S
Cu462  N466    2.051   .     S
Cu462  O473    1.976   .     S
Cu462  O469    1.980   .     S
Cu462  O472    1.969   .     S
Cu462  O468    1.959   .     S
H463   C523    1.085   .     S
H464   C598    1.085   1_455 S
C475   C476    1.511   .     S
C475   H480    1.103   .     S
C475   H481    1.101   .     S
C476   H479    1.110   .     S
C476   H477    1.105   .     S
C476   H478    1.093   .     S
C482   H488    1.103   .     S
C482   C483    1.537   .     S
C482   H487    1.107   .     S
C483   H485    1.110   .     S
C483   H484    1.110   .     S
C483   H42     1.104   1_565 S
C489   C490    1.530   .     S
C489   H494    1.108   .     S
C489   H495    1.109   .     S
C490   H493    1.110   .     S
C490   H492    1.107   .     S
C490   H491    1.107   .     S
C496   H502    1.109   .     S
C496   H501    1.107   .     S
C496   C497    1.528   .     S
C497   H499    1.108   .     S
C497   H500    1.104   .     S
C497   H498    1.102   .     S
C503   O504    1.222   .     D
C503   O505    1.399   .     S
O505   H506    1.012   .     S
C507   O509    1.398   .     S
C507   O508    1.210   .     D
O509   H510    1.014   .     S
C511   O512    1.220   .     D
C511   O513    1.399   .     S
O513   H514    1.013   .     S
C515   O516    1.223   .     D
C515   O517    1.395   .     S
O517   H518    1.014   .     S
C519   O543    1.309   .     A
C519   C530    1.460   .     S
C519   O541    1.305   .     A
C520   O544    1.308   .     A
C520   C529    1.464   .     S
C520   O542    1.308   .     A
C521   O545    1.299   .     A
C521   O547    1.313   .     A
C521   C523    1.449   .     S
C522   C524    1.450   .     S
C522   O546    1.299   .     A
C522   O548    1.314   .     A
C524   C597    1.347   .     S
C524   H612    1.085   .     S
C525   C530    1.418   .     A
C525   C549    1.520   .     S
C526   C556    1.512   .     S
C526   C529    1.409   .     A
C526   C84     1.403   1_565 S
C527   C563    1.525   .     S
C527   C529    1.414   .     A
C527   C81     1.418   1_565 S
C528   C570    1.519   .     S
C528   C530    1.404   .     A
C531   C577    1.460   .     S
C531   N540    1.371   .     A
C531   C1865   1.430   1_554 S
C532   N539    1.380   .     A
C532   C581    1.467   .     S
C532   C1200   1.427   .     S
C533   N539    1.375   .     A
C533   C585    1.471   .     S
C533   C1197   1.430   .     S
C534   C589    1.478   .     S
C534   N540    1.374   .     A
C534   C1864   1.427   1_554 S
Cu535  Cu536   2.730   .     S
Cu535  O548    1.976   .     S
Cu535  O541    1.959   .     S
Cu535  O544    1.980   .     S
Cu535  O545    1.969   .     S
Cu535  N539    2.051   .     S
Cu536  N540    2.051   .     S
Cu536  O547    1.976   .     S
Cu536  O543    1.980   .     S
Cu536  O546    1.969   .     S
Cu536  O542    1.959   .     S
H537   C597    1.085   .     S
C549   C550    1.511   .     S
C549   H554    1.103   .     S
C549   H555    1.101   .     S
C550   H553    1.110   .     S
C550   H551    1.105   .     S
C550   H552    1.093   .     S
C556   H562    1.103   .     S
C556   C557    1.537   .     S
C556   H561    1.107   .     S
C557   H559    1.110   .     S
C557   H558    1.110   .     S
C557   H116    1.104   1_565 S
C563   C564    1.530   .     S
C563   H568    1.108   .     S
C563   H569    1.109   .     S
C564   H567    1.110   .     S
C564   H566    1.107   .     S
C564   H565    1.107   .     S
C570   H576    1.109   .     S
C570   H575    1.107   .     S
C570   C571    1.528   .     S
C571   H573    1.108   .     S
C571   H574    1.104   .     S
C571   H572    1.102   .     S
C577   O578    1.222   .     D
C577   O579    1.399   .     S
O579   H580    1.012   .     S
C581   O583    1.398   .     S
C581   O582    1.210   .     D
O583   H584    1.014   .     S
C585   O586    1.220   .     D
C585   O587    1.399   .     S
O587   H588    1.013   .     S
C589   O590    1.223   .     D
C589   O591    1.395   .     S
O591   H592    1.014   .     S
C593   O617    1.309   .     A
C593   C604    1.460   .     S
C593   O615    1.305   .     A
C594   O618    1.308   .     A
C594   C603    1.464   .     S
C594   O616    1.308   .     A
C595   O619    1.299   .     A
C595   O621    1.313   .     A
C595   C597    1.449   .     S
C596   C598    1.450   .     S
C596   O620    1.299   .     A
C596   O622    1.314   .     A
C598   C449    1.347   1_655 S
C598   H464    1.085   1_655 S
C599   C604    1.418   .     A
C599   C623    1.520   .     S
C600   C630    1.512   .     S
C600   C603    1.409   .     A
C600   C158    1.403   1_565 S
C601   C637    1.525   .     S
C601   C603    1.414   .     A
C601   C155    1.418   1_565 S
C602   C644    1.519   .     S
C602   C604    1.404   .     A
C605   C651    1.460   .     S
C605   N614    1.371   .     A
C605   C1939   1.430   1_554 S
C606   N613    1.380   .     A
C606   C655    1.467   .     S
C606   C1274   1.427   .     S
C607   N613    1.375   .     A
C607   C659    1.471   .     S
C607   C1271   1.430   .     S
C608   C663    1.478   .     S
C608   N614    1.374   .     A
C608   C1938   1.427   1_554 S
Cu609  Cu610   2.730   .     S
Cu609  O622    1.976   .     S
Cu609  O615    1.959   .     S
Cu609  O618    1.980   .     S
Cu609  O619    1.969   .     S
Cu609  N613    2.051   .     S
Cu610  N614    2.051   .     S
Cu610  O621    1.976   .     S
Cu610  O617    1.980   .     S
Cu610  O620    1.969   .     S
Cu610  O616    1.959   .     S
H611   C449    1.085   1_655 S
C623   C624    1.511   .     S
C623   H628    1.103   .     S
C623   H629    1.101   .     S
C624   H627    1.110   .     S
C624   H625    1.105   .     S
C624   H626    1.093   .     S
C630   H636    1.103   .     S
C630   C631    1.537   .     S
C630   H635    1.107   .     S
C631   H633    1.110   .     S
C631   H632    1.110   .     S
C631   H190    1.104   1_565 S
C637   C638    1.530   .     S
C637   H642    1.108   .     S
C637   H643    1.109   .     S
C638   H641    1.110   .     S
C638   H640    1.107   .     S
C638   H639    1.107   .     S
C644   H650    1.109   .     S
C644   H649    1.107   .     S
C644   C645    1.528   .     S
C645   H647    1.108   .     S
C645   H648    1.104   .     S
C645   H646    1.102   .     S
C651   O652    1.222   .     D
C651   O653    1.399   .     S
O653   H654    1.012   .     S
C655   O657    1.398   .     S
C655   O656    1.210   .     D
O657   H658    1.014   .     S
C659   O660    1.220   .     D
C659   O661    1.399   .     S
O661   H662    1.013   .     S
C663   O664    1.223   .     D
C663   O665    1.395   .     S
O665   H666    1.014   .     S
C667   O691    1.309   .     A
C667   C678    1.460   .     S
C667   O689    1.305   .     A
C668   O692    1.308   .     A
C668   C677    1.464   .     S
C668   O690    1.308   .     A
C669   O693    1.299   .     A
C669   O695    1.313   .     A
C669   C671    1.449   .     S
C670   C672    1.450   .     S
C670   O694    1.299   .     A
C670   O696    1.314   .     A
C671   C820    1.347   1_455 S
C671   H833    1.085   1_455 S
C672   C745    1.347   .     S
C672   H760    1.085   .     S
C673   C678    1.418   .     A
C673   C697    1.520   .     S
C673   C1119   1.418   1_545 S
C674   C704    1.512   .     S
C674   C677    1.409   .     A
C674   C898    1.403   .     S
C675   C711    1.525   .     S
C675   C677    1.414   .     A
C675   C895    1.418   .     S
C676   C718    1.519   .     S
C676   C678    1.404   .     A
C676   C1118   1.403   1_545 S
C679   C725    1.460   .     S
C679   N688    1.371   .     A
C680   N687    1.380   .     A
C680   C729    1.467   .     S
C680   C1348   1.427   .     S
C681   N687    1.375   .     A
C681   C733    1.471   .     S
C681   C1345   1.430   .     S
C682   C737    1.478   .     S
C682   N688    1.374   .     A
Cu683  Cu684   2.730   .     S
Cu683  O696    1.976   .     S
Cu683  O689    1.959   .     S
Cu683  O692    1.980   .     S
Cu683  O693    1.969   .     S
Cu683  N687    2.051   .     S
Cu684  N688    2.051   .     S
Cu684  O695    1.976   .     S
Cu684  O691    1.980   .     S
Cu684  O694    1.969   .     S
Cu684  O690    1.959   .     S
H685   C745    1.085   .     S
H686   C820    1.085   1_455 S
C697   C698    1.511   .     S
C697   H702    1.103   .     S
C697   H703    1.101   .     S
C698   H701    1.110   .     S
C698   H699    1.105   .     S
C698   H700    1.093   .     S
C704   H710    1.103   .     S
C704   C705    1.537   .     S
C704   H709    1.107   .     S
C705   H707    1.110   .     S
C705   H706    1.110   .     S
C705   H930    1.104   .     S
H708   C1149   1.104   1_545 S
C711   C712    1.530   .     S
C711   H716    1.108   .     S
C711   H717    1.109   .     S
C712   H715    1.110   .     S
C712   H714    1.107   .     S
C712   H713    1.107   .     S
C718   H724    1.109   .     S
C718   H723    1.107   .     S
C718   C719    1.528   .     S
C719   H721    1.108   .     S
C719   H722    1.104   .     S
C719   H720    1.102   .     S
C725   O726    1.222   .     D
C725   O727    1.399   .     S
O727   H728    1.012   .     S
C729   O731    1.398   .     S
C729   O730    1.210   .     D
O731   H732    1.014   .     S
C733   O734    1.220   .     D
C733   O735    1.399   .     S
O735   H736    1.013   .     S
C737   O738    1.223   .     D
C737   O739    1.395   .     S
O739   H740    1.014   .     S
C741   O765    1.309   .     A
C741   C752    1.460   .     S
C741   O763    1.305   .     A
C742   O766    1.308   .     A
C742   C751    1.464   .     S
C742   O764    1.308   .     A
C743   O767    1.299   .     A
C743   O769    1.313   .     A
C743   C745    1.449   .     S
C744   C746    1.450   .     S
C744   O768    1.299   .     A
C744   O770    1.314   .     A
C746   C819    1.347   .     S
C746   H834    1.085   .     S
C747   C752    1.418   .     A
C747   C771    1.520   .     S
C747   C1193   1.418   1_545 S
C748   C778    1.512   .     S
C748   C751    1.409   .     A
C748   C972    1.403   .     S
C749   C785    1.525   .     S
C749   C751    1.414   .     A
C749   C969    1.418   .     S
C750   C792    1.519   .     S
C750   C752    1.404   .     A
C750   C1192   1.403   1_545 S
C753   C799    1.460   .     S
C753   N762    1.371   .     A
C754   N761    1.380   .     A
C754   C803    1.467   .     S
C754   C1422   1.427   .     S
C755   N761    1.375   .     A
C755   C807    1.471   .     S
C755   C1419   1.430   .     S
C756   C811    1.478   .     S
C756   N762    1.374   .     A
Cu757  Cu758   2.730   .     S
Cu757  O770    1.976   .     S
Cu757  O763    1.959   .     S
Cu757  O766    1.980   .     S
Cu757  O767    1.969   .     S
Cu757  N761    2.051   .     S
Cu758  N762    2.051   .     S
Cu758  O769    1.976   .     S
Cu758  O765    1.980   .     S
Cu758  O768    1.969   .     S
Cu758  O764    1.959   .     S
H759   C819    1.085   .     S
C771   C772    1.511   .     S
C771   H776    1.103   .     S
C771   H777    1.101   .     S
C772   H775    1.110   .     S
C772   H773    1.105   .     S
C772   H774    1.093   .     S
C778   H784    1.103   .     S
C778   C779    1.537   .     S
C778   H783    1.107   .     S
C779   H781    1.110   .     S
C779   H780    1.110   .     S
C779   H1004   1.104   .     S
H782   C1223   1.104   1_545 S
C785   C786    1.530   .     S
C785   H790    1.108   .     S
C785   H791    1.109   .     S
C786   H789    1.110   .     S
C786   H788    1.107   .     S
C786   H787    1.107   .     S
C792   H798    1.109   .     S
C792   H797    1.107   .     S
C792   C793    1.528   .     S
C793   H795    1.108   .     S
C793   H796    1.104   .     S
C793   H794    1.102   .     S
C799   O800    1.222   .     D
C799   O801    1.399   .     S
O801   H802    1.012   .     S
C803   O805    1.398   .     S
C803   O804    1.210   .     D
O805   H806    1.014   .     S
C807   O808    1.220   .     D
C807   O809    1.399   .     S
O809   H810    1.013   .     S
C811   O812    1.223   .     D
C811   O813    1.395   .     S
O813   H814    1.014   .     S
C815   O839    1.309   .     A
C815   C826    1.460   .     S
C815   O837    1.305   .     A
C816   O840    1.308   .     A
C816   C825    1.464   .     S
C816   O838    1.308   .     A
C817   O841    1.299   .     A
C817   O843    1.313   .     A
C817   C819    1.449   .     S
C818   C820    1.450   .     S
C818   O842    1.299   .     A
C818   O844    1.314   .     A
C820   C671    1.347   1_655 S
C820   H686    1.085   1_655 S
C821   C826    1.418   .     A
C821   C845    1.520   .     S
C821   C1267   1.418   1_545 S
C822   C852    1.512   .     S
C822   C825    1.409   .     A
C822   C1046   1.403   .     S
C823   C859    1.525   .     S
C823   C825    1.414   .     A
C823   C1043   1.418   .     S
C824   C866    1.519   .     S
C824   C826    1.404   .     A
C824   C1266   1.403   1_545 S
C827   C873    1.460   .     S
C827   N836    1.371   .     A
C828   N835    1.380   .     A
C828   C877    1.467   .     S
C828   C1496   1.427   .     S
C829   N835    1.375   .     A
C829   C881    1.471   .     S
C829   C1493   1.430   .     S
C830   C885    1.478   .     S
C830   N836    1.374   .     A
Cu831  Cu832   2.730   .     S
Cu831  O844    1.976   .     S
Cu831  O837    1.959   .     S
Cu831  O840    1.980   .     S
Cu831  O841    1.969   .     S
Cu831  N835    2.051   .     S
Cu832  N836    2.051   .     S
Cu832  O843    1.976   .     S
Cu832  O839    1.980   .     S
Cu832  O842    1.969   .     S
Cu832  O838    1.959   .     S
H833   C671    1.085   1_655 S
C845   C846    1.511   .     S
C845   H850    1.103   .     S
C845   H851    1.101   .     S
C846   H849    1.110   .     S
C846   H847    1.105   .     S
C846   H848    1.093   .     S
C852   H858    1.103   .     S
C852   C853    1.537   .     S
C852   H857    1.107   .     S
C853   H855    1.110   .     S
C853   H854    1.110   .     S
C853   H1078   1.104   .     S
H856   C1297   1.104   1_545 S
C859   C860    1.530   .     S
C859   H864    1.108   .     S
C859   H865    1.109   .     S
C860   H863    1.110   .     S
C860   H862    1.107   .     S
C860   H861    1.107   .     S
C866   H872    1.109   .     S
C866   H871    1.107   .     S
C866   C867    1.528   .     S
C867   H869    1.108   .     S
C867   H870    1.104   .     S
C867   H868    1.102   .     S
C873   O874    1.222   .     D
C873   O875    1.399   .     S
O875   H876    1.012   .     S
C877   O879    1.398   .     S
C877   O878    1.210   .     D
O879   H880    1.014   .     S
C881   O882    1.220   .     D
C881   O883    1.399   .     S
O883   H884    1.013   .     S
C885   O886    1.223   .     D
C885   O887    1.395   .     S
O887   H888    1.014   .     S
C889   O913    1.309   .     A
C889   C900    1.460   .     S
C889   O911    1.305   .     A
C890   O914    1.308   .     A
C890   C899    1.464   .     S
C890   O912    1.308   .     A
C891   O915    1.299   .     A
C891   O917    1.313   .     A
C891   C893    1.449   .     S
C892   C894    1.450   .     S
C892   O916    1.299   .     A
C892   O918    1.314   .     A
C893   C1042   1.347   1_455 S
C893   H1055   1.085   1_455 S
C894   C967    1.347   .     S
C894   H982    1.085   .     S
C895   C900    1.418   .     A
C895   C919    1.520   .     S
C896   C926    1.512   .     S
C896   C899    1.409   .     A
C896   C1120   1.403   .     S
C897   C933    1.525   .     S
C897   C899    1.414   .     A
C897   C1117   1.418   .     S
C898   C940    1.519   .     S
C898   C900    1.404   .     A
C901   C947    1.460   .     S
C901   N910    1.371   .     A
C902   N909    1.380   .     A
C902   C951    1.467   .     S
C902   C1570   1.427   .     S
C903   N909    1.375   .     A
C903   C955    1.471   .     S
C903   C1567   1.430   .     S
C904   C959    1.478   .     S
C904   N910    1.374   .     A
Cu905  Cu906   2.730   .     S
Cu905  O918    1.976   .     S
Cu905  O911    1.959   .     S
Cu905  O914    1.980   .     S
Cu905  O915    1.969   .     S
Cu905  N909    2.051   .     S
Cu906  N910    2.051   .     S
Cu906  O917    1.976   .     S
Cu906  O913    1.980   .     S
Cu906  O916    1.969   .     S
Cu906  O912    1.959   .     S
H907   C967    1.085   .     S
H908   C1042   1.085   1_455 S
C919   C920    1.511   .     S
C919   H924    1.103   .     S
C919   H925    1.101   .     S
C920   H923    1.110   .     S
C920   H921    1.105   .     S
C920   H922    1.093   .     S
C926   H932    1.103   .     S
C926   C927    1.537   .     S
C926   H931    1.107   .     S
C927   H929    1.110   .     S
C927   H928    1.110   .     S
C927   H1152   1.104   .     S
C933   C934    1.530   .     S
C933   H938    1.108   .     S
C933   H939    1.109   .     S
C934   H937    1.110   .     S
C934   H936    1.107   .     S
C934   H935    1.107   .     S
C940   H946    1.109   .     S
C940   H945    1.107   .     S
C940   C941    1.528   .     S
C941   H943    1.108   .     S
C941   H944    1.104   .     S
C941   H942    1.102   .     S
C947   O948    1.222   .     D
C947   O949    1.399   .     S
O949   H950    1.012   .     S
C951   O953    1.398   .     S
C951   O952    1.210   .     D
O953   H954    1.014   .     S
C955   O956    1.220   .     D
C955   O957    1.399   .     S
O957   H958    1.013   .     S
C959   O960    1.223   .     D
C959   O961    1.395   .     S
O961   H962    1.014   .     S
C963   O987    1.309   .     A
C963   C974    1.460   .     S
C963   O985    1.305   .     A
C964   O988    1.308   .     A
C964   C973    1.464   .     S
C964   O986    1.308   .     A
C965   O989    1.299   .     A
C965   O991    1.313   .     A
C965   C967    1.449   .     S
C966   C968    1.450   .     S
C966   O990    1.299   .     A
C966   O992    1.314   .     A
C968   C1041   1.347   .     S
C968   H1056   1.085   .     S
C969   C974    1.418   .     A
C969   C993    1.520   .     S
C970   C1000   1.512   .     S
C970   C973    1.409   .     A
C970   C1194   1.403   .     S
C971   C1007   1.525   .     S
C971   C973    1.414   .     A
C971   C1191   1.418   .     S
C972   C1014   1.519   .     S
C972   C974    1.404   .     A
C975   C1021   1.460   .     S
C975   N984    1.371   .     A
C976   N983    1.380   .     A
C976   C1025   1.467   .     S
C976   C1644   1.427   .     S
C977   N983    1.375   .     A
C977   C1029   1.471   .     S
C977   C1641   1.430   .     S
C978   C1033   1.478   .     S
C978   N984    1.374   .     A
Cu979  Cu980   2.730   .     S
Cu979  O992    1.976   .     S
Cu979  O985    1.959   .     S
Cu979  O988    1.980   .     S
Cu979  O989    1.969   .     S
Cu979  N983    2.051   .     S
Cu980  N984    2.051   .     S
Cu980  O991    1.976   .     S
Cu980  O987    1.980   .     S
Cu980  O990    1.969   .     S
Cu980  O986    1.959   .     S
H981   C1041   1.085   .     S
C993   C994    1.511   .     S
C993   H998    1.103   .     S
C993   H999    1.101   .     S
C994   H997    1.110   .     S
C994   H995    1.105   .     S
C994   H996    1.093   .     S
C1000  H1006   1.103   .     S
C1000  C1001   1.537   .     S
C1000  H1005   1.107   .     S
C1001  H1003   1.110   .     S
C1001  H1002   1.110   .     S
C1001  H1226   1.104   .     S
C1007  C1008   1.530   .     S
C1007  H1012   1.108   .     S
C1007  H1013   1.109   .     S
C1008  H1011   1.110   .     S
C1008  H1010   1.107   .     S
C1008  H1009   1.107   .     S
C1014  H1020   1.109   .     S
C1014  H1019   1.107   .     S
C1014  C1015   1.528   .     S
C1015  H1017   1.108   .     S
C1015  H1018   1.104   .     S
C1015  H1016   1.102   .     S
C1021  O1022   1.222   .     D
C1021  O1023   1.399   .     S
O1023  H1024   1.012   .     S
C1025  O1027   1.398   .     S
C1025  O1026   1.210   .     D
O1027  H1028   1.014   .     S
C1029  O1030   1.220   .     D
C1029  O1031   1.399   .     S
O1031  H1032   1.013   .     S
C1033  O1034   1.223   .     D
C1033  O1035   1.395   .     S
O1035  H1036   1.014   .     S
C1037  O1061   1.309   .     A
C1037  C1048   1.460   .     S
C1037  O1059   1.305   .     A
C1038  O1062   1.308   .     A
C1038  C1047   1.464   .     S
C1038  O1060   1.308   .     A
C1039  O1063   1.299   .     A
C1039  O1065   1.313   .     A
C1039  C1041   1.449   .     S
C1040  C1042   1.450   .     S
C1040  O1064   1.299   .     A
C1040  O1066   1.314   .     A
C1042  C893    1.347   1_655 S
C1042  H908    1.085   1_655 S
C1043  C1048   1.418   .     A
C1043  C1067   1.520   .     S
C1044  C1074   1.512   .     S
C1044  C1047   1.409   .     A
C1044  C1268   1.403   .     S
C1045  C1081   1.525   .     S
C1045  C1047   1.414   .     A
C1045  C1265   1.418   .     S
C1046  C1088   1.519   .     S
C1046  C1048   1.404   .     A
C1049  C1095   1.460   .     S
C1049  N1058   1.371   .     A
C1050  N1057   1.380   .     A
C1050  C1099   1.467   .     S
C1050  C1718   1.427   .     S
C1051  N1057   1.375   .     A
C1051  C1103   1.471   .     S
C1051  C1715   1.430   .     S
C1052  C1107   1.478   .     S
C1052  N1058   1.374   .     A
Cu1053 Cu1054  2.730   .     S
Cu1053 O1066   1.976   .     S
Cu1053 O1059   1.959   .     S
Cu1053 O1062   1.980   .     S
Cu1053 O1063   1.969   .     S
Cu1053 N1057   2.051   .     S
Cu1054 N1058   2.051   .     S
Cu1054 O1065   1.976   .     S
Cu1054 O1061   1.980   .     S
Cu1054 O1064   1.969   .     S
Cu1054 O1060   1.959   .     S
H1055  C893    1.085   1_655 S
C1067  C1068   1.511   .     S
C1067  H1072   1.103   .     S
C1067  H1073   1.101   .     S
C1068  H1071   1.110   .     S
C1068  H1069   1.105   .     S
C1068  H1070   1.093   .     S
C1074  H1080   1.103   .     S
C1074  C1075   1.537   .     S
C1074  H1079   1.107   .     S
C1075  H1077   1.110   .     S
C1075  H1076   1.110   .     S
C1075  H1300   1.104   .     S
C1081  C1082   1.530   .     S
C1081  H1086   1.108   .     S
C1081  H1087   1.109   .     S
C1082  H1085   1.110   .     S
C1082  H1084   1.107   .     S
C1082  H1083   1.107   .     S
C1088  H1094   1.109   .     S
C1088  H1093   1.107   .     S
C1088  C1089   1.528   .     S
C1089  H1091   1.108   .     S
C1089  H1092   1.104   .     S
C1089  H1090   1.102   .     S
C1095  O1096   1.222   .     D
C1095  O1097   1.399   .     S
O1097  H1098   1.012   .     S
C1099  O1101   1.398   .     S
C1099  O1100   1.210   .     D
O1101  H1102   1.014   .     S
C1103  O1104   1.220   .     D
C1103  O1105   1.399   .     S
O1105  H1106   1.013   .     S
C1107  O1108   1.223   .     D
C1107  O1109   1.395   .     S
O1109  H1110   1.014   .     S
C1111  O1135   1.309   .     A
C1111  C1122   1.460   .     S
C1111  O1133   1.305   .     A
C1112  O1136   1.308   .     A
C1112  C1121   1.464   .     S
C1112  O1134   1.308   .     A
C1113  O1137   1.299   .     A
C1113  O1139   1.313   .     A
C1113  C1115   1.449   .     S
C1114  C1116   1.450   .     S
C1114  O1138   1.299   .     A
C1114  O1140   1.314   .     A
C1115  C1264   1.347   1_455 S
C1115  H1277   1.085   1_455 S
C1116  C1189   1.347   .     S
C1116  H1204   1.085   .     S
C1117  C1122   1.418   .     A
C1117  C1141   1.520   .     S
C1118  C1148   1.512   .     S
C1118  C1121   1.409   .     A
C1118  C676    1.403   1_565 S
C1119  C1155   1.525   .     S
C1119  C1121   1.414   .     A
C1119  C673    1.418   1_565 S
C1120  C1162   1.519   .     S
C1120  C1122   1.404   .     A
C1123  C1169   1.460   .     S
C1123  N1132   1.371   .     A
C1124  N1131   1.380   .     A
C1124  C1173   1.467   .     S
C1124  C1792   1.427   .     S
C1125  N1131   1.375   .     A
C1125  C1177   1.471   .     S
C1125  C1789   1.430   .     S
C1126  C1181   1.478   .     S
C1126  N1132   1.374   .     A
Cu1127 Cu1128  2.730   .     S
Cu1127 O1140   1.976   .     S
Cu1127 O1133   1.959   .     S
Cu1127 O1136   1.980   .     S
Cu1127 O1137   1.969   .     S
Cu1127 N1131   2.051   .     S
Cu1128 N1132   2.051   .     S
Cu1128 O1139   1.976   .     S
Cu1128 O1135   1.980   .     S
Cu1128 O1138   1.969   .     S
Cu1128 O1134   1.959   .     S
H1129  C1189   1.085   .     S
H1130  C1264   1.085   1_455 S
C1141  C1142   1.511   .     S
C1141  H1146   1.103   .     S
C1141  H1147   1.101   .     S
C1142  H1145   1.110   .     S
C1142  H1143   1.105   .     S
C1142  H1144   1.093   .     S
C1148  H1154   1.103   .     S
C1148  C1149   1.537   .     S
C1148  H1153   1.107   .     S
C1149  H1151   1.110   .     S
C1149  H1150   1.110   .     S
C1149  H708    1.104   1_565 S
C1155  C1156   1.530   .     S
C1155  H1160   1.108   .     S
C1155  H1161   1.109   .     S
C1156  H1159   1.110   .     S
C1156  H1158   1.107   .     S
C1156  H1157   1.107   .     S
C1162  H1168   1.109   .     S
C1162  H1167   1.107   .     S
C1162  C1163   1.528   .     S
C1163  H1165   1.108   .     S
C1163  H1166   1.104   .     S
C1163  H1164   1.102   .     S
C1169  O1170   1.222   .     D
C1169  O1171   1.399   .     S
O1171  H1172   1.012   .     S
C1173  O1175   1.398   .     S
C1173  O1174   1.210   .     D
O1175  H1176   1.014   .     S
C1177  O1178   1.220   .     D
C1177  O1179   1.399   .     S
O1179  H1180   1.013   .     S
C1181  O1182   1.223   .     D
C1181  O1183   1.395   .     S
O1183  H1184   1.014   .     S
C1185  O1209   1.309   .     A
C1185  C1196   1.460   .     S
C1185  O1207   1.305   .     A
C1186  O1210   1.308   .     A
C1186  C1195   1.464   .     S
C1186  O1208   1.308   .     A
C1187  O1211   1.299   .     A
C1187  O1213   1.313   .     A
C1187  C1189   1.449   .     S
C1188  C1190   1.450   .     S
C1188  O1212   1.299   .     A
C1188  O1214   1.314   .     A
C1190  C1263   1.347   .     S
C1190  H1278   1.085   .     S
C1191  C1196   1.418   .     A
C1191  C1215   1.520   .     S
C1192  C1222   1.512   .     S
C1192  C1195   1.409   .     A
C1192  C750    1.403   1_565 S
C1193  C1229   1.525   .     S
C1193  C1195   1.414   .     A
C1193  C747    1.418   1_565 S
C1194  C1236   1.519   .     S
C1194  C1196   1.404   .     A
C1197  C1243   1.460   .     S
C1197  N1206   1.371   .     A
C1198  N1205   1.380   .     A
C1198  C1247   1.467   .     S
C1198  C1866   1.427   .     S
C1199  N1205   1.375   .     A
C1199  C1251   1.471   .     S
C1199  C1863   1.430   .     S
C1200  C1255   1.478   .     S
C1200  N1206   1.374   .     A
Cu1201 Cu1202  2.730   .     S
Cu1201 O1214   1.976   .     S
Cu1201 O1207   1.959   .     S
Cu1201 O1210   1.980   .     S
Cu1201 O1211   1.969   .     S
Cu1201 N1205   2.051   .     S
Cu1202 N1206   2.051   .     S
Cu1202 O1213   1.976   .     S
Cu1202 O1209   1.980   .     S
Cu1202 O1212   1.969   .     S
Cu1202 O1208   1.959   .     S
H1203  C1263   1.085   .     S
C1215  C1216   1.511   .     S
C1215  H1220   1.103   .     S
C1215  H1221   1.101   .     S
C1216  H1219   1.110   .     S
C1216  H1217   1.105   .     S
C1216  H1218   1.093   .     S
C1222  H1228   1.103   .     S
C1222  C1223   1.537   .     S
C1222  H1227   1.107   .     S
C1223  H1225   1.110   .     S
C1223  H1224   1.110   .     S
C1223  H782    1.104   1_565 S
C1229  C1230   1.530   .     S
C1229  H1234   1.108   .     S
C1229  H1235   1.109   .     S
C1230  H1233   1.110   .     S
C1230  H1232   1.107   .     S
C1230  H1231   1.107   .     S
C1236  H1242   1.109   .     S
C1236  H1241   1.107   .     S
C1236  C1237   1.528   .     S
C1237  H1239   1.108   .     S
C1237  H1240   1.104   .     S
C1237  H1238   1.102   .     S
C1243  O1244   1.222   .     D
C1243  O1245   1.399   .     S
O1245  H1246   1.012   .     S
C1247  O1249   1.398   .     S
C1247  O1248   1.210   .     D
O1249  H1250   1.014   .     S
C1251  O1252   1.220   .     D
C1251  O1253   1.399   .     S
O1253  H1254   1.013   .     S
C1255  O1256   1.223   .     D
C1255  O1257   1.395   .     S
O1257  H1258   1.014   .     S
C1259  O1283   1.309   .     A
C1259  C1270   1.460   .     S
C1259  O1281   1.305   .     A
C1260  O1284   1.308   .     A
C1260  C1269   1.464   .     S
C1260  O1282   1.308   .     A
C1261  O1285   1.299   .     A
C1261  O1287   1.313   .     A
C1261  C1263   1.449   .     S
C1262  C1264   1.450   .     S
C1262  O1286   1.299   .     A
C1262  O1288   1.314   .     A
C1264  C1115   1.347   1_655 S
C1264  H1130   1.085   1_655 S
C1265  C1270   1.418   .     A
C1265  C1289   1.520   .     S
C1266  C1296   1.512   .     S
C1266  C1269   1.409   .     A
C1266  C824    1.403   1_565 S
C1267  C1303   1.525   .     S
C1267  C1269   1.414   .     A
C1267  C821    1.418   1_565 S
C1268  C1310   1.519   .     S
C1268  C1270   1.404   .     A
C1271  C1317   1.460   .     S
C1271  N1280   1.371   .     A
C1272  N1279   1.380   .     A
C1272  C1321   1.467   .     S
C1272  C1940   1.427   .     S
C1273  N1279   1.375   .     A
C1273  C1325   1.471   .     S
C1273  C1937   1.430   .     S
C1274  C1329   1.478   .     S
C1274  N1280   1.374   .     A
Cu1275 Cu1276  2.730   .     S
Cu1275 O1288   1.976   .     S
Cu1275 O1281   1.959   .     S
Cu1275 O1284   1.980   .     S
Cu1275 O1285   1.969   .     S
Cu1275 N1279   2.051   .     S
Cu1276 N1280   2.051   .     S
Cu1276 O1287   1.976   .     S
Cu1276 O1283   1.980   .     S
Cu1276 O1286   1.969   .     S
Cu1276 O1282   1.959   .     S
H1277  C1115   1.085   1_655 S
C1289  C1290   1.511   .     S
C1289  H1294   1.103   .     S
C1289  H1295   1.101   .     S
C1290  H1293   1.110   .     S
C1290  H1291   1.105   .     S
C1290  H1292   1.093   .     S
C1296  H1302   1.103   .     S
C1296  C1297   1.537   .     S
C1296  H1301   1.107   .     S
C1297  H1299   1.110   .     S
C1297  H1298   1.110   .     S
C1297  H856    1.104   1_565 S
C1303  C1304   1.530   .     S
C1303  H1308   1.108   .     S
C1303  H1309   1.109   .     S
C1304  H1307   1.110   .     S
C1304  H1306   1.107   .     S
C1304  H1305   1.107   .     S
C1310  H1316   1.109   .     S
C1310  H1315   1.107   .     S
C1310  C1311   1.528   .     S
C1311  H1313   1.108   .     S
C1311  H1314   1.104   .     S
C1311  H1312   1.102   .     S
C1317  O1318   1.222   .     D
C1317  O1319   1.399   .     S
O1319  H1320   1.012   .     S
C1321  O1323   1.398   .     S
C1321  O1322   1.210   .     D
O1323  H1324   1.014   .     S
C1325  O1326   1.220   .     D
C1325  O1327   1.399   .     S
O1327  H1328   1.013   .     S
C1329  O1330   1.223   .     D
C1329  O1331   1.395   .     S
O1331  H1332   1.014   .     S
C1333  O1357   1.309   .     A
C1333  C1344   1.460   .     S
C1333  O1355   1.305   .     A
C1334  O1358   1.308   .     A
C1334  C1343   1.464   .     S
C1334  O1356   1.308   .     A
C1335  O1359   1.299   .     A
C1335  O1361   1.313   .     A
C1335  C1337   1.449   .     S
C1336  C1338   1.450   .     S
C1336  O1360   1.299   .     A
C1336  O1362   1.314   .     A
C1337  C1486   1.347   1_455 S
C1337  H1499   1.085   1_455 S
C1338  C1411   1.347   .     S
C1338  H1426   1.085   .     S
C1339  C1344   1.418   .     A
C1339  C1363   1.520   .     S
C1339  C1785   1.418   1_545 S
C1340  C1370   1.512   .     S
C1340  C1343   1.409   .     A
C1340  C1564   1.403   .     S
C1341  C1377   1.525   .     S
C1341  C1343   1.414   .     A
C1341  C1561   1.418   .     S
C1342  C1384   1.519   .     S
C1342  C1344   1.404   .     A
C1342  C1784   1.403   1_545 S
C1345  C1391   1.460   .     S
C1345  N1354   1.371   .     A
C1346  N1353   1.380   .     A
C1346  C1395   1.467   .     S
C1346  C16     1.427   1_556 S
C1347  N1353   1.375   .     A
C1347  C1399   1.471   .     S
C1347  C13     1.430   1_556 S
C1348  C1403   1.478   .     S
C1348  N1354   1.374   .     A
Cu1349 Cu1350  2.730   .     S
Cu1349 O1362   1.976   .     S
Cu1349 O1355   1.959   .     S
Cu1349 O1358   1.980   .     S
Cu1349 O1359   1.969   .     S
Cu1349 N1353   2.051   .     S
Cu1350 N1354   2.051   .     S
Cu1350 O1361   1.976   .     S
Cu1350 O1357   1.980   .     S
Cu1350 O1360   1.969   .     S
Cu1350 O1356   1.959   .     S
H1351  C1411   1.085   .     S
H1352  C1486   1.085   1_455 S
C1363  C1364   1.511   .     S
C1363  H1368   1.103   .     S
C1363  H1369   1.101   .     S
C1364  H1367   1.110   .     S
C1364  H1365   1.105   .     S
C1364  H1366   1.093   .     S
C1370  H1376   1.103   .     S
C1370  C1371   1.537   .     S
C1370  H1375   1.107   .     S
C1371  H1373   1.110   .     S
C1371  H1372   1.110   .     S
C1371  H1596   1.104   .     S
H1374  C1815   1.104   1_545 S
C1377  C1378   1.530   .     S
C1377  H1382   1.108   .     S
C1377  H1383   1.109   .     S
C1378  H1381   1.110   .     S
C1378  H1380   1.107   .     S
C1378  H1379   1.107   .     S
C1384  H1390   1.109   .     S
C1384  H1389   1.107   .     S
C1384  C1385   1.528   .     S
C1385  H1387   1.108   .     S
C1385  H1388   1.104   .     S
C1385  H1386   1.102   .     S
C1391  O1392   1.222   .     D
C1391  O1393   1.399   .     S
O1393  H1394   1.012   .     S
C1395  O1397   1.398   .     S
C1395  O1396   1.210   .     D
O1397  H1398   1.014   .     S
C1399  O1400   1.220   .     D
C1399  O1401   1.399   .     S
O1401  H1402   1.013   .     S
C1403  O1404   1.223   .     D
C1403  O1405   1.395   .     S
O1405  H1406   1.014   .     S
C1407  O1431   1.309   .     A
C1407  C1418   1.460   .     S
C1407  O1429   1.305   .     A
C1408  O1432   1.308   .     A
C1408  C1417   1.464   .     S
C1408  O1430   1.308   .     A
C1409  O1433   1.299   .     A
C1409  O1435   1.313   .     A
C1409  C1411   1.449   .     S
C1410  C1412   1.450   .     S
C1410  O1434   1.299   .     A
C1410  O1436   1.314   .     A
C1412  C1485   1.347   .     S
C1412  H1500   1.085   .     S
C1413  C1418   1.418   .     A
C1413  C1437   1.520   .     S
C1413  C1859   1.418   1_545 S
C1414  C1444   1.512   .     S
C1414  C1417   1.409   .     A
C1414  C1638   1.403   .     S
C1415  C1451   1.525   .     S
C1415  C1417   1.414   .     A
C1415  C1635   1.418   .     S
C1416  C1458   1.519   .     S
C1416  C1418   1.404   .     A
C1416  C1858   1.403   1_545 S
C1419  C1465   1.460   .     S
C1419  N1428   1.371   .     A
C1420  N1427   1.380   .     A
C1420  C1469   1.467   .     S
C1420  C90     1.427   1_556 S
C1421  N1427   1.375   .     A
C1421  C1473   1.471   .     S
C1421  C87     1.430   1_556 S
C1422  C1477   1.478   .     S
C1422  N1428   1.374   .     A
Cu1423 Cu1424  2.730   .     S
Cu1423 O1436   1.976   .     S
Cu1423 O1429   1.959   .     S
Cu1423 O1432   1.980   .     S
Cu1423 O1433   1.969   .     S
Cu1423 N1427   2.051   .     S
Cu1424 N1428   2.051   .     S
Cu1424 O1435   1.976   .     S
Cu1424 O1431   1.980   .     S
Cu1424 O1434   1.969   .     S
Cu1424 O1430   1.959   .     S
H1425  C1485   1.085   .     S
C1437  C1438   1.511   .     S
C1437  H1442   1.103   .     S
C1437  H1443   1.101   .     S
C1438  H1441   1.110   .     S
C1438  H1439   1.105   .     S
C1438  H1440   1.093   .     S
C1444  H1450   1.103   .     S
C1444  C1445   1.537   .     S
C1444  H1449   1.107   .     S
C1445  H1447   1.110   .     S
C1445  H1446   1.110   .     S
C1445  H1670   1.104   .     S
H1448  C1889   1.104   1_545 S
C1451  C1452   1.530   .     S
C1451  H1456   1.108   .     S
C1451  H1457   1.109   .     S
C1452  H1455   1.110   .     S
C1452  H1454   1.107   .     S
C1452  H1453   1.107   .     S
C1458  H1464   1.109   .     S
C1458  H1463   1.107   .     S
C1458  C1459   1.528   .     S
C1459  H1461   1.108   .     S
C1459  H1462   1.104   .     S
C1459  H1460   1.102   .     S
C1465  O1466   1.222   .     D
C1465  O1467   1.399   .     S
O1467  H1468   1.012   .     S
C1469  O1471   1.398   .     S
C1469  O1470   1.210   .     D
O1471  H1472   1.014   .     S
C1473  O1474   1.220   .     D
C1473  O1475   1.399   .     S
O1475  H1476   1.013   .     S
C1477  O1478   1.223   .     D
C1477  O1479   1.395   .     S
O1479  H1480   1.014   .     S
C1481  O1505   1.309   .     A
C1481  C1492   1.460   .     S
C1481  O1503   1.305   .     A
C1482  O1506   1.308   .     A
C1482  C1491   1.464   .     S
C1482  O1504   1.308   .     A
C1483  O1507   1.299   .     A
C1483  O1509   1.313   .     A
C1483  C1485   1.449   .     S
C1484  C1486   1.450   .     S
C1484  O1508   1.299   .     A
C1484  O1510   1.314   .     A
C1486  C1337   1.347   1_655 S
C1486  H1352   1.085   1_655 S
C1487  C1492   1.418   .     A
C1487  C1511   1.520   .     S
C1487  C1933   1.418   1_545 S
C1488  C1518   1.512   .     S
C1488  C1491   1.409   .     A
C1488  C1712   1.403   .     S
C1489  C1525   1.525   .     S
C1489  C1491   1.414   .     A
C1489  C1709   1.418   .     S
C1490  C1532   1.519   .     S
C1490  C1492   1.404   .     A
C1490  C1932   1.403   1_545 S
C1493  C1539   1.460   .     S
C1493  N1502   1.371   .     A
C1494  N1501   1.380   .     A
C1494  C1543   1.467   .     S
C1494  C164    1.427   1_556 S
C1495  N1501   1.375   .     A
C1495  C1547   1.471   .     S
C1495  C161    1.430   1_556 S
C1496  C1551   1.478   .     S
C1496  N1502   1.374   .     A
Cu1497 Cu1498  2.730   .     S
Cu1497 O1510   1.976   .     S
Cu1497 O1503   1.959   .     S
Cu1497 O1506   1.980   .     S
Cu1497 O1507   1.969   .     S
Cu1497 N1501   2.051   .     S
Cu1498 N1502   2.051   .     S
Cu1498 O1509   1.976   .     S
Cu1498 O1505   1.980   .     S
Cu1498 O1508   1.969   .     S
Cu1498 O1504   1.959   .     S
H1499  C1337   1.085   1_655 S
C1511  C1512   1.511   .     S
C1511  H1516   1.103   .     S
C1511  H1517   1.101   .     S
C1512  H1515   1.110   .     S
C1512  H1513   1.105   .     S
C1512  H1514   1.093   .     S
C1518  H1524   1.103   .     S
C1518  C1519   1.537   .     S
C1518  H1523   1.107   .     S
C1519  H1521   1.110   .     S
C1519  H1520   1.110   .     S
C1519  H1744   1.104   .     S
H1522  C1963   1.104   1_545 S
C1525  C1526   1.530   .     S
C1525  H1530   1.108   .     S
C1525  H1531   1.109   .     S
C1526  H1529   1.110   .     S
C1526  H1528   1.107   .     S
C1526  H1527   1.107   .     S
C1532  H1538   1.109   .     S
C1532  H1537   1.107   .     S
C1532  C1533   1.528   .     S
C1533  H1535   1.108   .     S
C1533  H1536   1.104   .     S
C1533  H1534   1.102   .     S
C1539  O1540   1.222   .     D
C1539  O1541   1.399   .     S
O1541  H1542   1.012   .     S
C1543  O1545   1.398   .     S
C1543  O1544   1.210   .     D
O1545  H1546   1.014   .     S
C1547  O1548   1.220   .     D
C1547  O1549   1.399   .     S
O1549  H1550   1.013   .     S
C1551  O1552   1.223   .     D
C1551  O1553   1.395   .     S
O1553  H1554   1.014   .     S
C1555  O1579   1.309   .     A
C1555  C1566   1.460   .     S
C1555  O1577   1.305   .     A
C1556  O1580   1.308   .     A
C1556  C1565   1.464   .     S
C1556  O1578   1.308   .     A
C1557  O1581   1.299   .     A
C1557  O1583   1.313   .     A
C1557  C1559   1.449   .     S
C1558  C1560   1.450   .     S
C1558  O1582   1.299   .     A
C1558  O1584   1.314   .     A
C1559  C1708   1.347   1_455 S
C1559  H1721   1.085   1_455 S
C1560  C1633   1.347   .     S
C1560  H1648   1.085   .     S
C1561  C1566   1.418   .     A
C1561  C1585   1.520   .     S
C1562  C1592   1.512   .     S
C1562  C1565   1.409   .     A
C1562  C1786   1.403   .     S
C1563  C1599   1.525   .     S
C1563  C1565   1.414   .     A
C1563  C1783   1.418   .     S
C1564  C1606   1.519   .     S
C1564  C1566   1.404   .     A
C1567  C1613   1.460   .     S
C1567  N1576   1.371   .     A
C1568  N1575   1.380   .     A
C1568  C1617   1.467   .     S
C1568  C238    1.427   1_556 S
C1569  N1575   1.375   .     A
C1569  C1621   1.471   .     S
C1569  C235    1.430   1_556 S
C1570  C1625   1.478   .     S
C1570  N1576   1.374   .     A
Cu1571 Cu1572  2.730   .     S
Cu1571 O1584   1.976   .     S
Cu1571 O1577   1.959   .     S
Cu1571 O1580   1.980   .     S
Cu1571 O1581   1.969   .     S
Cu1571 N1575   2.051   .     S
Cu1572 N1576   2.051   .     S
Cu1572 O1583   1.976   .     S
Cu1572 O1579   1.980   .     S
Cu1572 O1582   1.969   .     S
Cu1572 O1578   1.959   .     S
H1573  C1633   1.085   .     S
H1574  C1708   1.085   1_455 S
C1585  C1586   1.511   .     S
C1585  H1590   1.103   .     S
C1585  H1591   1.101   .     S
C1586  H1589   1.110   .     S
C1586  H1587   1.105   .     S
C1586  H1588   1.093   .     S
C1592  H1598   1.103   .     S
C1592  C1593   1.537   .     S
C1592  H1597   1.107   .     S
C1593  H1595   1.110   .     S
C1593  H1594   1.110   .     S
C1593  H1818   1.104   .     S
C1599  C1600   1.530   .     S
C1599  H1604   1.108   .     S
C1599  H1605   1.109   .     S
C1600  H1603   1.110   .     S
C1600  H1602   1.107   .     S
C1600  H1601   1.107   .     S
C1606  H1612   1.109   .     S
C1606  H1611   1.107   .     S
C1606  C1607   1.528   .     S
C1607  H1609   1.108   .     S
C1607  H1610   1.104   .     S
C1607  H1608   1.102   .     S
C1613  O1614   1.222   .     D
C1613  O1615   1.399   .     S
O1615  H1616   1.012   .     S
C1617  O1619   1.398   .     S
C1617  O1618   1.210   .     D
O1619  H1620   1.014   .     S
C1621  O1622   1.220   .     D
C1621  O1623   1.399   .     S
O1623  H1624   1.013   .     S
C1625  O1626   1.223   .     D
C1625  O1627   1.395   .     S
O1627  H1628   1.014   .     S
C1629  O1653   1.309   .     A
C1629  C1640   1.460   .     S
C1629  O1651   1.305   .     A
C1630  O1654   1.308   .     A
C1630  C1639   1.464   .     S
C1630  O1652   1.308   .     A
C1631  O1655   1.299   .     A
C1631  O1657   1.313   .     A
C1631  C1633   1.449   .     S
C1632  C1634   1.450   .     S
C1632  O1656   1.299   .     A
C1632  O1658   1.314   .     A
C1634  C1707   1.347   .     S
C1634  H1722   1.085   .     S
C1635  C1640   1.418   .     A
C1635  C1659   1.520   .     S
C1636  C1666   1.512   .     S
C1636  C1639   1.409   .     A
C1636  C1860   1.403   .     S
C1637  C1673   1.525   .     S
C1637  C1639   1.414   .     A
C1637  C1857   1.418   .     S
C1638  C1680   1.519   .     S
C1638  C1640   1.404   .     A
C1641  C1687   1.460   .     S
C1641  N1650   1.371   .     A
C1642  N1649   1.380   .     A
C1642  C1691   1.467   .     S
C1642  C312    1.427   1_556 S
C1643  N1649   1.375   .     A
C1643  C1695   1.471   .     S
C1643  C309    1.430   1_556 S
C1644  C1699   1.478   .     S
C1644  N1650   1.374   .     A
Cu1645 Cu1646  2.730   .     S
Cu1645 O1658   1.976   .     S
Cu1645 O1651   1.959   .     S
Cu1645 O1654   1.980   .     S
Cu1645 O1655   1.969   .     S
Cu1645 N1649   2.051   .     S
Cu1646 N1650   2.051   .     S
Cu1646 O1657   1.976   .     S
Cu1646 O1653   1.980   .     S
Cu1646 O1656   1.969   .     S
Cu1646 O1652   1.959   .     S
H1647  C1707   1.085   .     S
C1659  C1660   1.511   .     S
C1659  H1664   1.103   .     S
C1659  H1665   1.101   .     S
C1660  H1663   1.110   .     S
C1660  H1661   1.105   .     S
C1660  H1662   1.093   .     S
C1666  H1672   1.103   .     S
C1666  C1667   1.537   .     S
C1666  H1671   1.107   .     S
C1667  H1669   1.110   .     S
C1667  H1668   1.110   .     S
C1667  H1892   1.104   .     S
C1673  C1674   1.530   .     S
C1673  H1678   1.108   .     S
C1673  H1679   1.109   .     S
C1674  H1677   1.110   .     S
C1674  H1676   1.107   .     S
C1674  H1675   1.107   .     S
C1680  H1686   1.109   .     S
C1680  H1685   1.107   .     S
C1680  C1681   1.528   .     S
C1681  H1683   1.108   .     S
C1681  H1684   1.104   .     S
C1681  H1682   1.102   .     S
C1687  O1688   1.222   .     D
C1687  O1689   1.399   .     S
O1689  H1690   1.012   .     S
C1691  O1693   1.398   .     S
C1691  O1692   1.210   .     D
O1693  H1694   1.014   .     S
C1695  O1696   1.220   .     D
C1695  O1697   1.399   .     S
O1697  H1698   1.013   .     S
C1699  O1700   1.223   .     D
C1699  O1701   1.395   .     S
O1701  H1702   1.014   .     S
C1703  O1727   1.309   .     A
C1703  C1714   1.460   .     S
C1703  O1725   1.305   .     A
C1704  O1728   1.308   .     A
C1704  C1713   1.464   .     S
C1704  O1726   1.308   .     A
C1705  O1729   1.299   .     A
C1705  O1731   1.313   .     A
C1705  C1707   1.449   .     S
C1706  C1708   1.450   .     S
C1706  O1730   1.299   .     A
C1706  O1732   1.314   .     A
C1708  C1559   1.347   1_655 S
C1708  H1574   1.085   1_655 S
C1709  C1714   1.418   .     A
C1709  C1733   1.520   .     S
C1710  C1740   1.512   .     S
C1710  C1713   1.409   .     A
C1710  C1934   1.403   .     S
C1711  C1747   1.525   .     S
C1711  C1713   1.414   .     A
C1711  C1931   1.418   .     S
C1712  C1754   1.519   .     S
C1712  C1714   1.404   .     A
C1715  C1761   1.460   .     S
C1715  N1724   1.371   .     A
C1716  N1723   1.380   .     A
C1716  C1765   1.467   .     S
C1716  C386    1.427   1_556 S
C1717  N1723   1.375   .     A
C1717  C1769   1.471   .     S
C1717  C383    1.430   1_556 S
C1718  C1773   1.478   .     S
C1718  N1724   1.374   .     A
Cu1719 Cu1720  2.730   .     S
Cu1719 O1732   1.976   .     S
Cu1719 O1725   1.959   .     S
Cu1719 O1728   1.980   .     S
Cu1719 O1729   1.969   .     S
Cu1719 N1723   2.051   .     S
Cu1720 N1724   2.051   .     S
Cu1720 O1731   1.976   .     S
Cu1720 O1727   1.980   .     S
Cu1720 O1730   1.969   .     S
Cu1720 O1726   1.959   .     S
H1721  C1559   1.085   1_655 S
C1733  C1734   1.511   .     S
C1733  H1738   1.103   .     S
C1733  H1739   1.101   .     S
C1734  H1737   1.110   .     S
C1734  H1735   1.105   .     S
C1734  H1736   1.093   .     S
C1740  H1746   1.103   .     S
C1740  C1741   1.537   .     S
C1740  H1745   1.107   .     S
C1741  H1743   1.110   .     S
C1741  H1742   1.110   .     S
C1741  H1966   1.104   .     S
C1747  C1748   1.530   .     S
C1747  H1752   1.108   .     S
C1747  H1753   1.109   .     S
C1748  H1751   1.110   .     S
C1748  H1750   1.107   .     S
C1748  H1749   1.107   .     S
C1754  H1760   1.109   .     S
C1754  H1759   1.107   .     S
C1754  C1755   1.528   .     S
C1755  H1757   1.108   .     S
C1755  H1758   1.104   .     S
C1755  H1756   1.102   .     S
C1761  O1762   1.222   .     D
C1761  O1763   1.399   .     S
O1763  H1764   1.012   .     S
C1765  O1767   1.398   .     S
C1765  O1766   1.210   .     D
O1767  H1768   1.014   .     S
C1769  O1770   1.220   .     D
C1769  O1771   1.399   .     S
O1771  H1772   1.013   .     S
C1773  O1774   1.223   .     D
C1773  O1775   1.395   .     S
O1775  H1776   1.014   .     S
C1777  O1801   1.309   .     A
C1777  C1788   1.460   .     S
C1777  O1799   1.305   .     A
C1778  O1802   1.308   .     A
C1778  C1787   1.464   .     S
C1778  O1800   1.308   .     A
C1779  O1803   1.299   .     A
C1779  O1805   1.313   .     A
C1779  C1781   1.449   .     S
C1780  C1782   1.450   .     S
C1780  O1804   1.299   .     A
C1780  O1806   1.314   .     A
C1781  C1930   1.347   1_455 S
C1781  H1943   1.085   1_455 S
C1782  C1855   1.347   .     S
C1782  H1870   1.085   .     S
C1783  C1788   1.418   .     A
C1783  C1807   1.520   .     S
C1784  C1814   1.512   .     S
C1784  C1787   1.409   .     A
C1784  C1342   1.403   1_565 S
C1785  C1821   1.525   .     S
C1785  C1787   1.414   .     A
C1785  C1339   1.418   1_565 S
C1786  C1828   1.519   .     S
C1786  C1788   1.404   .     A
C1789  C1835   1.460   .     S
C1789  N1798   1.371   .     A
C1790  N1797   1.380   .     A
C1790  C1839   1.467   .     S
C1790  C460    1.427   1_556 S
C1791  N1797   1.375   .     A
C1791  C1843   1.471   .     S
C1791  C457    1.430   1_556 S
C1792  C1847   1.478   .     S
C1792  N1798   1.374   .     A
Cu1793 Cu1794  2.730   .     S
Cu1793 O1806   1.976   .     S
Cu1793 O1799   1.959   .     S
Cu1793 O1802   1.980   .     S
Cu1793 O1803   1.969   .     S
Cu1793 N1797   2.051   .     S
Cu1794 N1798   2.051   .     S
Cu1794 O1805   1.976   .     S
Cu1794 O1801   1.980   .     S
Cu1794 O1804   1.969   .     S
Cu1794 O1800   1.959   .     S
H1795  C1855   1.085   .     S
H1796  C1930   1.085   1_455 S
C1807  C1808   1.511   .     S
C1807  H1812   1.103   .     S
C1807  H1813   1.101   .     S
C1808  H1811   1.110   .     S
C1808  H1809   1.105   .     S
C1808  H1810   1.093   .     S
C1814  H1820   1.103   .     S
C1814  C1815   1.537   .     S
C1814  H1819   1.107   .     S
C1815  H1817   1.110   .     S
C1815  H1816   1.110   .     S
C1815  H1374   1.104   1_565 S
C1821  C1822   1.530   .     S
C1821  H1826   1.108   .     S
C1821  H1827   1.109   .     S
C1822  H1825   1.110   .     S
C1822  H1824   1.107   .     S
C1822  H1823   1.107   .     S
C1828  H1834   1.109   .     S
C1828  H1833   1.107   .     S
C1828  C1829   1.528   .     S
C1829  H1831   1.108   .     S
C1829  H1832   1.104   .     S
C1829  H1830   1.102   .     S
C1835  O1836   1.222   .     D
C1835  O1837   1.399   .     S
O1837  H1838   1.012   .     S
C1839  O1841   1.398   .     S
C1839  O1840   1.210   .     D
O1841  H1842   1.014   .     S
C1843  O1844   1.220   .     D
C1843  O1845   1.399   .     S
O1845  H1846   1.013   .     S
C1847  O1848   1.223   .     D
C1847  O1849   1.395   .     S
O1849  H1850   1.014   .     S
C1851  O1875   1.309   .     A
C1851  C1862   1.460   .     S
C1851  O1873   1.305   .     A
C1852  O1876   1.308   .     A
C1852  C1861   1.464   .     S
C1852  O1874   1.308   .     A
C1853  O1877   1.299   .     A
C1853  O1879   1.313   .     A
C1853  C1855   1.449   .     S
C1854  C1856   1.450   .     S
C1854  O1878   1.299   .     A
C1854  O1880   1.314   .     A
C1856  C1929   1.347   .     S
C1856  H1944   1.085   .     S
C1857  C1862   1.418   .     A
C1857  C1881   1.520   .     S
C1858  C1888   1.512   .     S
C1858  C1861   1.409   .     A
C1858  C1416   1.403   1_565 S
C1859  C1895   1.525   .     S
C1859  C1861   1.414   .     A
C1859  C1413   1.418   1_565 S
C1860  C1902   1.519   .     S
C1860  C1862   1.404   .     A
C1863  C1909   1.460   .     S
C1863  N1872   1.371   .     A
C1864  N1871   1.380   .     A
C1864  C1913   1.467   .     S
C1864  C534    1.427   1_556 S
C1865  N1871   1.375   .     A
C1865  C1917   1.471   .     S
C1865  C531    1.430   1_556 S
C1866  C1921   1.478   .     S
C1866  N1872   1.374   .     A
Cu1867 Cu1868  2.730   .     S
Cu1867 O1880   1.976   .     S
Cu1867 O1873   1.959   .     S
Cu1867 O1876   1.980   .     S
Cu1867 O1877   1.969   .     S
Cu1867 N1871   2.051   .     S
Cu1868 N1872   2.051   .     S
Cu1868 O1879   1.976   .     S
Cu1868 O1875   1.980   .     S
Cu1868 O1878   1.969   .     S
Cu1868 O1874   1.959   .     S
H1869  C1929   1.085   .     S
C1881  C1882   1.511   .     S
C1881  H1886   1.103   .     S
C1881  H1887   1.101   .     S
C1882  H1885   1.110   .     S
C1882  H1883   1.105   .     S
C1882  H1884   1.093   .     S
C1888  H1894   1.103   .     S
C1888  C1889   1.537   .     S
C1888  H1893   1.107   .     S
C1889  H1891   1.110   .     S
C1889  H1890   1.110   .     S
C1889  H1448   1.104   1_565 S
C1895  C1896   1.530   .     S
C1895  H1900   1.108   .     S
C1895  H1901   1.109   .     S
C1896  H1899   1.110   .     S
C1896  H1898   1.107   .     S
C1896  H1897   1.107   .     S
C1902  H1908   1.109   .     S
C1902  H1907   1.107   .     S
C1902  C1903   1.528   .     S
C1903  H1905   1.108   .     S
C1903  H1906   1.104   .     S
C1903  H1904   1.102   .     S
C1909  O1910   1.222   .     D
C1909  O1911   1.399   .     S
O1911  H1912   1.012   .     S
C1913  O1915   1.398   .     S
C1913  O1914   1.210   .     D
O1915  H1916   1.014   .     S
C1917  O1918   1.220   .     D
C1917  O1919   1.399   .     S
O1919  H1920   1.013   .     S
C1921  O1922   1.223   .     D
C1921  O1923   1.395   .     S
O1923  H1924   1.014   .     S
C1925  O1949   1.309   .     A
C1925  C1936   1.460   .     S
C1925  O1947   1.305   .     A
C1926  O1950   1.308   .     A
C1926  C1935   1.464   .     S
C1926  O1948   1.308   .     A
C1927  O1951   1.299   .     A
C1927  O1953   1.313   .     A
C1927  C1929   1.449   .     S
C1928  C1930   1.450   .     S
C1928  O1952   1.299   .     A
C1928  O1954   1.314   .     A
C1930  C1781   1.347   1_655 S
C1930  H1796   1.085   1_655 S
C1931  C1936   1.418   .     A
C1931  C1955   1.520   .     S
C1932  C1962   1.512   .     S
C1932  C1935   1.409   .     A
C1932  C1490   1.403   1_565 S
C1933  C1969   1.525   .     S
C1933  C1935   1.414   .     A
C1933  C1487   1.418   1_565 S
C1934  C1976   1.519   .     S
C1934  C1936   1.404   .     A
C1937  C1983   1.460   .     S
C1937  N1946   1.371   .     A
C1938  N1945   1.380   .     A
C1938  C1987   1.467   .     S
C1938  C608    1.427   1_556 S
C1939  N1945   1.375   .     A
C1939  C1991   1.471   .     S
C1939  C605    1.430   1_556 S
C1940  C1995   1.478   .     S
C1940  N1946   1.374   .     A
Cu1941 Cu1942  2.730   .     S
Cu1941 O1954   1.976   .     S
Cu1941 O1947   1.959   .     S
Cu1941 O1950   1.980   .     S
Cu1941 O1951   1.969   .     S
Cu1941 N1945   2.051   .     S
Cu1942 N1946   2.051   .     S
Cu1942 O1953   1.976   .     S
Cu1942 O1949   1.980   .     S
Cu1942 O1952   1.969   .     S
Cu1942 O1948   1.959   .     S
H1943  C1781   1.085   1_655 S
C1955  C1956   1.511   .     S
C1955  H1960   1.103   .     S
C1955  H1961   1.101   .     S
C1956  H1959   1.110   .     S
C1956  H1957   1.105   .     S
C1956  H1958   1.093   .     S
C1962  H1968   1.103   .     S
C1962  C1963   1.537   .     S
C1962  H1967   1.107   .     S
C1963  H1965   1.110   .     S
C1963  H1964   1.110   .     S
C1963  H1522   1.104   1_565 S
C1969  C1970   1.530   .     S
C1969  H1974   1.108   .     S
C1969  H1975   1.109   .     S
C1970  H1973   1.110   .     S
C1970  H1972   1.107   .     S
C1970  H1971   1.107   .     S
C1976  H1982   1.109   .     S
C1976  H1981   1.107   .     S
C1976  C1977   1.528   .     S
C1977  H1979   1.108   .     S
C1977  H1980   1.104   .     S
C1977  H1978   1.102   .     S
C1983  O1984   1.222   .     D
C1983  O1985   1.399   .     S
O1985  H1986   1.012   .     S
C1987  O1989   1.398   .     S
C1987  O1988   1.210   .     D
O1989  H1990   1.014   .     S
C1991  O1992   1.220   .     D
C1991  O1993   1.399   .     S
O1993  H1994   1.013   .     S
C1995  O1996   1.223   .     D
C1995  O1997   1.395   .     S
O1997  H1998   1.014   .     S
