data_str_m2_o1_o10_pcu_sym.21
_audit_creation_date              2020-01-03
_audit_creation_method            'Materials Studio'
_symmetry_space_group_name_H-M    'P1'
_symmetry_Int_Tables_number       1
_symmetry_cell_setting            triclinic
loop_
_symmetry_equiv_pos_as_xyz
  x,y,z
_cell_length_a                    26.3052
_cell_length_b                    32.4247
_cell_length_c                    28.7528
_cell_angle_alpha                 89.2613
_cell_angle_beta                  96.9258
_cell_angle_gamma                 91.3850
loop_
_atom_site_label
_atom_site_type_symbol
_atom_site_fract_x
_atom_site_fract_y
_atom_site_fract_z
_atom_site_U_iso_or_equiv
_atom_site_adp_type
_atom_site_occupancy
C1     C     0.16655   0.08743   0.16682   0.00000  Uiso   1.00
C2     C     0.18246   0.02114   0.20825   0.00000  Uiso   1.00
C3     C     0.16688   0.29054   0.16644   0.00000  Uiso   1.00
C4     C     0.16645   0.04279   0.16689   0.00000  Uiso   1.00
C5     C     0.14196   0.13618   0.02309   0.00000  Uiso   1.00
C6     C     0.19137   0.19715   0.31024   0.00000  Uiso   1.00
C7     C     0.14147   0.13596   0.30712   0.00000  Uiso   1.00
C8     C     0.19186   0.19738   0.02622   0.00000  Uiso   1.00
C9     C     0.11331   0.10109   0.28282   0.00000  Uiso   1.00
C10    C     0.22003   0.23224   0.05051   0.00000  Uiso   1.00
C11    C     0.16678   0.24590   0.16651   0.00000  Uiso   1.00
C12    C     0.06823   0.16611   0.15508   0.00000  Uiso   1.00
C13    C     0.26510   0.16722   0.17826   0.00000  Uiso   1.00
C14    C     0.01375   0.16021   0.14986   0.00000  Uiso   1.00
C15    C     0.31959   0.17312   0.18348   0.00000  Uiso   1.00
C16    C     0.15078   0.02154   0.12526   0.00000  Uiso   1.00
C17    C     0.18255   0.31179   0.20807   0.00000  Uiso   1.00
C18    C     0.15087   0.31219   0.12509   0.00000  Uiso   1.00
Cl19   Cl    0.32148   0.12977   0.10121   0.00000  Uiso   1.00
Cl20   Cl    0.01185   0.20356   0.23212   0.00000  Uiso   1.00
Cu21   Cu    0.16667   0.16667   0.21355   0.00000  Uiso   1.00
Cu22   Cu    0.16667   0.16666   0.11978   0.00000  Uiso   1.00
H23    H     0.13797   0.03786   0.09301   0.00000  Uiso   1.00
H24    H     0.19537   0.29548   0.24032   0.00000  Uiso   1.00
H25    H     0.13780   0.29618   0.09288   0.00000  Uiso   1.00
H26    H     0.19553   0.03716   0.24045   0.00000  Uiso   1.00
H27    H     0.12185   0.11206   0.04040   0.00000  Uiso   1.00
H28    H     0.21148   0.22128   0.29293   0.00000  Uiso   1.00
H29    H     0.10337   0.03930   0.27868   0.00000  Uiso   1.00
H30    H     0.22999   0.29403   0.05463   0.00000  Uiso   1.00
N31    N     0.16668   0.16668   0.28403   0.00000  Uiso   1.00
N32    N     0.16665   0.16666   0.04931   0.00000  Uiso   1.00
O33    O     0.16666   0.10655   0.20625   0.00000  Uiso   1.00
O34    O     0.12611   0.06081   0.29675   0.00000  Uiso   1.00
O35    O     0.25663   0.22627   0.07992   0.00000  Uiso   1.00
O36    O     0.20723   0.27252   0.03659   0.00000  Uiso   1.00
O37    O     0.16667   0.22678   0.12709   0.00000  Uiso   1.00
O38    O     0.16666   0.10654   0.12706   0.00000  Uiso   1.00
O39    O     0.16667   0.22679   0.20628   0.00000  Uiso   1.00
O40    O     0.09161   0.16667   0.19712   0.00000  Uiso   1.00
O41    O     0.24172   0.16666   0.13621   0.00000  Uiso   1.00
O42    O     0.09161   0.16666   0.11793   0.00000  Uiso   1.00
O43    O     0.24172   0.16667   0.21540   0.00000  Uiso   1.00
O44    O     0.07671   0.10706   0.25342   0.00000  Uiso   1.00
C45    C     0.49988   0.08743   0.16682   0.00000  Uiso   1.00
C46    C     0.51579   0.02114   0.20825   0.00000  Uiso   1.00
C47    C     0.50021   0.29054   0.16644   0.00000  Uiso   1.00
C48    C     0.49979   0.04279   0.16689   0.00000  Uiso   1.00
C49    C     0.47530   0.13618   0.02309   0.00000  Uiso   1.00
C50    C     0.52470   0.19715   0.31024   0.00000  Uiso   1.00
C51    C     0.47481   0.13596   0.30712   0.00000  Uiso   1.00
C52    C     0.52519   0.19738   0.02622   0.00000  Uiso   1.00
C53    C     0.44664   0.10109   0.28282   0.00000  Uiso   1.00
C54    C     0.55336   0.23224   0.05051   0.00000  Uiso   1.00
C55    C     0.50012   0.24590   0.16651   0.00000  Uiso   1.00
C56    C     0.40157   0.16611   0.15508   0.00000  Uiso   1.00
C57    C     0.59843   0.16722   0.17826   0.00000  Uiso   1.00
C58    C     0.34708   0.16021   0.14986   0.00000  Uiso   1.00
C59    C     0.65292   0.17312   0.18348   0.00000  Uiso   1.00
C60    C     0.48411   0.02154   0.12526   0.00000  Uiso   1.00
C61    C     0.51589   0.31179   0.20807   0.00000  Uiso   1.00
C62    C     0.48421   0.31219   0.12509   0.00000  Uiso   1.00
Cl63   Cl    0.65482   0.12977   0.10121   0.00000  Uiso   1.00
Cl64   Cl    0.34518   0.20356   0.23212   0.00000  Uiso   1.00
Cu65   Cu    0.50000   0.16667   0.21355   0.00000  Uiso   1.00
Cu66   Cu    0.50000   0.16666   0.11978   0.00000  Uiso   1.00
H67    H     0.47130   0.03786   0.09301   0.00000  Uiso   1.00
H68    H     0.52870   0.29548   0.24032   0.00000  Uiso   1.00
H69    H     0.47113   0.29618   0.09288   0.00000  Uiso   1.00
H70    H     0.52887   0.03716   0.24045   0.00000  Uiso   1.00
H71    H     0.45519   0.11206   0.04040   0.00000  Uiso   1.00
H72    H     0.54481   0.22128   0.29293   0.00000  Uiso   1.00
H73    H     0.43671   0.03930   0.27868   0.00000  Uiso   1.00
H74    H     0.56333   0.29403   0.05463   0.00000  Uiso   1.00
N75    N     0.50001   0.16668   0.28403   0.00000  Uiso   1.00
N76    N     0.49999   0.16666   0.04931   0.00000  Uiso   1.00
O77    O     0.50000   0.10655   0.20625   0.00000  Uiso   1.00
O78    O     0.45944   0.06081   0.29675   0.00000  Uiso   1.00
O79    O     0.58996   0.22627   0.07992   0.00000  Uiso   1.00
O80    O     0.54056   0.27252   0.03659   0.00000  Uiso   1.00
O81    O     0.50000   0.22678   0.12709   0.00000  Uiso   1.00
O82    O     0.50000   0.10654   0.12706   0.00000  Uiso   1.00
O83    O     0.50000   0.22679   0.20628   0.00000  Uiso   1.00
O84    O     0.42495   0.16667   0.19712   0.00000  Uiso   1.00
O85    O     0.57505   0.16666   0.13621   0.00000  Uiso   1.00
O86    O     0.42494   0.16666   0.11793   0.00000  Uiso   1.00
O87    O     0.57506   0.16667   0.21540   0.00000  Uiso   1.00
O88    O     0.41004   0.10706   0.25342   0.00000  Uiso   1.00
C89    C     0.83322   0.08743   0.16682   0.00000  Uiso   1.00
C90    C     0.84912   0.02114   0.20825   0.00000  Uiso   1.00
C91    C     0.83354   0.29054   0.16644   0.00000  Uiso   1.00
C92    C     0.83312   0.04279   0.16689   0.00000  Uiso   1.00
C93    C     0.80863   0.13618   0.02309   0.00000  Uiso   1.00
C94    C     0.85803   0.19715   0.31024   0.00000  Uiso   1.00
C95    C     0.80814   0.13596   0.30712   0.00000  Uiso   1.00
C96    C     0.85853   0.19738   0.02622   0.00000  Uiso   1.00
C97    C     0.77997   0.10109   0.28282   0.00000  Uiso   1.00
C98    C     0.88669   0.23224   0.05051   0.00000  Uiso   1.00
C99    C     0.83345   0.24590   0.16651   0.00000  Uiso   1.00
C100   C     0.73490   0.16611   0.15508   0.00000  Uiso   1.00
C101   C     0.93177   0.16722   0.17826   0.00000  Uiso   1.00
C102   C     0.68041   0.16021   0.14986   0.00000  Uiso   1.00
C103   C     0.98625   0.17312   0.18348   0.00000  Uiso   1.00
C104   C     0.81745   0.02154   0.12526   0.00000  Uiso   1.00
C105   C     0.84922   0.31179   0.20807   0.00000  Uiso   1.00
C106   C     0.81754   0.31219   0.12509   0.00000  Uiso   1.00
Cl107  Cl    0.98815   0.12977   0.10121   0.00000  Uiso   1.00
Cl108  Cl    0.67852   0.20356   0.23212   0.00000  Uiso   1.00
Cu109  Cu    0.83333   0.16667   0.21355   0.00000  Uiso   1.00
Cu110  Cu    0.83333   0.16666   0.11978   0.00000  Uiso   1.00
H111   H     0.80463   0.03786   0.09301   0.00000  Uiso   1.00
H112   H     0.86203   0.29548   0.24032   0.00000  Uiso   1.00
H113   H     0.80446   0.29618   0.09288   0.00000  Uiso   1.00
H114   H     0.86220   0.03716   0.24045   0.00000  Uiso   1.00
H115   H     0.78852   0.11206   0.04040   0.00000  Uiso   1.00
H116   H     0.87814   0.22128   0.29293   0.00000  Uiso   1.00
H117   H     0.77004   0.03930   0.27868   0.00000  Uiso   1.00
H118   H     0.89666   0.29403   0.05463   0.00000  Uiso   1.00
N119   N     0.83335   0.16668   0.28403   0.00000  Uiso   1.00
N120   N     0.83332   0.16666   0.04931   0.00000  Uiso   1.00
O121   O     0.83333   0.10655   0.20625   0.00000  Uiso   1.00
O122   O     0.79277   0.06081   0.29675   0.00000  Uiso   1.00
O123   O     0.92329   0.22627   0.07992   0.00000  Uiso   1.00
O124   O     0.87389   0.27252   0.03659   0.00000  Uiso   1.00
O125   O     0.83334   0.22678   0.12709   0.00000  Uiso   1.00
O126   O     0.83333   0.10654   0.12706   0.00000  Uiso   1.00
O127   O     0.83334   0.22679   0.20628   0.00000  Uiso   1.00
O128   O     0.75828   0.16667   0.19712   0.00000  Uiso   1.00
O129   O     0.90839   0.16666   0.13621   0.00000  Uiso   1.00
O130   O     0.75828   0.16666   0.11793   0.00000  Uiso   1.00
O131   O     0.90839   0.16667   0.21540   0.00000  Uiso   1.00
O132   O     0.74337   0.10706   0.25342   0.00000  Uiso   1.00
C133   C     0.16655   0.42077   0.16682   0.00000  Uiso   1.00
C134   C     0.18246   0.35447   0.20825   0.00000  Uiso   1.00
C135   C     0.16688   0.62388   0.16644   0.00000  Uiso   1.00
C136   C     0.16645   0.37612   0.16689   0.00000  Uiso   1.00
C137   C     0.14196   0.46951   0.02309   0.00000  Uiso   1.00
C138   C     0.19137   0.53049   0.31024   0.00000  Uiso   1.00
C139   C     0.14147   0.46929   0.30712   0.00000  Uiso   1.00
C140   C     0.19186   0.53071   0.02622   0.00000  Uiso   1.00
C141   C     0.11331   0.43442   0.28282   0.00000  Uiso   1.00
C142   C     0.22003   0.56558   0.05051   0.00000  Uiso   1.00
C143   C     0.16678   0.57923   0.16651   0.00000  Uiso   1.00
C144   C     0.06823   0.49944   0.15508   0.00000  Uiso   1.00
C145   C     0.26510   0.50055   0.17826   0.00000  Uiso   1.00
C146   C     0.01375   0.49355   0.14986   0.00000  Uiso   1.00
C147   C     0.31959   0.50645   0.18348   0.00000  Uiso   1.00
C148   C     0.15078   0.35488   0.12526   0.00000  Uiso   1.00
C149   C     0.18255   0.64512   0.20807   0.00000  Uiso   1.00
C150   C     0.15087   0.64553   0.12509   0.00000  Uiso   1.00
Cl151  Cl    0.32148   0.46311   0.10121   0.00000  Uiso   1.00
Cl152  Cl    0.01185   0.53689   0.23212   0.00000  Uiso   1.00
Cu153  Cu    0.16667   0.50001   0.21355   0.00000  Uiso   1.00
Cu154  Cu    0.16667   0.49999   0.11978   0.00000  Uiso   1.00
H155   H     0.13797   0.37119   0.09301   0.00000  Uiso   1.00
H156   H     0.19537   0.62881   0.24032   0.00000  Uiso   1.00
H157   H     0.13780   0.62951   0.09288   0.00000  Uiso   1.00
H158   H     0.19553   0.37049   0.24045   0.00000  Uiso   1.00
H159   H     0.12185   0.44539   0.04040   0.00000  Uiso   1.00
H160   H     0.21148   0.55461   0.29293   0.00000  Uiso   1.00
H161   H     0.10337   0.37263   0.27868   0.00000  Uiso   1.00
H162   H     0.22999   0.62736   0.05463   0.00000  Uiso   1.00
N163   N     0.16668   0.50001   0.28403   0.00000  Uiso   1.00
N164   N     0.16665   0.49999   0.04931   0.00000  Uiso   1.00
O165   O     0.16666   0.43989   0.20625   0.00000  Uiso   1.00
O166   O     0.12611   0.39415   0.29675   0.00000  Uiso   1.00
O167   O     0.25663   0.55960   0.07992   0.00000  Uiso   1.00
O168   O     0.20723   0.60585   0.03659   0.00000  Uiso   1.00
O169   O     0.16667   0.56011   0.12709   0.00000  Uiso   1.00
O170   O     0.16666   0.43988   0.12706   0.00000  Uiso   1.00
O171   O     0.16667   0.56012   0.20628   0.00000  Uiso   1.00
O172   O     0.09161   0.50000   0.19712   0.00000  Uiso   1.00
O173   O     0.24172   0.50000   0.13621   0.00000  Uiso   1.00
O174   O     0.09161   0.49999   0.11793   0.00000  Uiso   1.00
O175   O     0.24172   0.50001   0.21540   0.00000  Uiso   1.00
O176   O     0.07671   0.44040   0.25342   0.00000  Uiso   1.00
C177   C     0.49988   0.42077   0.16682   0.00000  Uiso   1.00
C178   C     0.51579   0.35447   0.20825   0.00000  Uiso   1.00
C179   C     0.50021   0.62388   0.16644   0.00000  Uiso   1.00
C180   C     0.49979   0.37612   0.16689   0.00000  Uiso   1.00
C181   C     0.47530   0.46951   0.02309   0.00000  Uiso   1.00
C182   C     0.52470   0.53049   0.31024   0.00000  Uiso   1.00
C183   C     0.47481   0.46929   0.30712   0.00000  Uiso   1.00
C184   C     0.52519   0.53071   0.02622   0.00000  Uiso   1.00
C185   C     0.44664   0.43442   0.28282   0.00000  Uiso   1.00
C186   C     0.55336   0.56558   0.05051   0.00000  Uiso   1.00
C187   C     0.50012   0.57923   0.16651   0.00000  Uiso   1.00
C188   C     0.40157   0.49944   0.15508   0.00000  Uiso   1.00
C189   C     0.59843   0.50055   0.17826   0.00000  Uiso   1.00
C190   C     0.34708   0.49355   0.14986   0.00000  Uiso   1.00
C191   C     0.65292   0.50645   0.18348   0.00000  Uiso   1.00
C192   C     0.48411   0.35488   0.12526   0.00000  Uiso   1.00
C193   C     0.51589   0.64512   0.20807   0.00000  Uiso   1.00
C194   C     0.48421   0.64553   0.12509   0.00000  Uiso   1.00
Cl195  Cl    0.65482   0.46311   0.10121   0.00000  Uiso   1.00
Cl196  Cl    0.34518   0.53689   0.23212   0.00000  Uiso   1.00
Cu197  Cu    0.50000   0.50001   0.21355   0.00000  Uiso   1.00
Cu198  Cu    0.50000   0.49999   0.11978   0.00000  Uiso   1.00
H199   H     0.47130   0.37119   0.09301   0.00000  Uiso   1.00
H200   H     0.52870   0.62881   0.24032   0.00000  Uiso   1.00
H201   H     0.47113   0.62951   0.09288   0.00000  Uiso   1.00
H202   H     0.52887   0.37049   0.24045   0.00000  Uiso   1.00
H203   H     0.45519   0.44539   0.04040   0.00000  Uiso   1.00
H204   H     0.54481   0.55461   0.29293   0.00000  Uiso   1.00
H205   H     0.43671   0.37263   0.27868   0.00000  Uiso   1.00
H206   H     0.56333   0.62736   0.05463   0.00000  Uiso   1.00
N207   N     0.50001   0.50001   0.28403   0.00000  Uiso   1.00
N208   N     0.49999   0.49999   0.04931   0.00000  Uiso   1.00
O209   O     0.50000   0.43989   0.20625   0.00000  Uiso   1.00
O210   O     0.45944   0.39415   0.29675   0.00000  Uiso   1.00
O211   O     0.58996   0.55960   0.07992   0.00000  Uiso   1.00
O212   O     0.54056   0.60585   0.03659   0.00000  Uiso   1.00
O213   O     0.50000   0.56011   0.12709   0.00000  Uiso   1.00
O214   O     0.50000   0.43988   0.12706   0.00000  Uiso   1.00
O215   O     0.50000   0.56012   0.20628   0.00000  Uiso   1.00
O216   O     0.42495   0.50000   0.19712   0.00000  Uiso   1.00
O217   O     0.57505   0.50000   0.13621   0.00000  Uiso   1.00
O218   O     0.42494   0.49999   0.11793   0.00000  Uiso   1.00
O219   O     0.57506   0.50001   0.21540   0.00000  Uiso   1.00
O220   O     0.41004   0.44040   0.25342   0.00000  Uiso   1.00
C221   C     0.83322   0.42077   0.16682   0.00000  Uiso   1.00
C222   C     0.84912   0.35447   0.20825   0.00000  Uiso   1.00
C223   C     0.83354   0.62388   0.16644   0.00000  Uiso   1.00
C224   C     0.83312   0.37612   0.16689   0.00000  Uiso   1.00
C225   C     0.80863   0.46951   0.02309   0.00000  Uiso   1.00
C226   C     0.85803   0.53049   0.31024   0.00000  Uiso   1.00
C227   C     0.80814   0.46929   0.30712   0.00000  Uiso   1.00
C228   C     0.85853   0.53071   0.02622   0.00000  Uiso   1.00
C229   C     0.77997   0.43442   0.28282   0.00000  Uiso   1.00
C230   C     0.88669   0.56558   0.05051   0.00000  Uiso   1.00
C231   C     0.83345   0.57923   0.16651   0.00000  Uiso   1.00
C232   C     0.73490   0.49944   0.15508   0.00000  Uiso   1.00
C233   C     0.93177   0.50055   0.17826   0.00000  Uiso   1.00
C234   C     0.68041   0.49355   0.14986   0.00000  Uiso   1.00
C235   C     0.98625   0.50645   0.18348   0.00000  Uiso   1.00
C236   C     0.81745   0.35488   0.12526   0.00000  Uiso   1.00
C237   C     0.84922   0.64512   0.20807   0.00000  Uiso   1.00
C238   C     0.81754   0.64553   0.12509   0.00000  Uiso   1.00
Cl239  Cl    0.98815   0.46311   0.10121   0.00000  Uiso   1.00
Cl240  Cl    0.67852   0.53689   0.23212   0.00000  Uiso   1.00
Cu241  Cu    0.83333   0.50001   0.21355   0.00000  Uiso   1.00
Cu242  Cu    0.83333   0.49999   0.11978   0.00000  Uiso   1.00
H243   H     0.80463   0.37119   0.09301   0.00000  Uiso   1.00
H244   H     0.86203   0.62881   0.24032   0.00000  Uiso   1.00
H245   H     0.80446   0.62951   0.09288   0.00000  Uiso   1.00
H246   H     0.86220   0.37049   0.24045   0.00000  Uiso   1.00
H247   H     0.78852   0.44539   0.04040   0.00000  Uiso   1.00
H248   H     0.87814   0.55461   0.29293   0.00000  Uiso   1.00
H249   H     0.77004   0.37263   0.27868   0.00000  Uiso   1.00
H250   H     0.89666   0.62736   0.05463   0.00000  Uiso   1.00
N251   N     0.83335   0.50001   0.28403   0.00000  Uiso   1.00
N252   N     0.83332   0.49999   0.04931   0.00000  Uiso   1.00
O253   O     0.83333   0.43989   0.20625   0.00000  Uiso   1.00
O254   O     0.79277   0.39415   0.29675   0.00000  Uiso   1.00
O255   O     0.92329   0.55960   0.07992   0.00000  Uiso   1.00
O256   O     0.87389   0.60585   0.03659   0.00000  Uiso   1.00
O257   O     0.83334   0.56011   0.12709   0.00000  Uiso   1.00
O258   O     0.83333   0.43988   0.12706   0.00000  Uiso   1.00
O259   O     0.83334   0.56012   0.20628   0.00000  Uiso   1.00
O260   O     0.75828   0.50000   0.19712   0.00000  Uiso   1.00
O261   O     0.90839   0.50000   0.13621   0.00000  Uiso   1.00
O262   O     0.75828   0.49999   0.11793   0.00000  Uiso   1.00
O263   O     0.90839   0.50001   0.21540   0.00000  Uiso   1.00
O264   O     0.74337   0.44040   0.25342   0.00000  Uiso   1.00
C265   C     0.16655   0.75410   0.16682   0.00000  Uiso   1.00
C266   C     0.18246   0.68781   0.20825   0.00000  Uiso   1.00
C267   C     0.16688   0.95721   0.16644   0.00000  Uiso   1.00
C268   C     0.16645   0.70945   0.16689   0.00000  Uiso   1.00
C269   C     0.14196   0.80285   0.02309   0.00000  Uiso   1.00
C270   C     0.19137   0.86382   0.31024   0.00000  Uiso   1.00
C271   C     0.14147   0.80263   0.30712   0.00000  Uiso   1.00
C272   C     0.19186   0.86404   0.02622   0.00000  Uiso   1.00
C273   C     0.11331   0.76776   0.28282   0.00000  Uiso   1.00
C274   C     0.22003   0.89891   0.05051   0.00000  Uiso   1.00
C275   C     0.16678   0.91257   0.16651   0.00000  Uiso   1.00
C276   C     0.06823   0.83278   0.15508   0.00000  Uiso   1.00
C277   C     0.26510   0.83389   0.17826   0.00000  Uiso   1.00
C278   C     0.01375   0.82688   0.14986   0.00000  Uiso   1.00
C279   C     0.31959   0.83979   0.18348   0.00000  Uiso   1.00
C280   C     0.15078   0.68821   0.12526   0.00000  Uiso   1.00
C281   C     0.18255   0.97846   0.20807   0.00000  Uiso   1.00
C282   C     0.15087   0.97886   0.12509   0.00000  Uiso   1.00
Cl283  Cl    0.32148   0.79644   0.10121   0.00000  Uiso   1.00
Cl284  Cl    0.01185   0.87023   0.23212   0.00000  Uiso   1.00
Cu285  Cu    0.16667   0.83334   0.21355   0.00000  Uiso   1.00
Cu286  Cu    0.16667   0.83333   0.11978   0.00000  Uiso   1.00
H287   H     0.13797   0.70452   0.09301   0.00000  Uiso   1.00
H288   H     0.19537   0.96214   0.24032   0.00000  Uiso   1.00
H289   H     0.13780   0.96284   0.09288   0.00000  Uiso   1.00
H290   H     0.19553   0.70382   0.24045   0.00000  Uiso   1.00
H291   H     0.12185   0.77872   0.04040   0.00000  Uiso   1.00
H292   H     0.21148   0.88794   0.29293   0.00000  Uiso   1.00
H293   H     0.10337   0.70597   0.27868   0.00000  Uiso   1.00
H294   H     0.22999   0.96069   0.05463   0.00000  Uiso   1.00
N295   N     0.16668   0.83334   0.28403   0.00000  Uiso   1.00
N296   N     0.16665   0.83332   0.04931   0.00000  Uiso   1.00
O297   O     0.16666   0.77322   0.20625   0.00000  Uiso   1.00
O298   O     0.12611   0.72748   0.29675   0.00000  Uiso   1.00
O299   O     0.25663   0.89294   0.07992   0.00000  Uiso   1.00
O300   O     0.20723   0.93919   0.03659   0.00000  Uiso   1.00
O301   O     0.16667   0.89345   0.12709   0.00000  Uiso   1.00
O302   O     0.16666   0.77321   0.12706   0.00000  Uiso   1.00
O303   O     0.16667   0.89346   0.20628   0.00000  Uiso   1.00
O304   O     0.09161   0.83334   0.19712   0.00000  Uiso   1.00
O305   O     0.24172   0.83333   0.13621   0.00000  Uiso   1.00
O306   O     0.09161   0.83333   0.11793   0.00000  Uiso   1.00
O307   O     0.24172   0.83334   0.21540   0.00000  Uiso   1.00
O308   O     0.07671   0.77373   0.25342   0.00000  Uiso   1.00
C309   C     0.49988   0.75410   0.16682   0.00000  Uiso   1.00
C310   C     0.51579   0.68781   0.20825   0.00000  Uiso   1.00
C311   C     0.50021   0.95721   0.16644   0.00000  Uiso   1.00
C312   C     0.49979   0.70945   0.16689   0.00000  Uiso   1.00
C313   C     0.47530   0.80285   0.02309   0.00000  Uiso   1.00
C314   C     0.52470   0.86382   0.31024   0.00000  Uiso   1.00
C315   C     0.47481   0.80263   0.30712   0.00000  Uiso   1.00
C316   C     0.52519   0.86404   0.02622   0.00000  Uiso   1.00
C317   C     0.44664   0.76776   0.28282   0.00000  Uiso   1.00
C318   C     0.55336   0.89891   0.05051   0.00000  Uiso   1.00
C319   C     0.50012   0.91257   0.16651   0.00000  Uiso   1.00
C320   C     0.40157   0.83278   0.15508   0.00000  Uiso   1.00
C321   C     0.59843   0.83389   0.17826   0.00000  Uiso   1.00
C322   C     0.34708   0.82688   0.14986   0.00000  Uiso   1.00
C323   C     0.65292   0.83979   0.18348   0.00000  Uiso   1.00
C324   C     0.48411   0.68821   0.12526   0.00000  Uiso   1.00
C325   C     0.51589   0.97846   0.20807   0.00000  Uiso   1.00
C326   C     0.48421   0.97886   0.12509   0.00000  Uiso   1.00
Cl327  Cl    0.65482   0.79644   0.10121   0.00000  Uiso   1.00
Cl328  Cl    0.34518   0.87023   0.23212   0.00000  Uiso   1.00
Cu329  Cu    0.50000   0.83334   0.21355   0.00000  Uiso   1.00
Cu330  Cu    0.50000   0.83333   0.11978   0.00000  Uiso   1.00
H331   H     0.47130   0.70452   0.09301   0.00000  Uiso   1.00
H332   H     0.52870   0.96214   0.24032   0.00000  Uiso   1.00
H333   H     0.47113   0.96284   0.09288   0.00000  Uiso   1.00
H334   H     0.52887   0.70382   0.24045   0.00000  Uiso   1.00
H335   H     0.45519   0.77872   0.04040   0.00000  Uiso   1.00
H336   H     0.54481   0.88794   0.29293   0.00000  Uiso   1.00
H337   H     0.43671   0.70597   0.27868   0.00000  Uiso   1.00
H338   H     0.56333   0.96069   0.05463   0.00000  Uiso   1.00
N339   N     0.50001   0.83334   0.28403   0.00000  Uiso   1.00
N340   N     0.49999   0.83332   0.04931   0.00000  Uiso   1.00
O341   O     0.50000   0.77322   0.20625   0.00000  Uiso   1.00
O342   O     0.45944   0.72748   0.29675   0.00000  Uiso   1.00
O343   O     0.58996   0.89294   0.07992   0.00000  Uiso   1.00
O344   O     0.54056   0.93919   0.03659   0.00000  Uiso   1.00
O345   O     0.50000   0.89345   0.12709   0.00000  Uiso   1.00
O346   O     0.50000   0.77321   0.12706   0.00000  Uiso   1.00
O347   O     0.50000   0.89346   0.20628   0.00000  Uiso   1.00
O348   O     0.42495   0.83334   0.19712   0.00000  Uiso   1.00
O349   O     0.57505   0.83333   0.13621   0.00000  Uiso   1.00
O350   O     0.42494   0.83333   0.11793   0.00000  Uiso   1.00
O351   O     0.57506   0.83334   0.21540   0.00000  Uiso   1.00
O352   O     0.41004   0.77373   0.25342   0.00000  Uiso   1.00
C353   C     0.83322   0.75410   0.16682   0.00000  Uiso   1.00
C354   C     0.84912   0.68781   0.20825   0.00000  Uiso   1.00
C355   C     0.83354   0.95721   0.16644   0.00000  Uiso   1.00
C356   C     0.83312   0.70945   0.16689   0.00000  Uiso   1.00
C357   C     0.80863   0.80285   0.02309   0.00000  Uiso   1.00
C358   C     0.85803   0.86382   0.31024   0.00000  Uiso   1.00
C359   C     0.80814   0.80263   0.30712   0.00000  Uiso   1.00
C360   C     0.85853   0.86404   0.02622   0.00000  Uiso   1.00
C361   C     0.77997   0.76776   0.28282   0.00000  Uiso   1.00
C362   C     0.88669   0.89891   0.05051   0.00000  Uiso   1.00
C363   C     0.83345   0.91257   0.16651   0.00000  Uiso   1.00
C364   C     0.73490   0.83278   0.15508   0.00000  Uiso   1.00
C365   C     0.93177   0.83389   0.17826   0.00000  Uiso   1.00
C366   C     0.68041   0.82688   0.14986   0.00000  Uiso   1.00
C367   C     0.98625   0.83979   0.18348   0.00000  Uiso   1.00
C368   C     0.81745   0.68821   0.12526   0.00000  Uiso   1.00
C369   C     0.84922   0.97846   0.20807   0.00000  Uiso   1.00
C370   C     0.81754   0.97886   0.12509   0.00000  Uiso   1.00
Cl371  Cl    0.98815   0.79644   0.10121   0.00000  Uiso   1.00
Cl372  Cl    0.67852   0.87023   0.23212   0.00000  Uiso   1.00
Cu373  Cu    0.83333   0.83334   0.21355   0.00000  Uiso   1.00
Cu374  Cu    0.83333   0.83333   0.11978   0.00000  Uiso   1.00
H375   H     0.80463   0.70452   0.09301   0.00000  Uiso   1.00
H376   H     0.86203   0.96214   0.24032   0.00000  Uiso   1.00
H377   H     0.80446   0.96284   0.09288   0.00000  Uiso   1.00
H378   H     0.86220   0.70382   0.24045   0.00000  Uiso   1.00
H379   H     0.78852   0.77872   0.04040   0.00000  Uiso   1.00
H380   H     0.87814   0.88794   0.29293   0.00000  Uiso   1.00
H381   H     0.77004   0.70597   0.27868   0.00000  Uiso   1.00
H382   H     0.89666   0.96069   0.05463   0.00000  Uiso   1.00
N383   N     0.83335   0.83334   0.28403   0.00000  Uiso   1.00
N384   N     0.83332   0.83332   0.04931   0.00000  Uiso   1.00
O385   O     0.83333   0.77322   0.20625   0.00000  Uiso   1.00
O386   O     0.79277   0.72748   0.29675   0.00000  Uiso   1.00
O387   O     0.92329   0.89294   0.07992   0.00000  Uiso   1.00
O388   O     0.87389   0.93919   0.03659   0.00000  Uiso   1.00
O389   O     0.83334   0.89345   0.12709   0.00000  Uiso   1.00
O390   O     0.83333   0.77321   0.12706   0.00000  Uiso   1.00
O391   O     0.83334   0.89346   0.20628   0.00000  Uiso   1.00
O392   O     0.75828   0.83334   0.19712   0.00000  Uiso   1.00
O393   O     0.90839   0.83333   0.13621   0.00000  Uiso   1.00
O394   O     0.75828   0.83333   0.11793   0.00000  Uiso   1.00
O395   O     0.90839   0.83334   0.21540   0.00000  Uiso   1.00
O396   O     0.74337   0.77373   0.25342   0.00000  Uiso   1.00
C397   C     0.16655   0.08743   0.50015   0.00000  Uiso   1.00
C398   C     0.18246   0.02114   0.54158   0.00000  Uiso   1.00
C399   C     0.16688   0.29054   0.49978   0.00000  Uiso   1.00
C400   C     0.16645   0.04279   0.50022   0.00000  Uiso   1.00
C401   C     0.14196   0.13618   0.35642   0.00000  Uiso   1.00
C402   C     0.19137   0.19715   0.64358   0.00000  Uiso   1.00
C403   C     0.14147   0.13596   0.64045   0.00000  Uiso   1.00
C404   C     0.19186   0.19738   0.35955   0.00000  Uiso   1.00
C405   C     0.11331   0.10109   0.61615   0.00000  Uiso   1.00
C406   C     0.22003   0.23224   0.38385   0.00000  Uiso   1.00
C407   C     0.16678   0.24590   0.49985   0.00000  Uiso   1.00
C408   C     0.06823   0.16611   0.48841   0.00000  Uiso   1.00
C409   C     0.26510   0.16722   0.51159   0.00000  Uiso   1.00
C410   C     0.01375   0.16021   0.48319   0.00000  Uiso   1.00
C411   C     0.31959   0.17312   0.51681   0.00000  Uiso   1.00
C412   C     0.15078   0.02154   0.45860   0.00000  Uiso   1.00
C413   C     0.18255   0.31179   0.54140   0.00000  Uiso   1.00
C414   C     0.15087   0.31219   0.45842   0.00000  Uiso   1.00
Cl415  Cl    0.32148   0.12977   0.43455   0.00000  Uiso   1.00
Cl416  Cl    0.01185   0.20356   0.56545   0.00000  Uiso   1.00
Cu417  Cu    0.16667   0.16667   0.54689   0.00000  Uiso   1.00
Cu418  Cu    0.16667   0.16666   0.45311   0.00000  Uiso   1.00
H419   H     0.13797   0.03786   0.42635   0.00000  Uiso   1.00
H420   H     0.19537   0.29548   0.57365   0.00000  Uiso   1.00
H421   H     0.13780   0.29618   0.42622   0.00000  Uiso   1.00
H422   H     0.19553   0.03716   0.57378   0.00000  Uiso   1.00
H423   H     0.12185   0.11206   0.37373   0.00000  Uiso   1.00
H424   H     0.21148   0.22128   0.62627   0.00000  Uiso   1.00
H425   H     0.10337   0.03930   0.61202   0.00000  Uiso   1.00
H426   H     0.22999   0.29403   0.38797   0.00000  Uiso   1.00
N427   N     0.16668   0.16668   0.61736   0.00000  Uiso   1.00
N428   N     0.16665   0.16666   0.38264   0.00000  Uiso   1.00
O429   O     0.16666   0.10655   0.53958   0.00000  Uiso   1.00
O430   O     0.12611   0.06081   0.63008   0.00000  Uiso   1.00
O431   O     0.25663   0.22627   0.41325   0.00000  Uiso   1.00
O432   O     0.20723   0.27252   0.36993   0.00000  Uiso   1.00
O433   O     0.16667   0.22678   0.46042   0.00000  Uiso   1.00
O434   O     0.16666   0.10654   0.46039   0.00000  Uiso   1.00
O435   O     0.16667   0.22679   0.53961   0.00000  Uiso   1.00
O436   O     0.09161   0.16667   0.53046   0.00000  Uiso   1.00
O437   O     0.24172   0.16666   0.46954   0.00000  Uiso   1.00
O438   O     0.09161   0.16666   0.45127   0.00000  Uiso   1.00
O439   O     0.24172   0.16667   0.54873   0.00000  Uiso   1.00
O440   O     0.07671   0.10706   0.58675   0.00000  Uiso   1.00
C441   C     0.49988   0.08743   0.50015   0.00000  Uiso   1.00
C442   C     0.51579   0.02114   0.54158   0.00000  Uiso   1.00
C443   C     0.50021   0.29054   0.49978   0.00000  Uiso   1.00
C444   C     0.49979   0.04279   0.50022   0.00000  Uiso   1.00
C445   C     0.47530   0.13618   0.35642   0.00000  Uiso   1.00
C446   C     0.52470   0.19715   0.64358   0.00000  Uiso   1.00
C447   C     0.47481   0.13596   0.64045   0.00000  Uiso   1.00
C448   C     0.52519   0.19738   0.35955   0.00000  Uiso   1.00
C449   C     0.44664   0.10109   0.61615   0.00000  Uiso   1.00
C450   C     0.55336   0.23224   0.38385   0.00000  Uiso   1.00
C451   C     0.50012   0.24590   0.49985   0.00000  Uiso   1.00
C452   C     0.40157   0.16611   0.48841   0.00000  Uiso   1.00
C453   C     0.59843   0.16722   0.51159   0.00000  Uiso   1.00
C454   C     0.34708   0.16021   0.48319   0.00000  Uiso   1.00
C455   C     0.65292   0.17312   0.51681   0.00000  Uiso   1.00
C456   C     0.48411   0.02154   0.45860   0.00000  Uiso   1.00
C457   C     0.51589   0.31179   0.54140   0.00000  Uiso   1.00
C458   C     0.48421   0.31219   0.45842   0.00000  Uiso   1.00
Cl459  Cl    0.65482   0.12977   0.43455   0.00000  Uiso   1.00
Cl460  Cl    0.34518   0.20356   0.56545   0.00000  Uiso   1.00
Cu461  Cu    0.50000   0.16667   0.54689   0.00000  Uiso   1.00
Cu462  Cu    0.50000   0.16666   0.45311   0.00000  Uiso   1.00
H463   H     0.47130   0.03786   0.42635   0.00000  Uiso   1.00
H464   H     0.52870   0.29548   0.57365   0.00000  Uiso   1.00
H465   H     0.47113   0.29618   0.42622   0.00000  Uiso   1.00
H466   H     0.52887   0.03716   0.57378   0.00000  Uiso   1.00
H467   H     0.45519   0.11206   0.37373   0.00000  Uiso   1.00
H468   H     0.54481   0.22128   0.62627   0.00000  Uiso   1.00
H469   H     0.43671   0.03930   0.61202   0.00000  Uiso   1.00
H470   H     0.56333   0.29403   0.38797   0.00000  Uiso   1.00
N471   N     0.50001   0.16668   0.61736   0.00000  Uiso   1.00
N472   N     0.49999   0.16666   0.38264   0.00000  Uiso   1.00
O473   O     0.50000   0.10655   0.53958   0.00000  Uiso   1.00
O474   O     0.45944   0.06081   0.63008   0.00000  Uiso   1.00
O475   O     0.58996   0.22627   0.41325   0.00000  Uiso   1.00
O476   O     0.54056   0.27252   0.36993   0.00000  Uiso   1.00
O477   O     0.50000   0.22678   0.46042   0.00000  Uiso   1.00
O478   O     0.50000   0.10654   0.46039   0.00000  Uiso   1.00
O479   O     0.50000   0.22679   0.53961   0.00000  Uiso   1.00
O480   O     0.42495   0.16667   0.53046   0.00000  Uiso   1.00
O481   O     0.57505   0.16666   0.46954   0.00000  Uiso   1.00
O482   O     0.42494   0.16666   0.45127   0.00000  Uiso   1.00
O483   O     0.57506   0.16667   0.54873   0.00000  Uiso   1.00
O484   O     0.41004   0.10706   0.58675   0.00000  Uiso   1.00
C485   C     0.83322   0.08743   0.50015   0.00000  Uiso   1.00
C486   C     0.84912   0.02114   0.54158   0.00000  Uiso   1.00
C487   C     0.83354   0.29054   0.49978   0.00000  Uiso   1.00
C488   C     0.83312   0.04279   0.50022   0.00000  Uiso   1.00
C489   C     0.80863   0.13618   0.35642   0.00000  Uiso   1.00
C490   C     0.85803   0.19715   0.64358   0.00000  Uiso   1.00
C491   C     0.80814   0.13596   0.64045   0.00000  Uiso   1.00
C492   C     0.85853   0.19738   0.35955   0.00000  Uiso   1.00
C493   C     0.77997   0.10109   0.61615   0.00000  Uiso   1.00
C494   C     0.88669   0.23224   0.38385   0.00000  Uiso   1.00
C495   C     0.83345   0.24590   0.49985   0.00000  Uiso   1.00
C496   C     0.73490   0.16611   0.48841   0.00000  Uiso   1.00
C497   C     0.93177   0.16722   0.51159   0.00000  Uiso   1.00
C498   C     0.68041   0.16021   0.48319   0.00000  Uiso   1.00
C499   C     0.98625   0.17312   0.51681   0.00000  Uiso   1.00
C500   C     0.81745   0.02154   0.45860   0.00000  Uiso   1.00
C501   C     0.84922   0.31179   0.54140   0.00000  Uiso   1.00
C502   C     0.81754   0.31219   0.45842   0.00000  Uiso   1.00
Cl503  Cl    0.98815   0.12977   0.43455   0.00000  Uiso   1.00
Cl504  Cl    0.67852   0.20356   0.56545   0.00000  Uiso   1.00
Cu505  Cu    0.83333   0.16667   0.54689   0.00000  Uiso   1.00
Cu506  Cu    0.83333   0.16666   0.45311   0.00000  Uiso   1.00
H507   H     0.80463   0.03786   0.42635   0.00000  Uiso   1.00
H508   H     0.86203   0.29548   0.57365   0.00000  Uiso   1.00
H509   H     0.80446   0.29618   0.42622   0.00000  Uiso   1.00
H510   H     0.86220   0.03716   0.57378   0.00000  Uiso   1.00
H511   H     0.78852   0.11206   0.37373   0.00000  Uiso   1.00
H512   H     0.87814   0.22128   0.62627   0.00000  Uiso   1.00
H513   H     0.77004   0.03930   0.61202   0.00000  Uiso   1.00
H514   H     0.89666   0.29403   0.38797   0.00000  Uiso   1.00
N515   N     0.83335   0.16668   0.61736   0.00000  Uiso   1.00
N516   N     0.83332   0.16666   0.38264   0.00000  Uiso   1.00
O517   O     0.83333   0.10655   0.53958   0.00000  Uiso   1.00
O518   O     0.79277   0.06081   0.63008   0.00000  Uiso   1.00
O519   O     0.92329   0.22627   0.41325   0.00000  Uiso   1.00
O520   O     0.87389   0.27252   0.36993   0.00000  Uiso   1.00
O521   O     0.83334   0.22678   0.46042   0.00000  Uiso   1.00
O522   O     0.83333   0.10654   0.46039   0.00000  Uiso   1.00
O523   O     0.83334   0.22679   0.53961   0.00000  Uiso   1.00
O524   O     0.75828   0.16667   0.53046   0.00000  Uiso   1.00
O525   O     0.90839   0.16666   0.46954   0.00000  Uiso   1.00
O526   O     0.75828   0.16666   0.45127   0.00000  Uiso   1.00
O527   O     0.90839   0.16667   0.54873   0.00000  Uiso   1.00
O528   O     0.74337   0.10706   0.58675   0.00000  Uiso   1.00
C529   C     0.16655   0.42077   0.50015   0.00000  Uiso   1.00
C530   C     0.18246   0.35447   0.54158   0.00000  Uiso   1.00
C531   C     0.16688   0.62388   0.49978   0.00000  Uiso   1.00
C532   C     0.16645   0.37612   0.50022   0.00000  Uiso   1.00
C533   C     0.14196   0.46951   0.35642   0.00000  Uiso   1.00
C534   C     0.19137   0.53049   0.64358   0.00000  Uiso   1.00
C535   C     0.14147   0.46929   0.64045   0.00000  Uiso   1.00
C536   C     0.19186   0.53071   0.35955   0.00000  Uiso   1.00
C537   C     0.11331   0.43442   0.61615   0.00000  Uiso   1.00
C538   C     0.22003   0.56558   0.38385   0.00000  Uiso   1.00
C539   C     0.16678   0.57923   0.49985   0.00000  Uiso   1.00
C540   C     0.06823   0.49944   0.48841   0.00000  Uiso   1.00
C541   C     0.26510   0.50055   0.51159   0.00000  Uiso   1.00
C542   C     0.01375   0.49355   0.48319   0.00000  Uiso   1.00
C543   C     0.31959   0.50645   0.51681   0.00000  Uiso   1.00
C544   C     0.15078   0.35488   0.45860   0.00000  Uiso   1.00
C545   C     0.18255   0.64512   0.54140   0.00000  Uiso   1.00
C546   C     0.15087   0.64553   0.45842   0.00000  Uiso   1.00
Cl547  Cl    0.32148   0.46311   0.43455   0.00000  Uiso   1.00
Cl548  Cl    0.01185   0.53689   0.56545   0.00000  Uiso   1.00
Cu549  Cu    0.16667   0.50001   0.54689   0.00000  Uiso   1.00
Cu550  Cu    0.16667   0.49999   0.45311   0.00000  Uiso   1.00
H551   H     0.13797   0.37119   0.42635   0.00000  Uiso   1.00
H552   H     0.19537   0.62881   0.57365   0.00000  Uiso   1.00
H553   H     0.13780   0.62951   0.42622   0.00000  Uiso   1.00
H554   H     0.19553   0.37049   0.57378   0.00000  Uiso   1.00
H555   H     0.12185   0.44539   0.37373   0.00000  Uiso   1.00
H556   H     0.21148   0.55461   0.62627   0.00000  Uiso   1.00
H557   H     0.10337   0.37263   0.61202   0.00000  Uiso   1.00
H558   H     0.22999   0.62736   0.38797   0.00000  Uiso   1.00
N559   N     0.16668   0.50001   0.61736   0.00000  Uiso   1.00
N560   N     0.16665   0.49999   0.38264   0.00000  Uiso   1.00
O561   O     0.16666   0.43989   0.53958   0.00000  Uiso   1.00
O562   O     0.12611   0.39415   0.63008   0.00000  Uiso   1.00
O563   O     0.25663   0.55960   0.41325   0.00000  Uiso   1.00
O564   O     0.20723   0.60585   0.36993   0.00000  Uiso   1.00
O565   O     0.16667   0.56011   0.46042   0.00000  Uiso   1.00
O566   O     0.16666   0.43988   0.46039   0.00000  Uiso   1.00
O567   O     0.16667   0.56012   0.53961   0.00000  Uiso   1.00
O568   O     0.09161   0.50000   0.53046   0.00000  Uiso   1.00
O569   O     0.24172   0.50000   0.46954   0.00000  Uiso   1.00
O570   O     0.09161   0.49999   0.45127   0.00000  Uiso   1.00
O571   O     0.24172   0.50001   0.54873   0.00000  Uiso   1.00
O572   O     0.07671   0.44040   0.58675   0.00000  Uiso   1.00
C573   C     0.49988   0.42077   0.50015   0.00000  Uiso   1.00
C574   C     0.51579   0.35447   0.54158   0.00000  Uiso   1.00
C575   C     0.50021   0.62388   0.49978   0.00000  Uiso   1.00
C576   C     0.49979   0.37612   0.50022   0.00000  Uiso   1.00
C577   C     0.47530   0.46951   0.35642   0.00000  Uiso   1.00
C578   C     0.52470   0.53049   0.64358   0.00000  Uiso   1.00
C579   C     0.47481   0.46929   0.64045   0.00000  Uiso   1.00
C580   C     0.52519   0.53071   0.35955   0.00000  Uiso   1.00
C581   C     0.44664   0.43442   0.61615   0.00000  Uiso   1.00
C582   C     0.55336   0.56558   0.38385   0.00000  Uiso   1.00
C583   C     0.50012   0.57923   0.49985   0.00000  Uiso   1.00
C584   C     0.40157   0.49944   0.48841   0.00000  Uiso   1.00
C585   C     0.59843   0.50055   0.51159   0.00000  Uiso   1.00
C586   C     0.34708   0.49355   0.48319   0.00000  Uiso   1.00
C587   C     0.65292   0.50645   0.51681   0.00000  Uiso   1.00
C588   C     0.48411   0.35488   0.45860   0.00000  Uiso   1.00
C589   C     0.51589   0.64512   0.54140   0.00000  Uiso   1.00
C590   C     0.48421   0.64553   0.45842   0.00000  Uiso   1.00
Cl591  Cl    0.65482   0.46311   0.43455   0.00000  Uiso   1.00
Cl592  Cl    0.34518   0.53689   0.56545   0.00000  Uiso   1.00
Cu593  Cu    0.50000   0.50001   0.54689   0.00000  Uiso   1.00
Cu594  Cu    0.50000   0.49999   0.45311   0.00000  Uiso   1.00
H595   H     0.47130   0.37119   0.42635   0.00000  Uiso   1.00
H596   H     0.52870   0.62881   0.57365   0.00000  Uiso   1.00
H597   H     0.47113   0.62951   0.42622   0.00000  Uiso   1.00
H598   H     0.52887   0.37049   0.57378   0.00000  Uiso   1.00
H599   H     0.45519   0.44539   0.37373   0.00000  Uiso   1.00
H600   H     0.54481   0.55461   0.62627   0.00000  Uiso   1.00
H601   H     0.43671   0.37263   0.61202   0.00000  Uiso   1.00
H602   H     0.56333   0.62736   0.38797   0.00000  Uiso   1.00
N603   N     0.50001   0.50001   0.61736   0.00000  Uiso   1.00
N604   N     0.49999   0.49999   0.38264   0.00000  Uiso   1.00
O605   O     0.50000   0.43989   0.53958   0.00000  Uiso   1.00
O606   O     0.45944   0.39415   0.63008   0.00000  Uiso   1.00
O607   O     0.58996   0.55960   0.41325   0.00000  Uiso   1.00
O608   O     0.54056   0.60585   0.36993   0.00000  Uiso   1.00
O609   O     0.50000   0.56011   0.46042   0.00000  Uiso   1.00
O610   O     0.50000   0.43988   0.46039   0.00000  Uiso   1.00
O611   O     0.50000   0.56012   0.53961   0.00000  Uiso   1.00
O612   O     0.42495   0.50000   0.53046   0.00000  Uiso   1.00
O613   O     0.57505   0.50000   0.46954   0.00000  Uiso   1.00
O614   O     0.42494   0.49999   0.45127   0.00000  Uiso   1.00
O615   O     0.57506   0.50001   0.54873   0.00000  Uiso   1.00
O616   O     0.41004   0.44040   0.58675   0.00000  Uiso   1.00
C617   C     0.83322   0.42077   0.50015   0.00000  Uiso   1.00
C618   C     0.84912   0.35447   0.54158   0.00000  Uiso   1.00
C619   C     0.83354   0.62388   0.49978   0.00000  Uiso   1.00
C620   C     0.83312   0.37612   0.50022   0.00000  Uiso   1.00
C621   C     0.80863   0.46951   0.35642   0.00000  Uiso   1.00
C622   C     0.85803   0.53049   0.64358   0.00000  Uiso   1.00
C623   C     0.80814   0.46929   0.64045   0.00000  Uiso   1.00
C624   C     0.85853   0.53071   0.35955   0.00000  Uiso   1.00
C625   C     0.77997   0.43442   0.61615   0.00000  Uiso   1.00
C626   C     0.88669   0.56558   0.38385   0.00000  Uiso   1.00
C627   C     0.83345   0.57923   0.49985   0.00000  Uiso   1.00
C628   C     0.73490   0.49944   0.48841   0.00000  Uiso   1.00
C629   C     0.93177   0.50055   0.51159   0.00000  Uiso   1.00
C630   C     0.68041   0.49355   0.48319   0.00000  Uiso   1.00
C631   C     0.98625   0.50645   0.51681   0.00000  Uiso   1.00
C632   C     0.81745   0.35488   0.45860   0.00000  Uiso   1.00
C633   C     0.84922   0.64512   0.54140   0.00000  Uiso   1.00
C634   C     0.81754   0.64553   0.45842   0.00000  Uiso   1.00
Cl635  Cl    0.98815   0.46311   0.43455   0.00000  Uiso   1.00
Cl636  Cl    0.67852   0.53689   0.56545   0.00000  Uiso   1.00
Cu637  Cu    0.83333   0.50001   0.54689   0.00000  Uiso   1.00
Cu638  Cu    0.83333   0.49999   0.45311   0.00000  Uiso   1.00
H639   H     0.80463   0.37119   0.42635   0.00000  Uiso   1.00
H640   H     0.86203   0.62881   0.57365   0.00000  Uiso   1.00
H641   H     0.80446   0.62951   0.42622   0.00000  Uiso   1.00
H642   H     0.86220   0.37049   0.57378   0.00000  Uiso   1.00
H643   H     0.78852   0.44539   0.37373   0.00000  Uiso   1.00
H644   H     0.87814   0.55461   0.62627   0.00000  Uiso   1.00
H645   H     0.77004   0.37263   0.61202   0.00000  Uiso   1.00
H646   H     0.89666   0.62736   0.38797   0.00000  Uiso   1.00
N647   N     0.83335   0.50001   0.61736   0.00000  Uiso   1.00
N648   N     0.83332   0.49999   0.38264   0.00000  Uiso   1.00
O649   O     0.83333   0.43989   0.53958   0.00000  Uiso   1.00
O650   O     0.79277   0.39415   0.63008   0.00000  Uiso   1.00
O651   O     0.92329   0.55960   0.41325   0.00000  Uiso   1.00
O652   O     0.87389   0.60585   0.36993   0.00000  Uiso   1.00
O653   O     0.83334   0.56011   0.46042   0.00000  Uiso   1.00
O654   O     0.83333   0.43988   0.46039   0.00000  Uiso   1.00
O655   O     0.83334   0.56012   0.53961   0.00000  Uiso   1.00
O656   O     0.75828   0.50000   0.53046   0.00000  Uiso   1.00
O657   O     0.90839   0.50000   0.46954   0.00000  Uiso   1.00
O658   O     0.75828   0.49999   0.45127   0.00000  Uiso   1.00
O659   O     0.90839   0.50001   0.54873   0.00000  Uiso   1.00
O660   O     0.74337   0.44040   0.58675   0.00000  Uiso   1.00
C661   C     0.16655   0.75410   0.50015   0.00000  Uiso   1.00
C662   C     0.18246   0.68781   0.54158   0.00000  Uiso   1.00
C663   C     0.16688   0.95721   0.49978   0.00000  Uiso   1.00
C664   C     0.16645   0.70945   0.50022   0.00000  Uiso   1.00
C665   C     0.14196   0.80285   0.35642   0.00000  Uiso   1.00
C666   C     0.19137   0.86382   0.64358   0.00000  Uiso   1.00
C667   C     0.14147   0.80263   0.64045   0.00000  Uiso   1.00
C668   C     0.19186   0.86404   0.35955   0.00000  Uiso   1.00
C669   C     0.11331   0.76776   0.61615   0.00000  Uiso   1.00
C670   C     0.22003   0.89891   0.38385   0.00000  Uiso   1.00
C671   C     0.16678   0.91257   0.49985   0.00000  Uiso   1.00
C672   C     0.06823   0.83278   0.48841   0.00000  Uiso   1.00
C673   C     0.26510   0.83389   0.51159   0.00000  Uiso   1.00
C674   C     0.01375   0.82688   0.48319   0.00000  Uiso   1.00
C675   C     0.31959   0.83979   0.51681   0.00000  Uiso   1.00
C676   C     0.15078   0.68821   0.45860   0.00000  Uiso   1.00
C677   C     0.18255   0.97846   0.54140   0.00000  Uiso   1.00
C678   C     0.15087   0.97886   0.45842   0.00000  Uiso   1.00
Cl679  Cl    0.32148   0.79644   0.43455   0.00000  Uiso   1.00
Cl680  Cl    0.01185   0.87023   0.56545   0.00000  Uiso   1.00
Cu681  Cu    0.16667   0.83334   0.54689   0.00000  Uiso   1.00
Cu682  Cu    0.16667   0.83333   0.45311   0.00000  Uiso   1.00
H683   H     0.13797   0.70452   0.42635   0.00000  Uiso   1.00
H684   H     0.19537   0.96214   0.57365   0.00000  Uiso   1.00
H685   H     0.13780   0.96284   0.42622   0.00000  Uiso   1.00
H686   H     0.19553   0.70382   0.57378   0.00000  Uiso   1.00
H687   H     0.12185   0.77872   0.37373   0.00000  Uiso   1.00
H688   H     0.21148   0.88794   0.62627   0.00000  Uiso   1.00
H689   H     0.10337   0.70597   0.61202   0.00000  Uiso   1.00
H690   H     0.22999   0.96069   0.38797   0.00000  Uiso   1.00
N691   N     0.16668   0.83334   0.61736   0.00000  Uiso   1.00
N692   N     0.16665   0.83332   0.38264   0.00000  Uiso   1.00
O693   O     0.16666   0.77322   0.53958   0.00000  Uiso   1.00
O694   O     0.12611   0.72748   0.63008   0.00000  Uiso   1.00
O695   O     0.25663   0.89294   0.41325   0.00000  Uiso   1.00
O696   O     0.20723   0.93919   0.36993   0.00000  Uiso   1.00
O697   O     0.16667   0.89345   0.46042   0.00000  Uiso   1.00
O698   O     0.16666   0.77321   0.46039   0.00000  Uiso   1.00
O699   O     0.16667   0.89346   0.53961   0.00000  Uiso   1.00
O700   O     0.09161   0.83334   0.53046   0.00000  Uiso   1.00
O701   O     0.24172   0.83333   0.46954   0.00000  Uiso   1.00
O702   O     0.09161   0.83333   0.45127   0.00000  Uiso   1.00
O703   O     0.24172   0.83334   0.54873   0.00000  Uiso   1.00
O704   O     0.07671   0.77373   0.58675   0.00000  Uiso   1.00
C705   C     0.49988   0.75410   0.50015   0.00000  Uiso   1.00
C706   C     0.51579   0.68781   0.54158   0.00000  Uiso   1.00
C707   C     0.50021   0.95721   0.49978   0.00000  Uiso   1.00
C708   C     0.49979   0.70945   0.50022   0.00000  Uiso   1.00
C709   C     0.47530   0.80285   0.35642   0.00000  Uiso   1.00
C710   C     0.52470   0.86382   0.64358   0.00000  Uiso   1.00
C711   C     0.47481   0.80263   0.64045   0.00000  Uiso   1.00
C712   C     0.52519   0.86404   0.35955   0.00000  Uiso   1.00
C713   C     0.44664   0.76776   0.61615   0.00000  Uiso   1.00
C714   C     0.55336   0.89891   0.38385   0.00000  Uiso   1.00
C715   C     0.50012   0.91257   0.49985   0.00000  Uiso   1.00
C716   C     0.40157   0.83278   0.48841   0.00000  Uiso   1.00
C717   C     0.59843   0.83389   0.51159   0.00000  Uiso   1.00
C718   C     0.34708   0.82688   0.48319   0.00000  Uiso   1.00
C719   C     0.65292   0.83979   0.51681   0.00000  Uiso   1.00
C720   C     0.48411   0.68821   0.45860   0.00000  Uiso   1.00
C721   C     0.51589   0.97846   0.54140   0.00000  Uiso   1.00
C722   C     0.48421   0.97886   0.45842   0.00000  Uiso   1.00
Cl723  Cl    0.65482   0.79644   0.43455   0.00000  Uiso   1.00
Cl724  Cl    0.34518   0.87023   0.56545   0.00000  Uiso   1.00
Cu725  Cu    0.50000   0.83334   0.54689   0.00000  Uiso   1.00
Cu726  Cu    0.50000   0.83333   0.45311   0.00000  Uiso   1.00
H727   H     0.47130   0.70452   0.42635   0.00000  Uiso   1.00
H728   H     0.52870   0.96214   0.57365   0.00000  Uiso   1.00
H729   H     0.47113   0.96284   0.42622   0.00000  Uiso   1.00
H730   H     0.52887   0.70382   0.57378   0.00000  Uiso   1.00
H731   H     0.45519   0.77872   0.37373   0.00000  Uiso   1.00
H732   H     0.54481   0.88794   0.62627   0.00000  Uiso   1.00
H733   H     0.43671   0.70597   0.61202   0.00000  Uiso   1.00
H734   H     0.56333   0.96069   0.38797   0.00000  Uiso   1.00
N735   N     0.50001   0.83334   0.61736   0.00000  Uiso   1.00
N736   N     0.49999   0.83332   0.38264   0.00000  Uiso   1.00
O737   O     0.50000   0.77322   0.53958   0.00000  Uiso   1.00
O738   O     0.45944   0.72748   0.63008   0.00000  Uiso   1.00
O739   O     0.58996   0.89294   0.41325   0.00000  Uiso   1.00
O740   O     0.54056   0.93919   0.36993   0.00000  Uiso   1.00
O741   O     0.50000   0.89345   0.46042   0.00000  Uiso   1.00
O742   O     0.50000   0.77321   0.46039   0.00000  Uiso   1.00
O743   O     0.50000   0.89346   0.53961   0.00000  Uiso   1.00
O744   O     0.42495   0.83334   0.53046   0.00000  Uiso   1.00
O745   O     0.57505   0.83333   0.46954   0.00000  Uiso   1.00
O746   O     0.42494   0.83333   0.45127   0.00000  Uiso   1.00
O747   O     0.57506   0.83334   0.54873   0.00000  Uiso   1.00
O748   O     0.41004   0.77373   0.58675   0.00000  Uiso   1.00
C749   C     0.83322   0.75410   0.50015   0.00000  Uiso   1.00
C750   C     0.84912   0.68781   0.54158   0.00000  Uiso   1.00
C751   C     0.83354   0.95721   0.49978   0.00000  Uiso   1.00
C752   C     0.83312   0.70945   0.50022   0.00000  Uiso   1.00
C753   C     0.80863   0.80285   0.35642   0.00000  Uiso   1.00
C754   C     0.85803   0.86382   0.64358   0.00000  Uiso   1.00
C755   C     0.80814   0.80263   0.64045   0.00000  Uiso   1.00
C756   C     0.85853   0.86404   0.35955   0.00000  Uiso   1.00
C757   C     0.77997   0.76776   0.61615   0.00000  Uiso   1.00
C758   C     0.88669   0.89891   0.38385   0.00000  Uiso   1.00
C759   C     0.83345   0.91257   0.49985   0.00000  Uiso   1.00
C760   C     0.73490   0.83278   0.48841   0.00000  Uiso   1.00
C761   C     0.93177   0.83389   0.51159   0.00000  Uiso   1.00
C762   C     0.68041   0.82688   0.48319   0.00000  Uiso   1.00
C763   C     0.98625   0.83979   0.51681   0.00000  Uiso   1.00
C764   C     0.81745   0.68821   0.45860   0.00000  Uiso   1.00
C765   C     0.84922   0.97846   0.54140   0.00000  Uiso   1.00
C766   C     0.81754   0.97886   0.45842   0.00000  Uiso   1.00
Cl767  Cl    0.98815   0.79644   0.43455   0.00000  Uiso   1.00
Cl768  Cl    0.67852   0.87023   0.56545   0.00000  Uiso   1.00
Cu769  Cu    0.83333   0.83334   0.54689   0.00000  Uiso   1.00
Cu770  Cu    0.83333   0.83333   0.45311   0.00000  Uiso   1.00
H771   H     0.80463   0.70452   0.42635   0.00000  Uiso   1.00
H772   H     0.86203   0.96214   0.57365   0.00000  Uiso   1.00
H773   H     0.80446   0.96284   0.42622   0.00000  Uiso   1.00
H774   H     0.86220   0.70382   0.57378   0.00000  Uiso   1.00
H775   H     0.78852   0.77872   0.37373   0.00000  Uiso   1.00
H776   H     0.87814   0.88794   0.62627   0.00000  Uiso   1.00
H777   H     0.77004   0.70597   0.61202   0.00000  Uiso   1.00
H778   H     0.89666   0.96069   0.38797   0.00000  Uiso   1.00
N779   N     0.83335   0.83334   0.61736   0.00000  Uiso   1.00
N780   N     0.83332   0.83332   0.38264   0.00000  Uiso   1.00
O781   O     0.83333   0.77322   0.53958   0.00000  Uiso   1.00
O782   O     0.79277   0.72748   0.63008   0.00000  Uiso   1.00
O783   O     0.92329   0.89294   0.41325   0.00000  Uiso   1.00
O784   O     0.87389   0.93919   0.36993   0.00000  Uiso   1.00
O785   O     0.83334   0.89345   0.46042   0.00000  Uiso   1.00
O786   O     0.83333   0.77321   0.46039   0.00000  Uiso   1.00
O787   O     0.83334   0.89346   0.53961   0.00000  Uiso   1.00
O788   O     0.75828   0.83334   0.53046   0.00000  Uiso   1.00
O789   O     0.90839   0.83333   0.46954   0.00000  Uiso   1.00
O790   O     0.75828   0.83333   0.45127   0.00000  Uiso   1.00
O791   O     0.90839   0.83334   0.54873   0.00000  Uiso   1.00
O792   O     0.74337   0.77373   0.58675   0.00000  Uiso   1.00
C793   C     0.16655   0.08743   0.83349   0.00000  Uiso   1.00
C794   C     0.18246   0.02114   0.87491   0.00000  Uiso   1.00
C795   C     0.16688   0.29054   0.83311   0.00000  Uiso   1.00
C796   C     0.16645   0.04279   0.83356   0.00000  Uiso   1.00
C797   C     0.14196   0.13618   0.68976   0.00000  Uiso   1.00
C798   C     0.19137   0.19715   0.97691   0.00000  Uiso   1.00
C799   C     0.14147   0.13596   0.97378   0.00000  Uiso   1.00
C800   C     0.19186   0.19738   0.69288   0.00000  Uiso   1.00
C801   C     0.11331   0.10109   0.94949   0.00000  Uiso   1.00
C802   C     0.22003   0.23224   0.71718   0.00000  Uiso   1.00
C803   C     0.16678   0.24590   0.83318   0.00000  Uiso   1.00
C804   C     0.06823   0.16611   0.82174   0.00000  Uiso   1.00
C805   C     0.26510   0.16722   0.84492   0.00000  Uiso   1.00
C806   C     0.01375   0.16021   0.81652   0.00000  Uiso   1.00
C807   C     0.31959   0.17312   0.85014   0.00000  Uiso   1.00
C808   C     0.15078   0.02154   0.79193   0.00000  Uiso   1.00
C809   C     0.18255   0.31179   0.87474   0.00000  Uiso   1.00
C810   C     0.15087   0.31219   0.79175   0.00000  Uiso   1.00
Cl811  Cl    0.32148   0.12977   0.76788   0.00000  Uiso   1.00
Cl812  Cl    0.01185   0.20356   0.89879   0.00000  Uiso   1.00
Cu813  Cu    0.16667   0.16667   0.88022   0.00000  Uiso   1.00
Cu814  Cu    0.16667   0.16666   0.78645   0.00000  Uiso   1.00
H815   H     0.13797   0.03786   0.75968   0.00000  Uiso   1.00
H816   H     0.19537   0.29548   0.90698   0.00000  Uiso   1.00
H817   H     0.13780   0.29618   0.75955   0.00000  Uiso   1.00
H818   H     0.19553   0.03716   0.90711   0.00000  Uiso   1.00
H819   H     0.12185   0.11206   0.70707   0.00000  Uiso   1.00
H820   H     0.21148   0.22128   0.95960   0.00000  Uiso   1.00
H821   H     0.10337   0.03930   0.94535   0.00000  Uiso   1.00
H822   H     0.22999   0.29403   0.72130   0.00000  Uiso   1.00
N823   N     0.16668   0.16668   0.95069   0.00000  Uiso   1.00
N824   N     0.16665   0.16666   0.71597   0.00000  Uiso   1.00
O825   O     0.16666   0.10655   0.87291   0.00000  Uiso   1.00
O826   O     0.12611   0.06081   0.96341   0.00000  Uiso   1.00
O827   O     0.25663   0.22627   0.74658   0.00000  Uiso   1.00
O828   O     0.20723   0.27252   0.70326   0.00000  Uiso   1.00
O829   O     0.16667   0.22678   0.79375   0.00000  Uiso   1.00
O830   O     0.16666   0.10654   0.79372   0.00000  Uiso   1.00
O831   O     0.16667   0.22679   0.87294   0.00000  Uiso   1.00
O832   O     0.09161   0.16667   0.86379   0.00000  Uiso   1.00
O833   O     0.24172   0.16666   0.80288   0.00000  Uiso   1.00
O834   O     0.09161   0.16666   0.78460   0.00000  Uiso   1.00
O835   O     0.24172   0.16667   0.88207   0.00000  Uiso   1.00
O836   O     0.07671   0.10706   0.92008   0.00000  Uiso   1.00
C837   C     0.49988   0.08743   0.83349   0.00000  Uiso   1.00
C838   C     0.51579   0.02114   0.87491   0.00000  Uiso   1.00
C839   C     0.50021   0.29054   0.83311   0.00000  Uiso   1.00
C840   C     0.49979   0.04279   0.83356   0.00000  Uiso   1.00
C841   C     0.47530   0.13618   0.68976   0.00000  Uiso   1.00
C842   C     0.52470   0.19715   0.97691   0.00000  Uiso   1.00
C843   C     0.47481   0.13596   0.97378   0.00000  Uiso   1.00
C844   C     0.52519   0.19738   0.69288   0.00000  Uiso   1.00
C845   C     0.44664   0.10109   0.94949   0.00000  Uiso   1.00
C846   C     0.55336   0.23224   0.71718   0.00000  Uiso   1.00
C847   C     0.50012   0.24590   0.83318   0.00000  Uiso   1.00
C848   C     0.40157   0.16611   0.82174   0.00000  Uiso   1.00
C849   C     0.59843   0.16722   0.84492   0.00000  Uiso   1.00
C850   C     0.34708   0.16021   0.81652   0.00000  Uiso   1.00
C851   C     0.65292   0.17312   0.85014   0.00000  Uiso   1.00
C852   C     0.48411   0.02154   0.79193   0.00000  Uiso   1.00
C853   C     0.51589   0.31179   0.87474   0.00000  Uiso   1.00
C854   C     0.48421   0.31219   0.79175   0.00000  Uiso   1.00
Cl855  Cl    0.65482   0.12977   0.76788   0.00000  Uiso   1.00
Cl856  Cl    0.34518   0.20356   0.89879   0.00000  Uiso   1.00
Cu857  Cu    0.50000   0.16667   0.88022   0.00000  Uiso   1.00
Cu858  Cu    0.50000   0.16666   0.78645   0.00000  Uiso   1.00
H859   H     0.47130   0.03786   0.75968   0.00000  Uiso   1.00
H860   H     0.52870   0.29548   0.90698   0.00000  Uiso   1.00
H861   H     0.47113   0.29618   0.75955   0.00000  Uiso   1.00
H862   H     0.52887   0.03716   0.90711   0.00000  Uiso   1.00
H863   H     0.45519   0.11206   0.70707   0.00000  Uiso   1.00
H864   H     0.54481   0.22128   0.95960   0.00000  Uiso   1.00
H865   H     0.43671   0.03930   0.94535   0.00000  Uiso   1.00
H866   H     0.56333   0.29403   0.72130   0.00000  Uiso   1.00
N867   N     0.50001   0.16668   0.95069   0.00000  Uiso   1.00
N868   N     0.49999   0.16666   0.71597   0.00000  Uiso   1.00
O869   O     0.50000   0.10655   0.87291   0.00000  Uiso   1.00
O870   O     0.45944   0.06081   0.96341   0.00000  Uiso   1.00
O871   O     0.58996   0.22627   0.74658   0.00000  Uiso   1.00
O872   O     0.54056   0.27252   0.70326   0.00000  Uiso   1.00
O873   O     0.50000   0.22678   0.79375   0.00000  Uiso   1.00
O874   O     0.50000   0.10654   0.79372   0.00000  Uiso   1.00
O875   O     0.50000   0.22679   0.87294   0.00000  Uiso   1.00
O876   O     0.42495   0.16667   0.86379   0.00000  Uiso   1.00
O877   O     0.57505   0.16666   0.80288   0.00000  Uiso   1.00
O878   O     0.42494   0.16666   0.78460   0.00000  Uiso   1.00
O879   O     0.57506   0.16667   0.88207   0.00000  Uiso   1.00
O880   O     0.41004   0.10706   0.92008   0.00000  Uiso   1.00
C881   C     0.83322   0.08743   0.83349   0.00000  Uiso   1.00
C882   C     0.84912   0.02114   0.87491   0.00000  Uiso   1.00
C883   C     0.83354   0.29054   0.83311   0.00000  Uiso   1.00
C884   C     0.83312   0.04279   0.83356   0.00000  Uiso   1.00
C885   C     0.80863   0.13618   0.68976   0.00000  Uiso   1.00
C886   C     0.85803   0.19715   0.97691   0.00000  Uiso   1.00
C887   C     0.80814   0.13596   0.97378   0.00000  Uiso   1.00
C888   C     0.85853   0.19738   0.69288   0.00000  Uiso   1.00
C889   C     0.77997   0.10109   0.94949   0.00000  Uiso   1.00
C890   C     0.88669   0.23224   0.71718   0.00000  Uiso   1.00
C891   C     0.83345   0.24590   0.83318   0.00000  Uiso   1.00
C892   C     0.73490   0.16611   0.82174   0.00000  Uiso   1.00
C893   C     0.93177   0.16722   0.84492   0.00000  Uiso   1.00
C894   C     0.68041   0.16021   0.81652   0.00000  Uiso   1.00
C895   C     0.98625   0.17312   0.85014   0.00000  Uiso   1.00
C896   C     0.81745   0.02154   0.79193   0.00000  Uiso   1.00
C897   C     0.84922   0.31179   0.87474   0.00000  Uiso   1.00
C898   C     0.81754   0.31219   0.79175   0.00000  Uiso   1.00
Cl899  Cl    0.98815   0.12977   0.76788   0.00000  Uiso   1.00
Cl900  Cl    0.67852   0.20356   0.89879   0.00000  Uiso   1.00
Cu901  Cu    0.83333   0.16667   0.88022   0.00000  Uiso   1.00
Cu902  Cu    0.83333   0.16666   0.78645   0.00000  Uiso   1.00
H903   H     0.80463   0.03786   0.75968   0.00000  Uiso   1.00
H904   H     0.86203   0.29548   0.90698   0.00000  Uiso   1.00
H905   H     0.80446   0.29618   0.75955   0.00000  Uiso   1.00
H906   H     0.86220   0.03716   0.90711   0.00000  Uiso   1.00
H907   H     0.78852   0.11206   0.70707   0.00000  Uiso   1.00
H908   H     0.87814   0.22128   0.95960   0.00000  Uiso   1.00
H909   H     0.77004   0.03930   0.94535   0.00000  Uiso   1.00
H910   H     0.89666   0.29403   0.72130   0.00000  Uiso   1.00
N911   N     0.83335   0.16668   0.95069   0.00000  Uiso   1.00
N912   N     0.83332   0.16666   0.71597   0.00000  Uiso   1.00
O913   O     0.83333   0.10655   0.87291   0.00000  Uiso   1.00
O914   O     0.79277   0.06081   0.96341   0.00000  Uiso   1.00
O915   O     0.92329   0.22627   0.74658   0.00000  Uiso   1.00
O916   O     0.87389   0.27252   0.70326   0.00000  Uiso   1.00
O917   O     0.83334   0.22678   0.79375   0.00000  Uiso   1.00
O918   O     0.83333   0.10654   0.79372   0.00000  Uiso   1.00
O919   O     0.83334   0.22679   0.87294   0.00000  Uiso   1.00
O920   O     0.75828   0.16667   0.86379   0.00000  Uiso   1.00
O921   O     0.90839   0.16666   0.80288   0.00000  Uiso   1.00
O922   O     0.75828   0.16666   0.78460   0.00000  Uiso   1.00
O923   O     0.90839   0.16667   0.88207   0.00000  Uiso   1.00
O924   O     0.74337   0.10706   0.92008   0.00000  Uiso   1.00
C925   C     0.16655   0.42077   0.83349   0.00000  Uiso   1.00
C926   C     0.18246   0.35447   0.87491   0.00000  Uiso   1.00
C927   C     0.16688   0.62388   0.83311   0.00000  Uiso   1.00
C928   C     0.16645   0.37612   0.83356   0.00000  Uiso   1.00
C929   C     0.14196   0.46951   0.68976   0.00000  Uiso   1.00
C930   C     0.19137   0.53049   0.97691   0.00000  Uiso   1.00
C931   C     0.14147   0.46929   0.97378   0.00000  Uiso   1.00
C932   C     0.19186   0.53071   0.69288   0.00000  Uiso   1.00
C933   C     0.11331   0.43442   0.94949   0.00000  Uiso   1.00
C934   C     0.22003   0.56558   0.71718   0.00000  Uiso   1.00
C935   C     0.16678   0.57923   0.83318   0.00000  Uiso   1.00
C936   C     0.06823   0.49944   0.82174   0.00000  Uiso   1.00
C937   C     0.26510   0.50055   0.84492   0.00000  Uiso   1.00
C938   C     0.01375   0.49355   0.81652   0.00000  Uiso   1.00
C939   C     0.31959   0.50645   0.85014   0.00000  Uiso   1.00
C940   C     0.15078   0.35488   0.79193   0.00000  Uiso   1.00
C941   C     0.18255   0.64512   0.87474   0.00000  Uiso   1.00
C942   C     0.15087   0.64553   0.79175   0.00000  Uiso   1.00
Cl943  Cl    0.32148   0.46311   0.76788   0.00000  Uiso   1.00
Cl944  Cl    0.01185   0.53689   0.89879   0.00000  Uiso   1.00
Cu945  Cu    0.16667   0.50001   0.88022   0.00000  Uiso   1.00
Cu946  Cu    0.16667   0.49999   0.78645   0.00000  Uiso   1.00
H947   H     0.13797   0.37119   0.75968   0.00000  Uiso   1.00
H948   H     0.19537   0.62881   0.90698   0.00000  Uiso   1.00
H949   H     0.13780   0.62951   0.75955   0.00000  Uiso   1.00
H950   H     0.19553   0.37049   0.90711   0.00000  Uiso   1.00
H951   H     0.12185   0.44539   0.70707   0.00000  Uiso   1.00
H952   H     0.21148   0.55461   0.95960   0.00000  Uiso   1.00
H953   H     0.10337   0.37263   0.94535   0.00000  Uiso   1.00
H954   H     0.22999   0.62736   0.72130   0.00000  Uiso   1.00
N955   N     0.16668   0.50001   0.95069   0.00000  Uiso   1.00
N956   N     0.16665   0.49999   0.71597   0.00000  Uiso   1.00
O957   O     0.16666   0.43989   0.87291   0.00000  Uiso   1.00
O958   O     0.12611   0.39415   0.96341   0.00000  Uiso   1.00
O959   O     0.25663   0.55960   0.74658   0.00000  Uiso   1.00
O960   O     0.20723   0.60585   0.70326   0.00000  Uiso   1.00
O961   O     0.16667   0.56011   0.79375   0.00000  Uiso   1.00
O962   O     0.16666   0.43988   0.79372   0.00000  Uiso   1.00
O963   O     0.16667   0.56012   0.87294   0.00000  Uiso   1.00
O964   O     0.09161   0.50000   0.86379   0.00000  Uiso   1.00
O965   O     0.24172   0.50000   0.80288   0.00000  Uiso   1.00
O966   O     0.09161   0.49999   0.78460   0.00000  Uiso   1.00
O967   O     0.24172   0.50001   0.88207   0.00000  Uiso   1.00
O968   O     0.07671   0.44040   0.92008   0.00000  Uiso   1.00
C969   C     0.49988   0.42077   0.83349   0.00000  Uiso   1.00
C970   C     0.51579   0.35447   0.87491   0.00000  Uiso   1.00
C971   C     0.50021   0.62388   0.83311   0.00000  Uiso   1.00
C972   C     0.49979   0.37612   0.83356   0.00000  Uiso   1.00
C973   C     0.47530   0.46951   0.68976   0.00000  Uiso   1.00
C974   C     0.52470   0.53049   0.97691   0.00000  Uiso   1.00
C975   C     0.47481   0.46929   0.97378   0.00000  Uiso   1.00
C976   C     0.52519   0.53071   0.69288   0.00000  Uiso   1.00
C977   C     0.44664   0.43442   0.94949   0.00000  Uiso   1.00
C978   C     0.55336   0.56558   0.71718   0.00000  Uiso   1.00
C979   C     0.50012   0.57923   0.83318   0.00000  Uiso   1.00
C980   C     0.40157   0.49944   0.82174   0.00000  Uiso   1.00
C981   C     0.59843   0.50055   0.84492   0.00000  Uiso   1.00
C982   C     0.34708   0.49355   0.81652   0.00000  Uiso   1.00
C983   C     0.65292   0.50645   0.85014   0.00000  Uiso   1.00
C984   C     0.48411   0.35488   0.79193   0.00000  Uiso   1.00
C985   C     0.51589   0.64512   0.87474   0.00000  Uiso   1.00
C986   C     0.48421   0.64553   0.79175   0.00000  Uiso   1.00
Cl987  Cl    0.65482   0.46311   0.76788   0.00000  Uiso   1.00
Cl988  Cl    0.34518   0.53689   0.89879   0.00000  Uiso   1.00
Cu989  Cu    0.50000   0.50001   0.88022   0.00000  Uiso   1.00
Cu990  Cu    0.50000   0.49999   0.78645   0.00000  Uiso   1.00
H991   H     0.47130   0.37119   0.75968   0.00000  Uiso   1.00
H992   H     0.52870   0.62881   0.90698   0.00000  Uiso   1.00
H993   H     0.47113   0.62951   0.75955   0.00000  Uiso   1.00
H994   H     0.52887   0.37049   0.90711   0.00000  Uiso   1.00
H995   H     0.45519   0.44539   0.70707   0.00000  Uiso   1.00
H996   H     0.54481   0.55461   0.95960   0.00000  Uiso   1.00
H997   H     0.43671   0.37263   0.94535   0.00000  Uiso   1.00
H998   H     0.56333   0.62736   0.72130   0.00000  Uiso   1.00
N999   N     0.50001   0.50001   0.95069   0.00000  Uiso   1.00
N1000  N     0.49999   0.49999   0.71597   0.00000  Uiso   1.00
O1001  O     0.50000   0.43989   0.87291   0.00000  Uiso   1.00
O1002  O     0.45944   0.39415   0.96341   0.00000  Uiso   1.00
O1003  O     0.58996   0.55960   0.74658   0.00000  Uiso   1.00
O1004  O     0.54056   0.60585   0.70326   0.00000  Uiso   1.00
O1005  O     0.50000   0.56011   0.79375   0.00000  Uiso   1.00
O1006  O     0.50000   0.43988   0.79372   0.00000  Uiso   1.00
O1007  O     0.50000   0.56012   0.87294   0.00000  Uiso   1.00
O1008  O     0.42495   0.50000   0.86379   0.00000  Uiso   1.00
O1009  O     0.57505   0.50000   0.80288   0.00000  Uiso   1.00
O1010  O     0.42494   0.49999   0.78460   0.00000  Uiso   1.00
O1011  O     0.57506   0.50001   0.88207   0.00000  Uiso   1.00
O1012  O     0.41004   0.44040   0.92008   0.00000  Uiso   1.00
C1013  C     0.83322   0.42077   0.83349   0.00000  Uiso   1.00
C1014  C     0.84912   0.35447   0.87491   0.00000  Uiso   1.00
C1015  C     0.83354   0.62388   0.83311   0.00000  Uiso   1.00
C1016  C     0.83312   0.37612   0.83356   0.00000  Uiso   1.00
C1017  C     0.80863   0.46951   0.68976   0.00000  Uiso   1.00
C1018  C     0.85803   0.53049   0.97691   0.00000  Uiso   1.00
C1019  C     0.80814   0.46929   0.97378   0.00000  Uiso   1.00
C1020  C     0.85853   0.53071   0.69288   0.00000  Uiso   1.00
C1021  C     0.77997   0.43442   0.94949   0.00000  Uiso   1.00
C1022  C     0.88669   0.56558   0.71718   0.00000  Uiso   1.00
C1023  C     0.83345   0.57923   0.83318   0.00000  Uiso   1.00
C1024  C     0.73490   0.49944   0.82174   0.00000  Uiso   1.00
C1025  C     0.93177   0.50055   0.84492   0.00000  Uiso   1.00
C1026  C     0.68041   0.49355   0.81652   0.00000  Uiso   1.00
C1027  C     0.98625   0.50645   0.85014   0.00000  Uiso   1.00
C1028  C     0.81745   0.35488   0.79193   0.00000  Uiso   1.00
C1029  C     0.84922   0.64512   0.87474   0.00000  Uiso   1.00
C1030  C     0.81754   0.64553   0.79175   0.00000  Uiso   1.00
Cl1031 Cl    0.98815   0.46311   0.76788   0.00000  Uiso   1.00
Cl1032 Cl    0.67852   0.53689   0.89879   0.00000  Uiso   1.00
Cu1033 Cu    0.83333   0.50001   0.88022   0.00000  Uiso   1.00
Cu1034 Cu    0.83333   0.49999   0.78645   0.00000  Uiso   1.00
H1035  H     0.80463   0.37119   0.75968   0.00000  Uiso   1.00
H1036  H     0.86203   0.62881   0.90698   0.00000  Uiso   1.00
H1037  H     0.80446   0.62951   0.75955   0.00000  Uiso   1.00
H1038  H     0.86220   0.37049   0.90711   0.00000  Uiso   1.00
H1039  H     0.78852   0.44539   0.70707   0.00000  Uiso   1.00
H1040  H     0.87814   0.55461   0.95960   0.00000  Uiso   1.00
H1041  H     0.77004   0.37263   0.94535   0.00000  Uiso   1.00
H1042  H     0.89666   0.62736   0.72130   0.00000  Uiso   1.00
N1043  N     0.83335   0.50001   0.95069   0.00000  Uiso   1.00
N1044  N     0.83332   0.49999   0.71597   0.00000  Uiso   1.00
O1045  O     0.83333   0.43989   0.87291   0.00000  Uiso   1.00
O1046  O     0.79277   0.39415   0.96341   0.00000  Uiso   1.00
O1047  O     0.92329   0.55960   0.74658   0.00000  Uiso   1.00
O1048  O     0.87389   0.60585   0.70326   0.00000  Uiso   1.00
O1049  O     0.83334   0.56011   0.79375   0.00000  Uiso   1.00
O1050  O     0.83333   0.43988   0.79372   0.00000  Uiso   1.00
O1051  O     0.83334   0.56012   0.87294   0.00000  Uiso   1.00
O1052  O     0.75828   0.50000   0.86379   0.00000  Uiso   1.00
O1053  O     0.90839   0.50000   0.80288   0.00000  Uiso   1.00
O1054  O     0.75828   0.49999   0.78460   0.00000  Uiso   1.00
O1055  O     0.90839   0.50001   0.88207   0.00000  Uiso   1.00
O1056  O     0.74337   0.44040   0.92008   0.00000  Uiso   1.00
C1057  C     0.16655   0.75410   0.83349   0.00000  Uiso   1.00
C1058  C     0.18246   0.68781   0.87491   0.00000  Uiso   1.00
C1059  C     0.16688   0.95721   0.83311   0.00000  Uiso   1.00
C1060  C     0.16645   0.70945   0.83356   0.00000  Uiso   1.00
C1061  C     0.14196   0.80285   0.68976   0.00000  Uiso   1.00
C1062  C     0.19137   0.86382   0.97691   0.00000  Uiso   1.00
C1063  C     0.14147   0.80263   0.97378   0.00000  Uiso   1.00
C1064  C     0.19186   0.86404   0.69288   0.00000  Uiso   1.00
C1065  C     0.11331   0.76776   0.94949   0.00000  Uiso   1.00
C1066  C     0.22003   0.89891   0.71718   0.00000  Uiso   1.00
C1067  C     0.16678   0.91257   0.83318   0.00000  Uiso   1.00
C1068  C     0.06823   0.83278   0.82174   0.00000  Uiso   1.00
C1069  C     0.26510   0.83389   0.84492   0.00000  Uiso   1.00
C1070  C     0.01375   0.82688   0.81652   0.00000  Uiso   1.00
C1071  C     0.31959   0.83979   0.85014   0.00000  Uiso   1.00
C1072  C     0.15078   0.68821   0.79193   0.00000  Uiso   1.00
C1073  C     0.18255   0.97846   0.87474   0.00000  Uiso   1.00
C1074  C     0.15087   0.97886   0.79175   0.00000  Uiso   1.00
Cl1075 Cl    0.32148   0.79644   0.76788   0.00000  Uiso   1.00
Cl1076 Cl    0.01185   0.87023   0.89879   0.00000  Uiso   1.00
Cu1077 Cu    0.16667   0.83334   0.88022   0.00000  Uiso   1.00
Cu1078 Cu    0.16667   0.83333   0.78645   0.00000  Uiso   1.00
H1079  H     0.13797   0.70452   0.75968   0.00000  Uiso   1.00
H1080  H     0.19537   0.96214   0.90698   0.00000  Uiso   1.00
H1081  H     0.13780   0.96284   0.75955   0.00000  Uiso   1.00
H1082  H     0.19553   0.70382   0.90711   0.00000  Uiso   1.00
H1083  H     0.12185   0.77872   0.70707   0.00000  Uiso   1.00
H1084  H     0.21148   0.88794   0.95960   0.00000  Uiso   1.00
H1085  H     0.10337   0.70597   0.94535   0.00000  Uiso   1.00
H1086  H     0.22999   0.96069   0.72130   0.00000  Uiso   1.00
N1087  N     0.16668   0.83334   0.95069   0.00000  Uiso   1.00
N1088  N     0.16665   0.83332   0.71597   0.00000  Uiso   1.00
O1089  O     0.16666   0.77322   0.87291   0.00000  Uiso   1.00
O1090  O     0.12611   0.72748   0.96341   0.00000  Uiso   1.00
O1091  O     0.25663   0.89294   0.74658   0.00000  Uiso   1.00
O1092  O     0.20723   0.93919   0.70326   0.00000  Uiso   1.00
O1093  O     0.16667   0.89345   0.79375   0.00000  Uiso   1.00
O1094  O     0.16666   0.77321   0.79372   0.00000  Uiso   1.00
O1095  O     0.16667   0.89346   0.87294   0.00000  Uiso   1.00
O1096  O     0.09161   0.83334   0.86379   0.00000  Uiso   1.00
O1097  O     0.24172   0.83333   0.80288   0.00000  Uiso   1.00
O1098  O     0.09161   0.83333   0.78460   0.00000  Uiso   1.00
O1099  O     0.24172   0.83334   0.88207   0.00000  Uiso   1.00
O1100  O     0.07671   0.77373   0.92008   0.00000  Uiso   1.00
C1101  C     0.49988   0.75410   0.83349   0.00000  Uiso   1.00
C1102  C     0.51579   0.68781   0.87491   0.00000  Uiso   1.00
C1103  C     0.50021   0.95721   0.83311   0.00000  Uiso   1.00
C1104  C     0.49979   0.70945   0.83356   0.00000  Uiso   1.00
C1105  C     0.47530   0.80285   0.68976   0.00000  Uiso   1.00
C1106  C     0.52470   0.86382   0.97691   0.00000  Uiso   1.00
C1107  C     0.47481   0.80263   0.97378   0.00000  Uiso   1.00
C1108  C     0.52519   0.86404   0.69288   0.00000  Uiso   1.00
C1109  C     0.44664   0.76776   0.94949   0.00000  Uiso   1.00
C1110  C     0.55336   0.89891   0.71718   0.00000  Uiso   1.00
C1111  C     0.50012   0.91257   0.83318   0.00000  Uiso   1.00
C1112  C     0.40157   0.83278   0.82174   0.00000  Uiso   1.00
C1113  C     0.59843   0.83389   0.84492   0.00000  Uiso   1.00
C1114  C     0.34708   0.82688   0.81652   0.00000  Uiso   1.00
C1115  C     0.65292   0.83979   0.85014   0.00000  Uiso   1.00
C1116  C     0.48411   0.68821   0.79193   0.00000  Uiso   1.00
C1117  C     0.51589   0.97846   0.87474   0.00000  Uiso   1.00
C1118  C     0.48421   0.97886   0.79175   0.00000  Uiso   1.00
Cl1119 Cl    0.65482   0.79644   0.76788   0.00000  Uiso   1.00
Cl1120 Cl    0.34518   0.87023   0.89879   0.00000  Uiso   1.00
Cu1121 Cu    0.50000   0.83334   0.88022   0.00000  Uiso   1.00
Cu1122 Cu    0.50000   0.83333   0.78645   0.00000  Uiso   1.00
H1123  H     0.47130   0.70452   0.75968   0.00000  Uiso   1.00
H1124  H     0.52870   0.96214   0.90698   0.00000  Uiso   1.00
H1125  H     0.47113   0.96284   0.75955   0.00000  Uiso   1.00
H1126  H     0.52887   0.70382   0.90711   0.00000  Uiso   1.00
H1127  H     0.45519   0.77872   0.70707   0.00000  Uiso   1.00
H1128  H     0.54481   0.88794   0.95960   0.00000  Uiso   1.00
H1129  H     0.43671   0.70597   0.94535   0.00000  Uiso   1.00
H1130  H     0.56333   0.96069   0.72130   0.00000  Uiso   1.00
N1131  N     0.50001   0.83334   0.95069   0.00000  Uiso   1.00
N1132  N     0.49999   0.83332   0.71597   0.00000  Uiso   1.00
O1133  O     0.50000   0.77322   0.87291   0.00000  Uiso   1.00
O1134  O     0.45944   0.72748   0.96341   0.00000  Uiso   1.00
O1135  O     0.58996   0.89294   0.74658   0.00000  Uiso   1.00
O1136  O     0.54056   0.93919   0.70326   0.00000  Uiso   1.00
O1137  O     0.50000   0.89345   0.79375   0.00000  Uiso   1.00
O1138  O     0.50000   0.77321   0.79372   0.00000  Uiso   1.00
O1139  O     0.50000   0.89346   0.87294   0.00000  Uiso   1.00
O1140  O     0.42495   0.83334   0.86379   0.00000  Uiso   1.00
O1141  O     0.57505   0.83333   0.80288   0.00000  Uiso   1.00
O1142  O     0.42494   0.83333   0.78460   0.00000  Uiso   1.00
O1143  O     0.57506   0.83334   0.88207   0.00000  Uiso   1.00
O1144  O     0.41004   0.77373   0.92008   0.00000  Uiso   1.00
C1145  C     0.83322   0.75410   0.83349   0.00000  Uiso   1.00
C1146  C     0.84912   0.68781   0.87491   0.00000  Uiso   1.00
C1147  C     0.83354   0.95721   0.83311   0.00000  Uiso   1.00
C1148  C     0.83312   0.70945   0.83356   0.00000  Uiso   1.00
C1149  C     0.80863   0.80285   0.68976   0.00000  Uiso   1.00
C1150  C     0.85803   0.86382   0.97691   0.00000  Uiso   1.00
C1151  C     0.80814   0.80263   0.97378   0.00000  Uiso   1.00
C1152  C     0.85853   0.86404   0.69288   0.00000  Uiso   1.00
C1153  C     0.77997   0.76776   0.94949   0.00000  Uiso   1.00
C1154  C     0.88669   0.89891   0.71718   0.00000  Uiso   1.00
C1155  C     0.83345   0.91257   0.83318   0.00000  Uiso   1.00
C1156  C     0.73490   0.83278   0.82174   0.00000  Uiso   1.00
C1157  C     0.93177   0.83389   0.84492   0.00000  Uiso   1.00
C1158  C     0.68041   0.82688   0.81652   0.00000  Uiso   1.00
C1159  C     0.98625   0.83979   0.85014   0.00000  Uiso   1.00
C1160  C     0.81745   0.68821   0.79193   0.00000  Uiso   1.00
C1161  C     0.84922   0.97846   0.87474   0.00000  Uiso   1.00
C1162  C     0.81754   0.97886   0.79175   0.00000  Uiso   1.00
Cl1163 Cl    0.98815   0.79644   0.76788   0.00000  Uiso   1.00
Cl1164 Cl    0.67852   0.87023   0.89879   0.00000  Uiso   1.00
Cu1165 Cu    0.83333   0.83334   0.88022   0.00000  Uiso   1.00
Cu1166 Cu    0.83333   0.83333   0.78645   0.00000  Uiso   1.00
H1167  H     0.80463   0.70452   0.75968   0.00000  Uiso   1.00
H1168  H     0.86203   0.96214   0.90698   0.00000  Uiso   1.00
H1169  H     0.80446   0.96284   0.75955   0.00000  Uiso   1.00
H1170  H     0.86220   0.70382   0.90711   0.00000  Uiso   1.00
H1171  H     0.78852   0.77872   0.70707   0.00000  Uiso   1.00
H1172  H     0.87814   0.88794   0.95960   0.00000  Uiso   1.00
H1173  H     0.77004   0.70597   0.94535   0.00000  Uiso   1.00
H1174  H     0.89666   0.96069   0.72130   0.00000  Uiso   1.00
N1175  N     0.83335   0.83334   0.95069   0.00000  Uiso   1.00
N1176  N     0.83332   0.83332   0.71597   0.00000  Uiso   1.00
O1177  O     0.83333   0.77322   0.87291   0.00000  Uiso   1.00
O1178  O     0.79277   0.72748   0.96341   0.00000  Uiso   1.00
O1179  O     0.92329   0.89294   0.74658   0.00000  Uiso   1.00
O1180  O     0.87389   0.93919   0.70326   0.00000  Uiso   1.00
O1181  O     0.83334   0.89345   0.79375   0.00000  Uiso   1.00
O1182  O     0.83333   0.77321   0.79372   0.00000  Uiso   1.00
O1183  O     0.83334   0.89346   0.87294   0.00000  Uiso   1.00
O1184  O     0.75828   0.83334   0.86379   0.00000  Uiso   1.00
O1185  O     0.90839   0.83333   0.80288   0.00000  Uiso   1.00
O1186  O     0.75828   0.83333   0.78460   0.00000  Uiso   1.00
O1187  O     0.90839   0.83334   0.88207   0.00000  Uiso   1.00
O1188  O     0.74337   0.77373   0.92008   0.00000  Uiso   1.00
loop_
_geom_bond_atom_site_label_1
_geom_bond_atom_site_label_2
_geom_bond_distance
_geom_bond_site_symmetry_2
_ccdc_geom_bond_type
C1     C4      1.448   .     S
C1     O33     1.299   .     A
C1     O38     1.294   .     A
C2     C4      1.399   .     A
C2     H26     1.083   .     S
C2     C281    1.384   1_545 S
C3     C17     1.402   .     A
C3     C11     1.448   .     S
C3     C18     1.399   .     A
C4     C16     1.402   .     A
C5     N32     1.355   .     A
C5     H27     1.083   .     S
C5     C799    1.416   1_554 S
C6     N31     1.355   .     A
C6     H28     1.083   .     S
C6     C404    1.416   .     S
C7     C9      1.473   .     S
C7     N31     1.389   .     A
C7     C401    1.416   .     S
C8     C10     1.473   .     S
C8     N32     1.389   .     A
C8     C798    1.416   1_554 S
C9     O34     1.398   .     S
C9     O44     1.220   .     D
C10    O35     1.220   .     D
C10    O36     1.398   .     S
C11    O39     1.294   .     A
C11    O37     1.299   .     A
C12    O40     1.289   .     A
C12    C14     1.431   .     S
C12    O42     1.295   .     A
C13    O41     1.289   .     A
C13    C15     1.431   .     S
C13    O43     1.295   .     A
C14    C103    1.351   1_455 S
C14    Cl107   1.778   1_455 S
C15    C58     1.351   .     S
C15    Cl64    1.778   .     S
C16    H23     1.083   .     S
C16    C282    1.384   1_545 S
C17    H24     1.083   .     S
C17    C134    1.384   .     S
C18    H25     1.083   .     S
C18    C148    1.384   .     S
Cl19   C58     1.778   .     S
Cl20   C103    1.778   1_455 S
Cu21   O33     1.963   .     S
Cu21   O39     1.958   .     S
Cu21   Cu22    2.696   .     S
Cu21   N31     2.026   .     S
Cu21   O43     1.969   .     S
Cu21   O40     1.974   .     S
Cu22   O42     1.969   .     S
Cu22   N32     2.026   .     S
Cu22   O41     1.974   .     S
Cu22   O37     1.963   .     S
Cu22   O38     1.958   .     S
H29    O34     1.014   .     S
H30    O36     1.014   .     S
C45    C48     1.448   .     S
C45    O77     1.299   .     A
C45    O82     1.294   .     A
C46    C48     1.399   .     A
C46    H70     1.083   .     S
C46    C325    1.384   1_545 S
C47    C61     1.402   .     A
C47    C55     1.448   .     S
C47    C62     1.399   .     A
C48    C60     1.402   .     A
C49    N76     1.355   .     A
C49    H71     1.083   .     S
C49    C843    1.416   1_554 S
C50    N75     1.355   .     A
C50    H72     1.083   .     S
C50    C448    1.416   .     S
C51    C53     1.473   .     S
C51    N75     1.389   .     A
C51    C445    1.416   .     S
C52    C54     1.473   .     S
C52    N76     1.389   .     A
C52    C842    1.416   1_554 S
C53    O78     1.398   .     S
C53    O88     1.220   .     D
C54    O79     1.220   .     D
C54    O80     1.398   .     S
C55    O83     1.294   .     A
C55    O81     1.299   .     A
C56    O84     1.289   .     A
C56    C58     1.431   .     S
C56    O86     1.295   .     A
C57    O85     1.289   .     A
C57    C59     1.431   .     S
C57    O87     1.295   .     A
C59    C102    1.351   .     S
C59    Cl108   1.778   .     S
C60    H67     1.083   .     S
C60    C326    1.384   1_545 S
C61    H68     1.083   .     S
C61    C178    1.384   .     S
C62    H69     1.083   .     S
C62    C192    1.384   .     S
Cl63   C102    1.778   .     S
Cu65   O77     1.963   .     S
Cu65   O83     1.958   .     S
Cu65   Cu66    2.696   .     S
Cu65   N75     2.026   .     S
Cu65   O87     1.969   .     S
Cu65   O84     1.974   .     S
Cu66   O86     1.969   .     S
Cu66   N76     2.026   .     S
Cu66   O85     1.974   .     S
Cu66   O81     1.963   .     S
Cu66   O82     1.958   .     S
H73    O78     1.014   .     S
H74    O80     1.014   .     S
C89    C92     1.448   .     S
C89    O121    1.299   .     A
C89    O126    1.294   .     A
C90    C92     1.399   .     A
C90    H114    1.083   .     S
C90    C369    1.384   1_545 S
C91    C105    1.402   .     A
C91    C99     1.448   .     S
C91    C106    1.399   .     A
C92    C104    1.402   .     A
C93    N120    1.355   .     A
C93    H115    1.083   .     S
C93    C887    1.416   1_554 S
C94    N119    1.355   .     A
C94    H116    1.083   .     S
C94    C492    1.416   .     S
C95    C97     1.473   .     S
C95    N119    1.389   .     A
C95    C489    1.416   .     S
C96    C98     1.473   .     S
C96    N120    1.389   .     A
C96    C886    1.416   1_554 S
C97    O122    1.398   .     S
C97    O132    1.220   .     D
C98    O123    1.220   .     D
C98    O124    1.398   .     S
C99    O127    1.294   .     A
C99    O125    1.299   .     A
C100   O128    1.289   .     A
C100   C102    1.431   .     S
C100   O130    1.295   .     A
C101   O129    1.289   .     A
C101   C103    1.431   .     S
C101   O131    1.295   .     A
C103   C14     1.351   1_655 S
C103   Cl20    1.778   1_655 S
C104   H111    1.083   .     S
C104   C370    1.384   1_545 S
C105   H112    1.083   .     S
C105   C222    1.384   .     S
C106   H113    1.083   .     S
C106   C236    1.384   .     S
Cl107  C14     1.778   1_655 S
Cu109  O121    1.963   .     S
Cu109  O127    1.958   .     S
Cu109  Cu110   2.696   .     S
Cu109  N119    2.026   .     S
Cu109  O131    1.969   .     S
Cu109  O128    1.974   .     S
Cu110  O130    1.969   .     S
Cu110  N120    2.026   .     S
Cu110  O129    1.974   .     S
Cu110  O125    1.963   .     S
Cu110  O126    1.958   .     S
H117   O122    1.014   .     S
H118   O124    1.014   .     S
C133   C136    1.448   .     S
C133   O165    1.299   .     A
C133   O170    1.294   .     A
C134   C136    1.399   .     A
C134   H158    1.083   .     S
C135   C149    1.402   .     A
C135   C143    1.448   .     S
C135   C150    1.399   .     A
C136   C148    1.402   .     A
C137   N164    1.355   .     A
C137   H159    1.083   .     S
C137   C931    1.416   1_554 S
C138   N163    1.355   .     A
C138   H160    1.083   .     S
C138   C536    1.416   .     S
C139   C141    1.473   .     S
C139   N163    1.389   .     A
C139   C533    1.416   .     S
C140   C142    1.473   .     S
C140   N164    1.389   .     A
C140   C930    1.416   1_554 S
C141   O166    1.398   .     S
C141   O176    1.220   .     D
C142   O167    1.220   .     D
C142   O168    1.398   .     S
C143   O171    1.294   .     A
C143   O169    1.299   .     A
C144   O172    1.289   .     A
C144   C146    1.431   .     S
C144   O174    1.295   .     A
C145   O173    1.289   .     A
C145   C147    1.431   .     S
C145   O175    1.295   .     A
C146   C235    1.351   1_455 S
C146   Cl239   1.778   1_455 S
C147   C190    1.351   .     S
C147   Cl196   1.778   .     S
C148   H155    1.083   .     S
C149   H156    1.083   .     S
C149   C266    1.384   .     S
C150   H157    1.083   .     S
C150   C280    1.384   .     S
Cl151  C190    1.778   .     S
Cl152  C235    1.778   1_455 S
Cu153  O165    1.963   .     S
Cu153  O171    1.958   .     S
Cu153  Cu154   2.696   .     S
Cu153  N163    2.026   .     S
Cu153  O175    1.969   .     S
Cu153  O172    1.974   .     S
Cu154  O174    1.969   .     S
Cu154  N164    2.026   .     S
Cu154  O173    1.974   .     S
Cu154  O169    1.963   .     S
Cu154  O170    1.958   .     S
H161   O166    1.014   .     S
H162   O168    1.014   .     S
C177   C180    1.448   .     S
C177   O209    1.299   .     A
C177   O214    1.294   .     A
C178   C180    1.399   .     A
C178   H202    1.083   .     S
C179   C193    1.402   .     A
C179   C187    1.448   .     S
C179   C194    1.399   .     A
C180   C192    1.402   .     A
C181   N208    1.355   .     A
C181   H203    1.083   .     S
C181   C975    1.416   1_554 S
C182   N207    1.355   .     A
C182   H204    1.083   .     S
C182   C580    1.416   .     S
C183   C185    1.473   .     S
C183   N207    1.389   .     A
C183   C577    1.416   .     S
C184   C186    1.473   .     S
C184   N208    1.389   .     A
C184   C974    1.416   1_554 S
C185   O210    1.398   .     S
C185   O220    1.220   .     D
C186   O211    1.220   .     D
C186   O212    1.398   .     S
C187   O215    1.294   .     A
C187   O213    1.299   .     A
C188   O216    1.289   .     A
C188   C190    1.431   .     S
C188   O218    1.295   .     A
C189   O217    1.289   .     A
C189   C191    1.431   .     S
C189   O219    1.295   .     A
C191   C234    1.351   .     S
C191   Cl240   1.778   .     S
C192   H199    1.083   .     S
C193   H200    1.083   .     S
C193   C310    1.384   .     S
C194   H201    1.083   .     S
C194   C324    1.384   .     S
Cl195  C234    1.778   .     S
Cu197  O209    1.963   .     S
Cu197  O215    1.958   .     S
Cu197  Cu198   2.696   .     S
Cu197  N207    2.026   .     S
Cu197  O219    1.969   .     S
Cu197  O216    1.974   .     S
Cu198  O218    1.969   .     S
Cu198  N208    2.026   .     S
Cu198  O217    1.974   .     S
Cu198  O213    1.963   .     S
Cu198  O214    1.958   .     S
H205   O210    1.014   .     S
H206   O212    1.014   .     S
C221   C224    1.448   .     S
C221   O253    1.299   .     A
C221   O258    1.294   .     A
C222   C224    1.399   .     A
C222   H246    1.083   .     S
C223   C237    1.402   .     A
C223   C231    1.448   .     S
C223   C238    1.399   .     A
C224   C236    1.402   .     A
C225   N252    1.355   .     A
C225   H247    1.083   .     S
C225   C1019   1.416   1_554 S
C226   N251    1.355   .     A
C226   H248    1.083   .     S
C226   C624    1.416   .     S
C227   C229    1.473   .     S
C227   N251    1.389   .     A
C227   C621    1.416   .     S
C228   C230    1.473   .     S
C228   N252    1.389   .     A
C228   C1018   1.416   1_554 S
C229   O254    1.398   .     S
C229   O264    1.220   .     D
C230   O255    1.220   .     D
C230   O256    1.398   .     S
C231   O259    1.294   .     A
C231   O257    1.299   .     A
C232   O260    1.289   .     A
C232   C234    1.431   .     S
C232   O262    1.295   .     A
C233   O261    1.289   .     A
C233   C235    1.431   .     S
C233   O263    1.295   .     A
C235   C146    1.351   1_655 S
C235   Cl152   1.778   1_655 S
C236   H243    1.083   .     S
C237   H244    1.083   .     S
C237   C354    1.384   .     S
C238   H245    1.083   .     S
C238   C368    1.384   .     S
Cl239  C146    1.778   1_655 S
Cu241  O253    1.963   .     S
Cu241  O259    1.958   .     S
Cu241  Cu242   2.696   .     S
Cu241  N251    2.026   .     S
Cu241  O263    1.969   .     S
Cu241  O260    1.974   .     S
Cu242  O262    1.969   .     S
Cu242  N252    2.026   .     S
Cu242  O261    1.974   .     S
Cu242  O257    1.963   .     S
Cu242  O258    1.958   .     S
H249   O254    1.014   .     S
H250   O256    1.014   .     S
C265   C268    1.448   .     S
C265   O297    1.299   .     A
C265   O302    1.294   .     A
C266   C268    1.399   .     A
C266   H290    1.083   .     S
C267   C281    1.402   .     A
C267   C275    1.448   .     S
C267   C282    1.399   .     A
C268   C280    1.402   .     A
C269   N296    1.355   .     A
C269   H291    1.083   .     S
C269   C1063   1.416   1_554 S
C270   N295    1.355   .     A
C270   H292    1.083   .     S
C270   C668    1.416   .     S
C271   C273    1.473   .     S
C271   N295    1.389   .     A
C271   C665    1.416   .     S
C272   C274    1.473   .     S
C272   N296    1.389   .     A
C272   C1062   1.416   1_554 S
C273   O298    1.398   .     S
C273   O308    1.220   .     D
C274   O299    1.220   .     D
C274   O300    1.398   .     S
C275   O303    1.294   .     A
C275   O301    1.299   .     A
C276   O304    1.289   .     A
C276   C278    1.431   .     S
C276   O306    1.295   .     A
C277   O305    1.289   .     A
C277   C279    1.431   .     S
C277   O307    1.295   .     A
C278   C367    1.351   1_455 S
C278   Cl371   1.778   1_455 S
C279   C322    1.351   .     S
C279   Cl328   1.778   .     S
C280   H287    1.083   .     S
C281   H288    1.083   .     S
C281   C2      1.384   1_565 S
C282   H289    1.083   .     S
C282   C16     1.384   1_565 S
Cl283  C322    1.778   .     S
Cl284  C367    1.778   1_455 S
Cu285  O297    1.963   .     S
Cu285  O303    1.958   .     S
Cu285  Cu286   2.696   .     S
Cu285  N295    2.026   .     S
Cu285  O307    1.969   .     S
Cu285  O304    1.974   .     S
Cu286  O306    1.969   .     S
Cu286  N296    2.026   .     S
Cu286  O305    1.974   .     S
Cu286  O301    1.963   .     S
Cu286  O302    1.958   .     S
H293   O298    1.014   .     S
H294   O300    1.014   .     S
C309   C312    1.448   .     S
C309   O341    1.299   .     A
C309   O346    1.294   .     A
C310   C312    1.399   .     A
C310   H334    1.083   .     S
C311   C325    1.402   .     A
C311   C319    1.448   .     S
C311   C326    1.399   .     A
C312   C324    1.402   .     A
C313   N340    1.355   .     A
C313   H335    1.083   .     S
C313   C1107   1.416   1_554 S
C314   N339    1.355   .     A
C314   H336    1.083   .     S
C314   C712    1.416   .     S
C315   C317    1.473   .     S
C315   N339    1.389   .     A
C315   C709    1.416   .     S
C316   C318    1.473   .     S
C316   N340    1.389   .     A
C316   C1106   1.416   1_554 S
C317   O342    1.398   .     S
C317   O352    1.220   .     D
C318   O343    1.220   .     D
C318   O344    1.398   .     S
C319   O347    1.294   .     A
C319   O345    1.299   .     A
C320   O348    1.289   .     A
C320   C322    1.431   .     S
C320   O350    1.295   .     A
C321   O349    1.289   .     A
C321   C323    1.431   .     S
C321   O351    1.295   .     A
C323   C366    1.351   .     S
C323   Cl372   1.778   .     S
C324   H331    1.083   .     S
C325   H332    1.083   .     S
C325   C46     1.384   1_565 S
C326   H333    1.083   .     S
C326   C60     1.384   1_565 S
Cl327  C366    1.778   .     S
Cu329  O341    1.963   .     S
Cu329  O347    1.958   .     S
Cu329  Cu330   2.696   .     S
Cu329  N339    2.026   .     S
Cu329  O351    1.969   .     S
Cu329  O348    1.974   .     S
Cu330  O350    1.969   .     S
Cu330  N340    2.026   .     S
Cu330  O349    1.974   .     S
Cu330  O345    1.963   .     S
Cu330  O346    1.958   .     S
H337   O342    1.014   .     S
H338   O344    1.014   .     S
C353   C356    1.448   .     S
C353   O385    1.299   .     A
C353   O390    1.294   .     A
C354   C356    1.399   .     A
C354   H378    1.083   .     S
C355   C369    1.402   .     A
C355   C363    1.448   .     S
C355   C370    1.399   .     A
C356   C368    1.402   .     A
C357   N384    1.355   .     A
C357   H379    1.083   .     S
C357   C1151   1.416   1_554 S
C358   N383    1.355   .     A
C358   H380    1.083   .     S
C358   C756    1.416   .     S
C359   C361    1.473   .     S
C359   N383    1.389   .     A
C359   C753    1.416   .     S
C360   C362    1.473   .     S
C360   N384    1.389   .     A
C360   C1150   1.416   1_554 S
C361   O386    1.398   .     S
C361   O396    1.220   .     D
C362   O387    1.220   .     D
C362   O388    1.398   .     S
C363   O391    1.294   .     A
C363   O389    1.299   .     A
C364   O392    1.289   .     A
C364   C366    1.431   .     S
C364   O394    1.295   .     A
C365   O393    1.289   .     A
C365   C367    1.431   .     S
C365   O395    1.295   .     A
C367   C278    1.351   1_655 S
C367   Cl284   1.778   1_655 S
C368   H375    1.083   .     S
C369   H376    1.083   .     S
C369   C90     1.384   1_565 S
C370   H377    1.083   .     S
C370   C104    1.384   1_565 S
Cl371  C278    1.778   1_655 S
Cu373  O385    1.963   .     S
Cu373  O391    1.958   .     S
Cu373  Cu374   2.696   .     S
Cu373  N383    2.026   .     S
Cu373  O395    1.969   .     S
Cu373  O392    1.974   .     S
Cu374  O394    1.969   .     S
Cu374  N384    2.026   .     S
Cu374  O393    1.974   .     S
Cu374  O389    1.963   .     S
Cu374  O390    1.958   .     S
H381   O386    1.014   .     S
H382   O388    1.014   .     S
C397   C400    1.448   .     S
C397   O429    1.299   .     A
C397   O434    1.294   .     A
C398   C400    1.399   .     A
C398   H422    1.083   .     S
C398   C677    1.384   1_545 S
C399   C413    1.402   .     A
C399   C407    1.448   .     S
C399   C414    1.399   .     A
C400   C412    1.402   .     A
C401   N428    1.355   .     A
C401   H423    1.083   .     S
C402   N427    1.355   .     A
C402   H424    1.083   .     S
C402   C800    1.416   .     S
C403   C405    1.473   .     S
C403   N427    1.389   .     A
C403   C797    1.416   .     S
C404   C406    1.473   .     S
C404   N428    1.389   .     A
C405   O430    1.398   .     S
C405   O440    1.220   .     D
C406   O431    1.220   .     D
C406   O432    1.398   .     S
C407   O435    1.294   .     A
C407   O433    1.299   .     A
C408   O436    1.289   .     A
C408   C410    1.431   .     S
C408   O438    1.295   .     A
C409   O437    1.289   .     A
C409   C411    1.431   .     S
C409   O439    1.295   .     A
C410   C499    1.351   1_455 S
C410   Cl503   1.778   1_455 S
C411   C454    1.351   .     S
C411   Cl460   1.778   .     S
C412   H419    1.083   .     S
C412   C678    1.384   1_545 S
C413   H420    1.083   .     S
C413   C530    1.384   .     S
C414   H421    1.083   .     S
C414   C544    1.384   .     S
Cl415  C454    1.778   .     S
Cl416  C499    1.778   1_455 S
Cu417  O429    1.963   .     S
Cu417  O435    1.958   .     S
Cu417  Cu418   2.696   .     S
Cu417  N427    2.026   .     S
Cu417  O439    1.969   .     S
Cu417  O436    1.974   .     S
Cu418  O438    1.969   .     S
Cu418  N428    2.026   .     S
Cu418  O437    1.974   .     S
Cu418  O433    1.963   .     S
Cu418  O434    1.958   .     S
H425   O430    1.014   .     S
H426   O432    1.014   .     S
C441   C444    1.448   .     S
C441   O473    1.299   .     A
C441   O478    1.294   .     A
C442   C444    1.399   .     A
C442   H466    1.083   .     S
C442   C721    1.384   1_545 S
C443   C457    1.402   .     A
C443   C451    1.448   .     S
C443   C458    1.399   .     A
C444   C456    1.402   .     A
C445   N472    1.355   .     A
C445   H467    1.083   .     S
C446   N471    1.355   .     A
C446   H468    1.083   .     S
C446   C844    1.416   .     S
C447   C449    1.473   .     S
C447   N471    1.389   .     A
C447   C841    1.416   .     S
C448   C450    1.473   .     S
C448   N472    1.389   .     A
C449   O474    1.398   .     S
C449   O484    1.220   .     D
C450   O475    1.220   .     D
C450   O476    1.398   .     S
C451   O479    1.294   .     A
C451   O477    1.299   .     A
C452   O480    1.289   .     A
C452   C454    1.431   .     S
C452   O482    1.295   .     A
C453   O481    1.289   .     A
C453   C455    1.431   .     S
C453   O483    1.295   .     A
C455   C498    1.351   .     S
C455   Cl504   1.778   .     S
C456   H463    1.083   .     S
C456   C722    1.384   1_545 S
C457   H464    1.083   .     S
C457   C574    1.384   .     S
C458   H465    1.083   .     S
C458   C588    1.384   .     S
Cl459  C498    1.778   .     S
Cu461  O473    1.963   .     S
Cu461  O479    1.958   .     S
Cu461  Cu462   2.696   .     S
Cu461  N471    2.026   .     S
Cu461  O483    1.969   .     S
Cu461  O480    1.974   .     S
Cu462  O482    1.969   .     S
Cu462  N472    2.026   .     S
Cu462  O481    1.974   .     S
Cu462  O477    1.963   .     S
Cu462  O478    1.958   .     S
H469   O474    1.014   .     S
H470   O476    1.014   .     S
C485   C488    1.448   .     S
C485   O517    1.299   .     A
C485   O522    1.294   .     A
C486   C488    1.399   .     A
C486   H510    1.083   .     S
C486   C765    1.384   1_545 S
C487   C501    1.402   .     A
C487   C495    1.448   .     S
C487   C502    1.399   .     A
C488   C500    1.402   .     A
C489   N516    1.355   .     A
C489   H511    1.083   .     S
C490   N515    1.355   .     A
C490   H512    1.083   .     S
C490   C888    1.416   .     S
C491   C493    1.473   .     S
C491   N515    1.389   .     A
C491   C885    1.416   .     S
C492   C494    1.473   .     S
C492   N516    1.389   .     A
C493   O518    1.398   .     S
C493   O528    1.220   .     D
C494   O519    1.220   .     D
C494   O520    1.398   .     S
C495   O523    1.294   .     A
C495   O521    1.299   .     A
C496   O524    1.289   .     A
C496   C498    1.431   .     S
C496   O526    1.295   .     A
C497   O525    1.289   .     A
C497   C499    1.431   .     S
C497   O527    1.295   .     A
C499   C410    1.351   1_655 S
C499   Cl416   1.778   1_655 S
C500   H507    1.083   .     S
C500   C766    1.384   1_545 S
C501   H508    1.083   .     S
C501   C618    1.384   .     S
C502   H509    1.083   .     S
C502   C632    1.384   .     S
Cl503  C410    1.778   1_655 S
Cu505  O517    1.963   .     S
Cu505  O523    1.958   .     S
Cu505  Cu506   2.696   .     S
Cu505  N515    2.026   .     S
Cu505  O527    1.969   .     S
Cu505  O524    1.974   .     S
Cu506  O526    1.969   .     S
Cu506  N516    2.026   .     S
Cu506  O525    1.974   .     S
Cu506  O521    1.963   .     S
Cu506  O522    1.958   .     S
H513   O518    1.014   .     S
H514   O520    1.014   .     S
C529   C532    1.448   .     S
C529   O561    1.299   .     A
C529   O566    1.294   .     A
C530   C532    1.399   .     A
C530   H554    1.083   .     S
C531   C545    1.402   .     A
C531   C539    1.448   .     S
C531   C546    1.399   .     A
C532   C544    1.402   .     A
C533   N560    1.355   .     A
C533   H555    1.083   .     S
C534   N559    1.355   .     A
C534   H556    1.083   .     S
C534   C932    1.416   .     S
C535   C537    1.473   .     S
C535   N559    1.389   .     A
C535   C929    1.416   .     S
C536   C538    1.473   .     S
C536   N560    1.389   .     A
C537   O562    1.398   .     S
C537   O572    1.220   .     D
C538   O563    1.220   .     D
C538   O564    1.398   .     S
C539   O567    1.294   .     A
C539   O565    1.299   .     A
C540   O568    1.289   .     A
C540   C542    1.431   .     S
C540   O570    1.295   .     A
C541   O569    1.289   .     A
C541   C543    1.431   .     S
C541   O571    1.295   .     A
C542   C631    1.351   1_455 S
C542   Cl635   1.778   1_455 S
C543   C586    1.351   .     S
C543   Cl592   1.778   .     S
C544   H551    1.083   .     S
C545   H552    1.083   .     S
C545   C662    1.384   .     S
C546   H553    1.083   .     S
C546   C676    1.384   .     S
Cl547  C586    1.778   .     S
Cl548  C631    1.778   1_455 S
Cu549  O561    1.963   .     S
Cu549  O567    1.958   .     S
Cu549  Cu550   2.696   .     S
Cu549  N559    2.026   .     S
Cu549  O571    1.969   .     S
Cu549  O568    1.974   .     S
Cu550  O570    1.969   .     S
Cu550  N560    2.026   .     S
Cu550  O569    1.974   .     S
Cu550  O565    1.963   .     S
Cu550  O566    1.958   .     S
H557   O562    1.014   .     S
H558   O564    1.014   .     S
C573   C576    1.448   .     S
C573   O605    1.299   .     A
C573   O610    1.294   .     A
C574   C576    1.399   .     A
C574   H598    1.083   .     S
C575   C589    1.402   .     A
C575   C583    1.448   .     S
C575   C590    1.399   .     A
C576   C588    1.402   .     A
C577   N604    1.355   .     A
C577   H599    1.083   .     S
C578   N603    1.355   .     A
C578   H600    1.083   .     S
C578   C976    1.416   .     S
C579   C581    1.473   .     S
C579   N603    1.389   .     A
C579   C973    1.416   .     S
C580   C582    1.473   .     S
C580   N604    1.389   .     A
C581   O606    1.398   .     S
C581   O616    1.220   .     D
C582   O607    1.220   .     D
C582   O608    1.398   .     S
C583   O611    1.294   .     A
C583   O609    1.299   .     A
C584   O612    1.289   .     A
C584   C586    1.431   .     S
C584   O614    1.295   .     A
C585   O613    1.289   .     A
C585   C587    1.431   .     S
C585   O615    1.295   .     A
C587   C630    1.351   .     S
C587   Cl636   1.778   .     S
C588   H595    1.083   .     S
C589   H596    1.083   .     S
C589   C706    1.384   .     S
C590   H597    1.083   .     S
C590   C720    1.384   .     S
Cl591  C630    1.778   .     S
Cu593  O605    1.963   .     S
Cu593  O611    1.958   .     S
Cu593  Cu594   2.696   .     S
Cu593  N603    2.026   .     S
Cu593  O615    1.969   .     S
Cu593  O612    1.974   .     S
Cu594  O614    1.969   .     S
Cu594  N604    2.026   .     S
Cu594  O613    1.974   .     S
Cu594  O609    1.963   .     S
Cu594  O610    1.958   .     S
H601   O606    1.014   .     S
H602   O608    1.014   .     S
C617   C620    1.448   .     S
C617   O649    1.299   .     A
C617   O654    1.294   .     A
C618   C620    1.399   .     A
C618   H642    1.083   .     S
C619   C633    1.402   .     A
C619   C627    1.448   .     S
C619   C634    1.399   .     A
C620   C632    1.402   .     A
C621   N648    1.355   .     A
C621   H643    1.083   .     S
C622   N647    1.355   .     A
C622   H644    1.083   .     S
C622   C1020   1.416   .     S
C623   C625    1.473   .     S
C623   N647    1.389   .     A
C623   C1017   1.416   .     S
C624   C626    1.473   .     S
C624   N648    1.389   .     A
C625   O650    1.398   .     S
C625   O660    1.220   .     D
C626   O651    1.220   .     D
C626   O652    1.398   .     S
C627   O655    1.294   .     A
C627   O653    1.299   .     A
C628   O656    1.289   .     A
C628   C630    1.431   .     S
C628   O658    1.295   .     A
C629   O657    1.289   .     A
C629   C631    1.431   .     S
C629   O659    1.295   .     A
C631   C542    1.351   1_655 S
C631   Cl548   1.778   1_655 S
C632   H639    1.083   .     S
C633   H640    1.083   .     S
C633   C750    1.384   .     S
C634   H641    1.083   .     S
C634   C764    1.384   .     S
Cl635  C542    1.778   1_655 S
Cu637  O649    1.963   .     S
Cu637  O655    1.958   .     S
Cu637  Cu638   2.696   .     S
Cu637  N647    2.026   .     S
Cu637  O659    1.969   .     S
Cu637  O656    1.974   .     S
Cu638  O658    1.969   .     S
Cu638  N648    2.026   .     S
Cu638  O657    1.974   .     S
Cu638  O653    1.963   .     S
Cu638  O654    1.958   .     S
H645   O650    1.014   .     S
H646   O652    1.014   .     S
C661   C664    1.448   .     S
C661   O693    1.299   .     A
C661   O698    1.294   .     A
C662   C664    1.399   .     A
C662   H686    1.083   .     S
C663   C677    1.402   .     A
C663   C671    1.448   .     S
C663   C678    1.399   .     A
C664   C676    1.402   .     A
C665   N692    1.355   .     A
C665   H687    1.083   .     S
C666   N691    1.355   .     A
C666   H688    1.083   .     S
C666   C1064   1.416   .     S
C667   C669    1.473   .     S
C667   N691    1.389   .     A
C667   C1061   1.416   .     S
C668   C670    1.473   .     S
C668   N692    1.389   .     A
C669   O694    1.398   .     S
C669   O704    1.220   .     D
C670   O695    1.220   .     D
C670   O696    1.398   .     S
C671   O699    1.294   .     A
C671   O697    1.299   .     A
C672   O700    1.289   .     A
C672   C674    1.431   .     S
C672   O702    1.295   .     A
C673   O701    1.289   .     A
C673   C675    1.431   .     S
C673   O703    1.295   .     A
C674   C763    1.351   1_455 S
C674   Cl767   1.778   1_455 S
C675   C718    1.351   .     S
C675   Cl724   1.778   .     S
C676   H683    1.083   .     S
C677   H684    1.083   .     S
C677   C398    1.384   1_565 S
C678   H685    1.083   .     S
C678   C412    1.384   1_565 S
Cl679  C718    1.778   .     S
Cl680  C763    1.778   1_455 S
Cu681  O693    1.963   .     S
Cu681  O699    1.958   .     S
Cu681  Cu682   2.696   .     S
Cu681  N691    2.026   .     S
Cu681  O703    1.969   .     S
Cu681  O700    1.974   .     S
Cu682  O702    1.969   .     S
Cu682  N692    2.026   .     S
Cu682  O701    1.974   .     S
Cu682  O697    1.963   .     S
Cu682  O698    1.958   .     S
H689   O694    1.014   .     S
H690   O696    1.014   .     S
C705   C708    1.448   .     S
C705   O737    1.299   .     A
C705   O742    1.294   .     A
C706   C708    1.399   .     A
C706   H730    1.083   .     S
C707   C721    1.402   .     A
C707   C715    1.448   .     S
C707   C722    1.399   .     A
C708   C720    1.402   .     A
C709   N736    1.355   .     A
C709   H731    1.083   .     S
C710   N735    1.355   .     A
C710   H732    1.083   .     S
C710   C1108   1.416   .     S
C711   C713    1.473   .     S
C711   N735    1.389   .     A
C711   C1105   1.416   .     S
C712   C714    1.473   .     S
C712   N736    1.389   .     A
C713   O738    1.398   .     S
C713   O748    1.220   .     D
C714   O739    1.220   .     D
C714   O740    1.398   .     S
C715   O743    1.294   .     A
C715   O741    1.299   .     A
C716   O744    1.289   .     A
C716   C718    1.431   .     S
C716   O746    1.295   .     A
C717   O745    1.289   .     A
C717   C719    1.431   .     S
C717   O747    1.295   .     A
C719   C762    1.351   .     S
C719   Cl768   1.778   .     S
C720   H727    1.083   .     S
C721   H728    1.083   .     S
C721   C442    1.384   1_565 S
C722   H729    1.083   .     S
C722   C456    1.384   1_565 S
Cl723  C762    1.778   .     S
Cu725  O737    1.963   .     S
Cu725  O743    1.958   .     S
Cu725  Cu726   2.696   .     S
Cu725  N735    2.026   .     S
Cu725  O747    1.969   .     S
Cu725  O744    1.974   .     S
Cu726  O746    1.969   .     S
Cu726  N736    2.026   .     S
Cu726  O745    1.974   .     S
Cu726  O741    1.963   .     S
Cu726  O742    1.958   .     S
H733   O738    1.014   .     S
H734   O740    1.014   .     S
C749   C752    1.448   .     S
C749   O781    1.299   .     A
C749   O786    1.294   .     A
C750   C752    1.399   .     A
C750   H774    1.083   .     S
C751   C765    1.402   .     A
C751   C759    1.448   .     S
C751   C766    1.399   .     A
C752   C764    1.402   .     A
C753   N780    1.355   .     A
C753   H775    1.083   .     S
C754   N779    1.355   .     A
C754   H776    1.083   .     S
C754   C1152   1.416   .     S
C755   C757    1.473   .     S
C755   N779    1.389   .     A
C755   C1149   1.416   .     S
C756   C758    1.473   .     S
C756   N780    1.389   .     A
C757   O782    1.398   .     S
C757   O792    1.220   .     D
C758   O783    1.220   .     D
C758   O784    1.398   .     S
C759   O787    1.294   .     A
C759   O785    1.299   .     A
C760   O788    1.289   .     A
C760   C762    1.431   .     S
C760   O790    1.295   .     A
C761   O789    1.289   .     A
C761   C763    1.431   .     S
C761   O791    1.295   .     A
C763   C674    1.351   1_655 S
C763   Cl680   1.778   1_655 S
C764   H771    1.083   .     S
C765   H772    1.083   .     S
C765   C486    1.384   1_565 S
C766   H773    1.083   .     S
C766   C500    1.384   1_565 S
Cl767  C674    1.778   1_655 S
Cu769  O781    1.963   .     S
Cu769  O787    1.958   .     S
Cu769  Cu770   2.696   .     S
Cu769  N779    2.026   .     S
Cu769  O791    1.969   .     S
Cu769  O788    1.974   .     S
Cu770  O790    1.969   .     S
Cu770  N780    2.026   .     S
Cu770  O789    1.974   .     S
Cu770  O785    1.963   .     S
Cu770  O786    1.958   .     S
H777   O782    1.014   .     S
H778   O784    1.014   .     S
C793   C796    1.448   .     S
C793   O825    1.299   .     A
C793   O830    1.294   .     A
C794   C796    1.399   .     A
C794   H818    1.083   .     S
C794   C1073   1.384   1_545 S
C795   C809    1.402   .     A
C795   C803    1.448   .     S
C795   C810    1.399   .     A
C796   C808    1.402   .     A
C797   N824    1.355   .     A
C797   H819    1.083   .     S
C798   N823    1.355   .     A
C798   H820    1.083   .     S
C798   C8      1.416   1_556 S
C799   C801    1.473   .     S
C799   N823    1.389   .     A
C799   C5      1.416   1_556 S
C800   C802    1.473   .     S
C800   N824    1.389   .     A
C801   O826    1.398   .     S
C801   O836    1.220   .     D
C802   O827    1.220   .     D
C802   O828    1.398   .     S
C803   O831    1.294   .     A
C803   O829    1.299   .     A
C804   O832    1.289   .     A
C804   C806    1.431   .     S
C804   O834    1.295   .     A
C805   O833    1.289   .     A
C805   C807    1.431   .     S
C805   O835    1.295   .     A
C806   C895    1.351   1_455 S
C806   Cl899   1.778   1_455 S
C807   C850    1.351   .     S
C807   Cl856   1.778   .     S
C808   H815    1.083   .     S
C808   C1074   1.384   1_545 S
C809   H816    1.083   .     S
C809   C926    1.384   .     S
C810   H817    1.083   .     S
C810   C940    1.384   .     S
Cl811  C850    1.778   .     S
Cl812  C895    1.778   1_455 S
Cu813  O825    1.963   .     S
Cu813  O831    1.958   .     S
Cu813  Cu814   2.696   .     S
Cu813  N823    2.026   .     S
Cu813  O835    1.969   .     S
Cu813  O832    1.974   .     S
Cu814  O834    1.969   .     S
Cu814  N824    2.026   .     S
Cu814  O833    1.974   .     S
Cu814  O829    1.963   .     S
Cu814  O830    1.958   .     S
H821   O826    1.014   .     S
H822   O828    1.014   .     S
C837   C840    1.448   .     S
C837   O869    1.299   .     A
C837   O874    1.294   .     A
C838   C840    1.399   .     A
C838   H862    1.083   .     S
C838   C1117   1.384   1_545 S
C839   C853    1.402   .     A
C839   C847    1.448   .     S
C839   C854    1.399   .     A
C840   C852    1.402   .     A
C841   N868    1.355   .     A
C841   H863    1.083   .     S
C842   N867    1.355   .     A
C842   H864    1.083   .     S
C842   C52     1.416   1_556 S
C843   C845    1.473   .     S
C843   N867    1.389   .     A
C843   C49     1.416   1_556 S
C844   C846    1.473   .     S
C844   N868    1.389   .     A
C845   O870    1.398   .     S
C845   O880    1.220   .     D
C846   O871    1.220   .     D
C846   O872    1.398   .     S
C847   O875    1.294   .     A
C847   O873    1.299   .     A
C848   O876    1.289   .     A
C848   C850    1.431   .     S
C848   O878    1.295   .     A
C849   O877    1.289   .     A
C849   C851    1.431   .     S
C849   O879    1.295   .     A
C851   C894    1.351   .     S
C851   Cl900   1.778   .     S
C852   H859    1.083   .     S
C852   C1118   1.384   1_545 S
C853   H860    1.083   .     S
C853   C970    1.384   .     S
C854   H861    1.083   .     S
C854   C984    1.384   .     S
Cl855  C894    1.778   .     S
Cu857  O869    1.963   .     S
Cu857  O875    1.958   .     S
Cu857  Cu858   2.696   .     S
Cu857  N867    2.026   .     S
Cu857  O879    1.969   .     S
Cu857  O876    1.974   .     S
Cu858  O878    1.969   .     S
Cu858  N868    2.026   .     S
Cu858  O877    1.974   .     S
Cu858  O873    1.963   .     S
Cu858  O874    1.958   .     S
H865   O870    1.014   .     S
H866   O872    1.014   .     S
C881   C884    1.448   .     S
C881   O913    1.299   .     A
C881   O918    1.294   .     A
C882   C884    1.399   .     A
C882   H906    1.083   .     S
C882   C1161   1.384   1_545 S
C883   C897    1.402   .     A
C883   C891    1.448   .     S
C883   C898    1.399   .     A
C884   C896    1.402   .     A
C885   N912    1.355   .     A
C885   H907    1.083   .     S
C886   N911    1.355   .     A
C886   H908    1.083   .     S
C886   C96     1.416   1_556 S
C887   C889    1.473   .     S
C887   N911    1.389   .     A
C887   C93     1.416   1_556 S
C888   C890    1.473   .     S
C888   N912    1.389   .     A
C889   O914    1.398   .     S
C889   O924    1.220   .     D
C890   O915    1.220   .     D
C890   O916    1.398   .     S
C891   O919    1.294   .     A
C891   O917    1.299   .     A
C892   O920    1.289   .     A
C892   C894    1.431   .     S
C892   O922    1.295   .     A
C893   O921    1.289   .     A
C893   C895    1.431   .     S
C893   O923    1.295   .     A
C895   C806    1.351   1_655 S
C895   Cl812   1.778   1_655 S
C896   H903    1.083   .     S
C896   C1162   1.384   1_545 S
C897   H904    1.083   .     S
C897   C1014   1.384   .     S
C898   H905    1.083   .     S
C898   C1028   1.384   .     S
Cl899  C806    1.778   1_655 S
Cu901  O913    1.963   .     S
Cu901  O919    1.958   .     S
Cu901  Cu902   2.696   .     S
Cu901  N911    2.026   .     S
Cu901  O923    1.969   .     S
Cu901  O920    1.974   .     S
Cu902  O922    1.969   .     S
Cu902  N912    2.026   .     S
Cu902  O921    1.974   .     S
Cu902  O917    1.963   .     S
Cu902  O918    1.958   .     S
H909   O914    1.014   .     S
H910   O916    1.014   .     S
C925   C928    1.448   .     S
C925   O957    1.299   .     A
C925   O962    1.294   .     A
C926   C928    1.399   .     A
C926   H950    1.083   .     S
C927   C941    1.402   .     A
C927   C935    1.448   .     S
C927   C942    1.399   .     A
C928   C940    1.402   .     A
C929   N956    1.355   .     A
C929   H951    1.083   .     S
C930   N955    1.355   .     A
C930   H952    1.083   .     S
C930   C140    1.416   1_556 S
C931   C933    1.473   .     S
C931   N955    1.389   .     A
C931   C137    1.416   1_556 S
C932   C934    1.473   .     S
C932   N956    1.389   .     A
C933   O958    1.398   .     S
C933   O968    1.220   .     D
C934   O959    1.220   .     D
C934   O960    1.398   .     S
C935   O963    1.294   .     A
C935   O961    1.299   .     A
C936   O964    1.289   .     A
C936   C938    1.431   .     S
C936   O966    1.295   .     A
C937   O965    1.289   .     A
C937   C939    1.431   .     S
C937   O967    1.295   .     A
C938   C1027   1.351   1_455 S
C938   Cl1031  1.778   1_455 S
C939   C982    1.351   .     S
C939   Cl988   1.778   .     S
C940   H947    1.083   .     S
C941   H948    1.083   .     S
C941   C1058   1.384   .     S
C942   H949    1.083   .     S
C942   C1072   1.384   .     S
Cl943  C982    1.778   .     S
Cl944  C1027   1.778   1_455 S
Cu945  O957    1.963   .     S
Cu945  O963    1.958   .     S
Cu945  Cu946   2.696   .     S
Cu945  N955    2.026   .     S
Cu945  O967    1.969   .     S
Cu945  O964    1.974   .     S
Cu946  O966    1.969   .     S
Cu946  N956    2.026   .     S
Cu946  O965    1.974   .     S
Cu946  O961    1.963   .     S
Cu946  O962    1.958   .     S
H953   O958    1.014   .     S
H954   O960    1.014   .     S
C969   C972    1.448   .     S
C969   O1001   1.299   .     A
C969   O1006   1.294   .     A
C970   C972    1.399   .     A
C970   H994    1.083   .     S
C971   C985    1.402   .     A
C971   C979    1.448   .     S
C971   C986    1.399   .     A
C972   C984    1.402   .     A
C973   N1000   1.355   .     A
C973   H995    1.083   .     S
C974   N999    1.355   .     A
C974   H996    1.083   .     S
C974   C184    1.416   1_556 S
C975   C977    1.473   .     S
C975   N999    1.389   .     A
C975   C181    1.416   1_556 S
C976   C978    1.473   .     S
C976   N1000   1.389   .     A
C977   O1002   1.398   .     S
C977   O1012   1.220   .     D
C978   O1003   1.220   .     D
C978   O1004   1.398   .     S
C979   O1007   1.294   .     A
C979   O1005   1.299   .     A
C980   O1008   1.289   .     A
C980   C982    1.431   .     S
C980   O1010   1.295   .     A
C981   O1009   1.289   .     A
C981   C983    1.431   .     S
C981   O1011   1.295   .     A
C983   C1026   1.351   .     S
C983   Cl1032  1.778   .     S
C984   H991    1.083   .     S
C985   H992    1.083   .     S
C985   C1102   1.384   .     S
C986   H993    1.083   .     S
C986   C1116   1.384   .     S
Cl987  C1026   1.778   .     S
Cu989  O1001   1.963   .     S
Cu989  O1007   1.958   .     S
Cu989  Cu990   2.696   .     S
Cu989  N999    2.026   .     S
Cu989  O1011   1.969   .     S
Cu989  O1008   1.974   .     S
Cu990  O1010   1.969   .     S
Cu990  N1000   2.026   .     S
Cu990  O1009   1.974   .     S
Cu990  O1005   1.963   .     S
Cu990  O1006   1.958   .     S
H997   O1002   1.014   .     S
H998   O1004   1.014   .     S
C1013  C1016   1.448   .     S
C1013  O1045   1.299   .     A
C1013  O1050   1.294   .     A
C1014  C1016   1.399   .     A
C1014  H1038   1.083   .     S
C1015  C1029   1.402   .     A
C1015  C1023   1.448   .     S
C1015  C1030   1.399   .     A
C1016  C1028   1.402   .     A
C1017  N1044   1.355   .     A
C1017  H1039   1.083   .     S
C1018  N1043   1.355   .     A
C1018  H1040   1.083   .     S
C1018  C228    1.416   1_556 S
C1019  C1021   1.473   .     S
C1019  N1043   1.389   .     A
C1019  C225    1.416   1_556 S
C1020  C1022   1.473   .     S
C1020  N1044   1.389   .     A
C1021  O1046   1.398   .     S
C1021  O1056   1.220   .     D
C1022  O1047   1.220   .     D
C1022  O1048   1.398   .     S
C1023  O1051   1.294   .     A
C1023  O1049   1.299   .     A
C1024  O1052   1.289   .     A
C1024  C1026   1.431   .     S
C1024  O1054   1.295   .     A
C1025  O1053   1.289   .     A
C1025  C1027   1.431   .     S
C1025  O1055   1.295   .     A
C1027  C938    1.351   1_655 S
C1027  Cl944   1.778   1_655 S
C1028  H1035   1.083   .     S
C1029  H1036   1.083   .     S
C1029  C1146   1.384   .     S
C1030  H1037   1.083   .     S
C1030  C1160   1.384   .     S
Cl1031 C938    1.778   1_655 S
Cu1033 O1045   1.963   .     S
Cu1033 O1051   1.958   .     S
Cu1033 Cu1034  2.696   .     S
Cu1033 N1043   2.026   .     S
Cu1033 O1055   1.969   .     S
Cu1033 O1052   1.974   .     S
Cu1034 O1054   1.969   .     S
Cu1034 N1044   2.026   .     S
Cu1034 O1053   1.974   .     S
Cu1034 O1049   1.963   .     S
Cu1034 O1050   1.958   .     S
H1041  O1046   1.014   .     S
H1042  O1048   1.014   .     S
C1057  C1060   1.448   .     S
C1057  O1089   1.299   .     A
C1057  O1094   1.294   .     A
C1058  C1060   1.399   .     A
C1058  H1082   1.083   .     S
C1059  C1073   1.402   .     A
C1059  C1067   1.448   .     S
C1059  C1074   1.399   .     A
C1060  C1072   1.402   .     A
C1061  N1088   1.355   .     A
C1061  H1083   1.083   .     S
C1062  N1087   1.355   .     A
C1062  H1084   1.083   .     S
C1062  C272    1.416   1_556 S
C1063  C1065   1.473   .     S
C1063  N1087   1.389   .     A
C1063  C269    1.416   1_556 S
C1064  C1066   1.473   .     S
C1064  N1088   1.389   .     A
C1065  O1090   1.398   .     S
C1065  O1100   1.220   .     D
C1066  O1091   1.220   .     D
C1066  O1092   1.398   .     S
C1067  O1095   1.294   .     A
C1067  O1093   1.299   .     A
C1068  O1096   1.289   .     A
C1068  C1070   1.431   .     S
C1068  O1098   1.295   .     A
C1069  O1097   1.289   .     A
C1069  C1071   1.431   .     S
C1069  O1099   1.295   .     A
C1070  C1159   1.351   1_455 S
C1070  Cl1163  1.778   1_455 S
C1071  C1114   1.351   .     S
C1071  Cl1120  1.778   .     S
C1072  H1079   1.083   .     S
C1073  H1080   1.083   .     S
C1073  C794    1.384   1_565 S
C1074  H1081   1.083   .     S
C1074  C808    1.384   1_565 S
Cl1075 C1114   1.778   .     S
Cl1076 C1159   1.778   1_455 S
Cu1077 O1089   1.963   .     S
Cu1077 O1095   1.958   .     S
Cu1077 Cu1078  2.696   .     S
Cu1077 N1087   2.026   .     S
Cu1077 O1099   1.969   .     S
Cu1077 O1096   1.974   .     S
Cu1078 O1098   1.969   .     S
Cu1078 N1088   2.026   .     S
Cu1078 O1097   1.974   .     S
Cu1078 O1093   1.963   .     S
Cu1078 O1094   1.958   .     S
H1085  O1090   1.014   .     S
H1086  O1092   1.014   .     S
C1101  C1104   1.448   .     S
C1101  O1133   1.299   .     A
C1101  O1138   1.294   .     A
C1102  C1104   1.399   .     A
C1102  H1126   1.083   .     S
C1103  C1117   1.402   .     A
C1103  C1111   1.448   .     S
C1103  C1118   1.399   .     A
C1104  C1116   1.402   .     A
C1105  N1132   1.355   .     A
C1105  H1127   1.083   .     S
C1106  N1131   1.355   .     A
C1106  H1128   1.083   .     S
C1106  C316    1.416   1_556 S
C1107  C1109   1.473   .     S
C1107  N1131   1.389   .     A
C1107  C313    1.416   1_556 S
C1108  C1110   1.473   .     S
C1108  N1132   1.389   .     A
C1109  O1134   1.398   .     S
C1109  O1144   1.220   .     D
C1110  O1135   1.220   .     D
C1110  O1136   1.398   .     S
C1111  O1139   1.294   .     A
C1111  O1137   1.299   .     A
C1112  O1140   1.289   .     A
C1112  C1114   1.431   .     S
C1112  O1142   1.295   .     A
C1113  O1141   1.289   .     A
C1113  C1115   1.431   .     S
C1113  O1143   1.295   .     A
C1115  C1158   1.351   .     S
C1115  Cl1164  1.778   .     S
C1116  H1123   1.083   .     S
C1117  H1124   1.083   .     S
C1117  C838    1.384   1_565 S
C1118  H1125   1.083   .     S
C1118  C852    1.384   1_565 S
Cl1119 C1158   1.778   .     S
Cu1121 O1133   1.963   .     S
Cu1121 O1139   1.958   .     S
Cu1121 Cu1122  2.696   .     S
Cu1121 N1131   2.026   .     S
Cu1121 O1143   1.969   .     S
Cu1121 O1140   1.974   .     S
Cu1122 O1142   1.969   .     S
Cu1122 N1132   2.026   .     S
Cu1122 O1141   1.974   .     S
Cu1122 O1137   1.963   .     S
Cu1122 O1138   1.958   .     S
H1129  O1134   1.014   .     S
H1130  O1136   1.014   .     S
C1145  C1148   1.448   .     S
C1145  O1177   1.299   .     A
C1145  O1182   1.294   .     A
C1146  C1148   1.399   .     A
C1146  H1170   1.083   .     S
C1147  C1161   1.402   .     A
C1147  C1155   1.448   .     S
C1147  C1162   1.399   .     A
C1148  C1160   1.402   .     A
C1149  N1176   1.355   .     A
C1149  H1171   1.083   .     S
C1150  N1175   1.355   .     A
C1150  H1172   1.083   .     S
C1150  C360    1.416   1_556 S
C1151  C1153   1.473   .     S
C1151  N1175   1.389   .     A
C1151  C357    1.416   1_556 S
C1152  C1154   1.473   .     S
C1152  N1176   1.389   .     A
C1153  O1178   1.398   .     S
C1153  O1188   1.220   .     D
C1154  O1179   1.220   .     D
C1154  O1180   1.398   .     S
C1155  O1183   1.294   .     A
C1155  O1181   1.299   .     A
C1156  O1184   1.289   .     A
C1156  C1158   1.431   .     S
C1156  O1186   1.295   .     A
C1157  O1185   1.289   .     A
C1157  C1159   1.431   .     S
C1157  O1187   1.295   .     A
C1159  C1070   1.351   1_655 S
C1159  Cl1076  1.778   1_655 S
C1160  H1167   1.083   .     S
C1161  H1168   1.083   .     S
C1161  C882    1.384   1_565 S
C1162  H1169   1.083   .     S
C1162  C896    1.384   1_565 S
Cl1163 C1070   1.778   1_655 S
Cu1165 O1177   1.963   .     S
Cu1165 O1183   1.958   .     S
Cu1165 Cu1166  2.696   .     S
Cu1165 N1175   2.026   .     S
Cu1165 O1187   1.969   .     S
Cu1165 O1184   1.974   .     S
Cu1166 O1186   1.969   .     S
Cu1166 N1176   2.026   .     S
Cu1166 O1185   1.974   .     S
Cu1166 O1181   1.963   .     S
Cu1166 O1182   1.958   .     S
H1173  O1178   1.014   .     S
H1174  O1180   1.014   .     S
