data_str_m2_o1_o18_pcu_sym.144
_audit_creation_date              2020-01-03
_audit_creation_method            'Materials Studio'
_symmetry_space_group_name_H-M    'P1'
_symmetry_Int_Tables_number       1
_symmetry_cell_setting            triclinic
loop_
_symmetry_equiv_pos_as_xyz
  x,y,z
_cell_length_a                    28.6935
_cell_length_b                    32.4287
_cell_length_c                    30.8613
_cell_angle_alpha                 88.9890
_cell_angle_beta                  74.1133
_cell_angle_gamma                 90.8818
loop_
_atom_site_label
_atom_site_type_symbol
_atom_site_fract_x
_atom_site_fract_y
_atom_site_fract_z
_atom_site_U_iso_or_equiv
_atom_site_adp_type
_atom_site_occupancy
C1     C     0.33311   0.08744   0.24960   0.00000  Uiso   1.00
C2     C     0.00022   0.24589   0.25040   0.00000  Uiso   1.00
C3     C     0.19326   0.15773   0.04780   0.00000  Uiso   1.00
C4     C     0.14007   0.17561   0.45220   0.00000  Uiso   1.00
C5     C     0.24127   0.15029   0.02548   0.00000  Uiso   1.00
C6     C     0.09207   0.18305   0.47452   0.00000  Uiso   1.00
C7     C     0.30086   0.02088   0.23030   0.00000  Uiso   1.00
C8     C     0.03247   0.31245   0.26970   0.00000  Uiso   1.00
C9     C     0.30257   0.31122   0.23041   0.00000  Uiso   1.00
C10    C     0.03076   0.02211   0.26959   0.00000  Uiso   1.00
C11    C     0.00071   0.29056   0.25050   0.00000  Uiso   1.00
C12    C     0.33263   0.04278   0.24950   0.00000  Uiso   1.00
C13    C     0.18176   0.14068   0.27846   0.00000  Uiso   1.00
C14    C     0.15157   0.19265   0.22153   0.00000  Uiso   1.00
C15    C     0.13257   0.14095   0.27823   0.00000  Uiso   1.00
C16    C     0.20077   0.19238   0.22177   0.00000  Uiso   1.00
C17    C     0.30608   0.16728   0.33606   0.00000  Uiso   1.00
C18    C     0.02725   0.16606   0.16394   0.00000  Uiso   1.00
C19    C     0.29108   0.16604   0.38539   0.00000  Uiso   1.00
C20    C     0.04225   0.16730   0.11461   0.00000  Uiso   1.00
C21    C     0.30490   0.14411   0.45608   0.00000  Uiso   1.00
C22    C     0.02844   0.18922   0.04392   0.00000  Uiso   1.00
C23    C     0.32090   0.14810   0.40937   0.00000  Uiso   1.00
C24    C     0.01244   0.18524   0.09063   0.00000  Uiso   1.00
C25    C     0.24541   0.18062   0.40862   0.00000  Uiso   1.00
C26    C     0.08792   0.15272   0.09138   0.00000  Uiso   1.00
C27    C     0.22521   0.16831   0.45415   0.00000  Uiso   1.00
C28    C     0.10812   0.16502   0.04585   0.00000  Uiso   1.00
C29    C     0.25712   0.15377   0.47865   0.00000  Uiso   1.00
C30    C     0.07621   0.17956   0.02135   0.00000  Uiso   1.00
C31    C     0.17484   0.16998   0.47627   0.00000  Uiso   1.00
C32    C     0.15849   0.16335   0.02373   0.00000  Uiso   1.00
Cu33   Cu    0.04689   0.16667   0.25000   0.00000  Uiso   1.00
Cu34   Cu    0.28645   0.16666   0.25000   0.00000  Uiso   1.00
H35    H     0.26626   0.14265   0.04499   0.00000  Uiso   1.00
H36    H     0.06707   0.19068   0.45501   0.00000  Uiso   1.00
H37    H     0.30993   0.19567   0.10793   0.00000  Uiso   1.00
H38    H     0.02340   0.13766   0.39207   0.00000  Uiso   1.00
H39    H     0.32916   0.13195   0.47437   0.00000  Uiso   1.00
H40    H     0.00417   0.20138   0.02563   0.00000  Uiso   1.00
H41    H     0.18380   0.15886   0.08407   0.00000  Uiso   1.00
H42    H     0.14953   0.17447   0.41593   0.00000  Uiso   1.00
H43    H     0.28017   0.29378   0.21388   0.00000  Uiso   1.00
H44    H     0.05317   0.03955   0.28612   0.00000  Uiso   1.00
H45    H     0.10646   0.12042   0.30075   0.00000  Uiso   1.00
H46    H     0.22687   0.21291   0.19925   0.00000  Uiso   1.00
N47    N     0.11736   0.16668   0.24999   0.00000  Uiso   1.00
N48    N     0.21597   0.16666   0.25001   0.00000  Uiso   1.00
O49    O     0.03958   0.10655   0.25000   0.00000  Uiso   1.00
O50    O     0.29375   0.22678   0.25000   0.00000  Uiso   1.00
O51    O     0.29372   0.10654   0.25000   0.00000  Uiso   1.00
O52    O     0.03961   0.22679   0.24999   0.00000  Uiso   1.00
O53    O     0.01852   0.16668   0.31491   0.00000  Uiso   1.00
O54    O     0.31481   0.16666   0.18508   0.00000  Uiso   1.00
O55    O     0.27267   0.16667   0.31492   0.00000  Uiso   1.00
O56    O     0.06067   0.16667   0.18508   0.00000  Uiso   1.00
I57    I     0.11320   0.09903   0.11964   0.00000  Uiso   1.00
I58    I     0.22013   0.23431   0.38035   0.00000  Uiso   1.00
O59    O     0.27250   0.04224   0.20777   0.00000  Uiso   1.00
C60    C     0.22414   0.02703   0.22039   0.00000  Uiso   1.00
H61    H     0.20041   0.05160   0.21360   0.00000  Uiso   1.00
H62    H     0.21099   0.01871   0.25697   0.00000  Uiso   1.00
H63    H     0.22013   0.00025   0.19966   0.00000  Uiso   1.00
O64    O     0.06084   0.29109   0.29223   0.00000  Uiso   1.00
C65    C     0.10919   0.30630   0.27961   0.00000  Uiso   1.00
H66    H     0.12234   0.31462   0.24303   0.00000  Uiso   1.00
H67    H     0.13292   0.28173   0.28640   0.00000  Uiso   1.00
H68    H     0.11320   0.33308   0.30034   0.00000  Uiso   1.00
I69    I     0.19696   0.09768   0.32519   0.00000  Uiso   1.00
I70    I     0.13637   0.23565   0.17481   0.00000  Uiso   1.00
C71    C     0.66645   0.08744   0.24960   0.00000  Uiso   1.00
C72    C     0.33355   0.24589   0.25040   0.00000  Uiso   1.00
C73    C     0.52660   0.15773   0.04780   0.00000  Uiso   1.00
C74    C     0.47340   0.17561   0.45220   0.00000  Uiso   1.00
C75    C     0.57460   0.15029   0.02548   0.00000  Uiso   1.00
C76    C     0.42540   0.18305   0.47452   0.00000  Uiso   1.00
C77    C     0.63419   0.02088   0.23030   0.00000  Uiso   1.00
C78    C     0.36581   0.31245   0.26970   0.00000  Uiso   1.00
C79    C     0.63590   0.31122   0.23041   0.00000  Uiso   1.00
C80    C     0.36410   0.02211   0.26959   0.00000  Uiso   1.00
C81    C     0.33404   0.29056   0.25050   0.00000  Uiso   1.00
C82    C     0.66596   0.04278   0.24950   0.00000  Uiso   1.00
C83    C     0.51509   0.14068   0.27846   0.00000  Uiso   1.00
C84    C     0.48491   0.19265   0.22153   0.00000  Uiso   1.00
C85    C     0.46590   0.14095   0.27823   0.00000  Uiso   1.00
C86    C     0.53410   0.19238   0.22177   0.00000  Uiso   1.00
C87    C     0.63941   0.16728   0.33606   0.00000  Uiso   1.00
C88    C     0.36059   0.16606   0.16394   0.00000  Uiso   1.00
C89    C     0.62441   0.16604   0.38539   0.00000  Uiso   1.00
C90    C     0.37559   0.16730   0.11461   0.00000  Uiso   1.00
C91    C     0.63823   0.14411   0.45608   0.00000  Uiso   1.00
C92    C     0.36177   0.18922   0.04392   0.00000  Uiso   1.00
C93    C     0.65423   0.14810   0.40937   0.00000  Uiso   1.00
C94    C     0.34577   0.18524   0.09063   0.00000  Uiso   1.00
C95    C     0.57874   0.18062   0.40862   0.00000  Uiso   1.00
C96    C     0.42126   0.15272   0.09138   0.00000  Uiso   1.00
C97    C     0.55855   0.16831   0.45415   0.00000  Uiso   1.00
C98    C     0.44145   0.16502   0.04585   0.00000  Uiso   1.00
C99    C     0.59046   0.15377   0.47865   0.00000  Uiso   1.00
C100   C     0.40954   0.17956   0.02135   0.00000  Uiso   1.00
C101   C     0.50818   0.16998   0.47627   0.00000  Uiso   1.00
C102   C     0.49182   0.16335   0.02373   0.00000  Uiso   1.00
Cu103  Cu    0.38022   0.16667   0.25000   0.00000  Uiso   1.00
Cu104  Cu    0.61978   0.16666   0.25000   0.00000  Uiso   1.00
H105   H     0.59959   0.14265   0.04499   0.00000  Uiso   1.00
H106   H     0.40041   0.19068   0.45501   0.00000  Uiso   1.00
H107   H     0.64326   0.19567   0.10793   0.00000  Uiso   1.00
H108   H     0.35674   0.13766   0.39207   0.00000  Uiso   1.00
H109   H     0.66249   0.13195   0.47437   0.00000  Uiso   1.00
H110   H     0.33751   0.20138   0.02563   0.00000  Uiso   1.00
H111   H     0.51714   0.15886   0.08407   0.00000  Uiso   1.00
H112   H     0.48286   0.17447   0.41593   0.00000  Uiso   1.00
H113   H     0.61350   0.29378   0.21388   0.00000  Uiso   1.00
H114   H     0.38650   0.03955   0.28612   0.00000  Uiso   1.00
H115   H     0.43979   0.12042   0.30075   0.00000  Uiso   1.00
H116   H     0.56021   0.21291   0.19925   0.00000  Uiso   1.00
N117   N     0.45069   0.16668   0.24999   0.00000  Uiso   1.00
N118   N     0.54931   0.16666   0.25001   0.00000  Uiso   1.00
O119   O     0.37291   0.10655   0.25000   0.00000  Uiso   1.00
O120   O     0.62709   0.22678   0.25000   0.00000  Uiso   1.00
O121   O     0.62706   0.10654   0.25000   0.00000  Uiso   1.00
O122   O     0.37294   0.22679   0.24999   0.00000  Uiso   1.00
O123   O     0.35186   0.16668   0.31491   0.00000  Uiso   1.00
O124   O     0.64814   0.16666   0.18508   0.00000  Uiso   1.00
O125   O     0.60600   0.16667   0.31492   0.00000  Uiso   1.00
O126   O     0.39400   0.16667   0.18508   0.00000  Uiso   1.00
I127   I     0.44653   0.09903   0.11964   0.00000  Uiso   1.00
I128   I     0.55347   0.23431   0.38035   0.00000  Uiso   1.00
O129   O     0.60583   0.04224   0.20777   0.00000  Uiso   1.00
C130   C     0.55747   0.02703   0.22039   0.00000  Uiso   1.00
H131   H     0.53375   0.05160   0.21360   0.00000  Uiso   1.00
H132   H     0.54433   0.01871   0.25697   0.00000  Uiso   1.00
H133   H     0.55347   0.00025   0.19966   0.00000  Uiso   1.00
O134   O     0.39417   0.29109   0.29223   0.00000  Uiso   1.00
C135   C     0.44253   0.30630   0.27961   0.00000  Uiso   1.00
H136   H     0.45567   0.31462   0.24303   0.00000  Uiso   1.00
H137   H     0.46625   0.28173   0.28640   0.00000  Uiso   1.00
H138   H     0.44653   0.33308   0.30034   0.00000  Uiso   1.00
I139   I     0.53030   0.09768   0.32519   0.00000  Uiso   1.00
I140   I     0.46970   0.23565   0.17481   0.00000  Uiso   1.00
C141   C     0.99978   0.08744   0.24960   0.00000  Uiso   1.00
C142   C     0.66689   0.24589   0.25040   0.00000  Uiso   1.00
C143   C     0.85993   0.15773   0.04780   0.00000  Uiso   1.00
C144   C     0.80674   0.17561   0.45220   0.00000  Uiso   1.00
C145   C     0.90793   0.15029   0.02548   0.00000  Uiso   1.00
C146   C     0.75873   0.18305   0.47452   0.00000  Uiso   1.00
C147   C     0.96752   0.02088   0.23030   0.00000  Uiso   1.00
C148   C     0.69914   0.31245   0.26970   0.00000  Uiso   1.00
C149   C     0.96924   0.31122   0.23041   0.00000  Uiso   1.00
C150   C     0.69743   0.02211   0.26959   0.00000  Uiso   1.00
C151   C     0.66737   0.29056   0.25050   0.00000  Uiso   1.00
C152   C     0.99929   0.04278   0.24950   0.00000  Uiso   1.00
C153   C     0.84843   0.14068   0.27846   0.00000  Uiso   1.00
C154   C     0.81824   0.19265   0.22153   0.00000  Uiso   1.00
C155   C     0.79923   0.14095   0.27823   0.00000  Uiso   1.00
C156   C     0.86743   0.19238   0.22177   0.00000  Uiso   1.00
C157   C     0.97275   0.16728   0.33606   0.00000  Uiso   1.00
C158   C     0.69392   0.16606   0.16394   0.00000  Uiso   1.00
C159   C     0.95775   0.16604   0.38539   0.00000  Uiso   1.00
C160   C     0.70892   0.16730   0.11461   0.00000  Uiso   1.00
C161   C     0.97156   0.14411   0.45608   0.00000  Uiso   1.00
C162   C     0.69510   0.18922   0.04392   0.00000  Uiso   1.00
C163   C     0.98756   0.14810   0.40937   0.00000  Uiso   1.00
C164   C     0.67910   0.18524   0.09063   0.00000  Uiso   1.00
C165   C     0.91208   0.18062   0.40862   0.00000  Uiso   1.00
C166   C     0.75459   0.15272   0.09138   0.00000  Uiso   1.00
C167   C     0.89188   0.16831   0.45415   0.00000  Uiso   1.00
C168   C     0.77479   0.16502   0.04585   0.00000  Uiso   1.00
C169   C     0.92379   0.15377   0.47865   0.00000  Uiso   1.00
C170   C     0.74288   0.17956   0.02135   0.00000  Uiso   1.00
C171   C     0.84151   0.16998   0.47627   0.00000  Uiso   1.00
C172   C     0.82516   0.16335   0.02373   0.00000  Uiso   1.00
Cu173  Cu    0.71355   0.16667   0.25000   0.00000  Uiso   1.00
Cu174  Cu    0.95311   0.16666   0.25000   0.00000  Uiso   1.00
H175   H     0.93293   0.14265   0.04499   0.00000  Uiso   1.00
H176   H     0.73374   0.19068   0.45501   0.00000  Uiso   1.00
H177   H     0.97659   0.19567   0.10793   0.00000  Uiso   1.00
H178   H     0.69007   0.13766   0.39207   0.00000  Uiso   1.00
H179   H     0.99583   0.13195   0.47437   0.00000  Uiso   1.00
H180   H     0.67084   0.20138   0.02563   0.00000  Uiso   1.00
H181   H     0.85047   0.15886   0.08407   0.00000  Uiso   1.00
H182   H     0.81620   0.17447   0.41593   0.00000  Uiso   1.00
H183   H     0.94683   0.29378   0.21388   0.00000  Uiso   1.00
H184   H     0.71983   0.03955   0.28612   0.00000  Uiso   1.00
H185   H     0.77313   0.12042   0.30075   0.00000  Uiso   1.00
H186   H     0.89354   0.21291   0.19925   0.00000  Uiso   1.00
N187   N     0.78403   0.16668   0.24999   0.00000  Uiso   1.00
N188   N     0.88264   0.16666   0.25001   0.00000  Uiso   1.00
O189   O     0.70625   0.10655   0.25000   0.00000  Uiso   1.00
O190   O     0.96042   0.22678   0.25000   0.00000  Uiso   1.00
O191   O     0.96039   0.10654   0.25000   0.00000  Uiso   1.00
O192   O     0.70628   0.22679   0.24999   0.00000  Uiso   1.00
O193   O     0.68519   0.16668   0.31491   0.00000  Uiso   1.00
O194   O     0.98148   0.16666   0.18508   0.00000  Uiso   1.00
O195   O     0.93933   0.16667   0.31492   0.00000  Uiso   1.00
O196   O     0.72733   0.16667   0.18508   0.00000  Uiso   1.00
I197   I     0.77987   0.09903   0.11964   0.00000  Uiso   1.00
I198   I     0.88680   0.23431   0.38035   0.00000  Uiso   1.00
O199   O     0.93916   0.04224   0.20777   0.00000  Uiso   1.00
C200   C     0.89081   0.02703   0.22039   0.00000  Uiso   1.00
H201   H     0.86708   0.05160   0.21360   0.00000  Uiso   1.00
H202   H     0.87766   0.01871   0.25697   0.00000  Uiso   1.00
H203   H     0.88680   0.00025   0.19966   0.00000  Uiso   1.00
O204   O     0.72750   0.29109   0.29223   0.00000  Uiso   1.00
C205   C     0.77586   0.30630   0.27961   0.00000  Uiso   1.00
H206   H     0.78900   0.31462   0.24303   0.00000  Uiso   1.00
H207   H     0.79959   0.28173   0.28640   0.00000  Uiso   1.00
H208   H     0.77987   0.33308   0.30034   0.00000  Uiso   1.00
I209   I     0.86363   0.09768   0.32519   0.00000  Uiso   1.00
I210   I     0.80304   0.23565   0.17481   0.00000  Uiso   1.00
C211   C     0.33311   0.42078   0.24960   0.00000  Uiso   1.00
C212   C     0.00022   0.57922   0.25040   0.00000  Uiso   1.00
C213   C     0.19326   0.49106   0.04780   0.00000  Uiso   1.00
C214   C     0.14007   0.50894   0.45220   0.00000  Uiso   1.00
C215   C     0.24127   0.48362   0.02548   0.00000  Uiso   1.00
C216   C     0.09207   0.51638   0.47452   0.00000  Uiso   1.00
C217   C     0.30086   0.35421   0.23030   0.00000  Uiso   1.00
C218   C     0.03247   0.64579   0.26970   0.00000  Uiso   1.00
C219   C     0.30257   0.64456   0.23041   0.00000  Uiso   1.00
C220   C     0.03076   0.35544   0.26959   0.00000  Uiso   1.00
C221   C     0.00071   0.62389   0.25050   0.00000  Uiso   1.00
C222   C     0.33263   0.37611   0.24950   0.00000  Uiso   1.00
C223   C     0.18176   0.47401   0.27846   0.00000  Uiso   1.00
C224   C     0.15157   0.52599   0.22153   0.00000  Uiso   1.00
C225   C     0.13257   0.47429   0.27823   0.00000  Uiso   1.00
C226   C     0.20077   0.52571   0.22177   0.00000  Uiso   1.00
C227   C     0.30608   0.50061   0.33606   0.00000  Uiso   1.00
C228   C     0.02725   0.49939   0.16394   0.00000  Uiso   1.00
C229   C     0.29108   0.49937   0.38539   0.00000  Uiso   1.00
C230   C     0.04225   0.50063   0.11461   0.00000  Uiso   1.00
C231   C     0.30490   0.47744   0.45608   0.00000  Uiso   1.00
C232   C     0.02844   0.52256   0.04392   0.00000  Uiso   1.00
C233   C     0.32090   0.48143   0.40937   0.00000  Uiso   1.00
C234   C     0.01244   0.51857   0.09063   0.00000  Uiso   1.00
C235   C     0.24541   0.51395   0.40862   0.00000  Uiso   1.00
C236   C     0.08792   0.48605   0.09138   0.00000  Uiso   1.00
C237   C     0.22521   0.50165   0.45415   0.00000  Uiso   1.00
C238   C     0.10812   0.49835   0.04585   0.00000  Uiso   1.00
C239   C     0.25712   0.48710   0.47865   0.00000  Uiso   1.00
C240   C     0.07621   0.51290   0.02135   0.00000  Uiso   1.00
C241   C     0.17484   0.50332   0.47627   0.00000  Uiso   1.00
C242   C     0.15849   0.49668   0.02373   0.00000  Uiso   1.00
Cu243  Cu    0.04689   0.50001   0.25000   0.00000  Uiso   1.00
Cu244  Cu    0.28645   0.49999   0.25000   0.00000  Uiso   1.00
H245   H     0.26626   0.47599   0.04499   0.00000  Uiso   1.00
H246   H     0.06707   0.52401   0.45501   0.00000  Uiso   1.00
H247   H     0.30993   0.52900   0.10793   0.00000  Uiso   1.00
H248   H     0.02340   0.47100   0.39207   0.00000  Uiso   1.00
H249   H     0.32916   0.46529   0.47437   0.00000  Uiso   1.00
H250   H     0.00417   0.53471   0.02563   0.00000  Uiso   1.00
H251   H     0.18380   0.49219   0.08407   0.00000  Uiso   1.00
H252   H     0.14953   0.50781   0.41593   0.00000  Uiso   1.00
H253   H     0.28017   0.62711   0.21388   0.00000  Uiso   1.00
H254   H     0.05317   0.37289   0.28612   0.00000  Uiso   1.00
H255   H     0.10646   0.45375   0.30075   0.00000  Uiso   1.00
H256   H     0.22687   0.54625   0.19925   0.00000  Uiso   1.00
N257   N     0.11736   0.50001   0.24999   0.00000  Uiso   1.00
N258   N     0.21597   0.49999   0.25001   0.00000  Uiso   1.00
O259   O     0.03958   0.43989   0.25000   0.00000  Uiso   1.00
O260   O     0.29375   0.56011   0.25000   0.00000  Uiso   1.00
O261   O     0.29372   0.43988   0.25000   0.00000  Uiso   1.00
O262   O     0.03961   0.56012   0.24999   0.00000  Uiso   1.00
O263   O     0.01852   0.50001   0.31491   0.00000  Uiso   1.00
O264   O     0.31481   0.49999   0.18508   0.00000  Uiso   1.00
O265   O     0.27267   0.50000   0.31492   0.00000  Uiso   1.00
O266   O     0.06067   0.50000   0.18508   0.00000  Uiso   1.00
I267   I     0.11320   0.43236   0.11964   0.00000  Uiso   1.00
I268   I     0.22013   0.56764   0.38035   0.00000  Uiso   1.00
O269   O     0.27250   0.37557   0.20777   0.00000  Uiso   1.00
C270   C     0.22414   0.36036   0.22039   0.00000  Uiso   1.00
H271   H     0.20041   0.38493   0.21360   0.00000  Uiso   1.00
H272   H     0.21099   0.35205   0.25697   0.00000  Uiso   1.00
H273   H     0.22013   0.33359   0.19966   0.00000  Uiso   1.00
O274   O     0.06084   0.62443   0.29223   0.00000  Uiso   1.00
C275   C     0.10919   0.63964   0.27961   0.00000  Uiso   1.00
H276   H     0.12234   0.64795   0.24303   0.00000  Uiso   1.00
H277   H     0.13292   0.61507   0.28640   0.00000  Uiso   1.00
H278   H     0.11320   0.66641   0.30034   0.00000  Uiso   1.00
I279   I     0.19696   0.43101   0.32519   0.00000  Uiso   1.00
I280   I     0.13637   0.56899   0.17481   0.00000  Uiso   1.00
C281   C     0.66645   0.42078   0.24960   0.00000  Uiso   1.00
C282   C     0.33355   0.57922   0.25040   0.00000  Uiso   1.00
C283   C     0.52660   0.49106   0.04780   0.00000  Uiso   1.00
C284   C     0.47340   0.50894   0.45220   0.00000  Uiso   1.00
C285   C     0.57460   0.48362   0.02548   0.00000  Uiso   1.00
C286   C     0.42540   0.51638   0.47452   0.00000  Uiso   1.00
C287   C     0.63419   0.35421   0.23030   0.00000  Uiso   1.00
C288   C     0.36581   0.64579   0.26970   0.00000  Uiso   1.00
C289   C     0.63590   0.64456   0.23041   0.00000  Uiso   1.00
C290   C     0.36410   0.35544   0.26959   0.00000  Uiso   1.00
C291   C     0.33404   0.62389   0.25050   0.00000  Uiso   1.00
C292   C     0.66596   0.37611   0.24950   0.00000  Uiso   1.00
C293   C     0.51509   0.47401   0.27846   0.00000  Uiso   1.00
C294   C     0.48491   0.52599   0.22153   0.00000  Uiso   1.00
C295   C     0.46590   0.47429   0.27823   0.00000  Uiso   1.00
C296   C     0.53410   0.52571   0.22177   0.00000  Uiso   1.00
C297   C     0.63941   0.50061   0.33606   0.00000  Uiso   1.00
C298   C     0.36059   0.49939   0.16394   0.00000  Uiso   1.00
C299   C     0.62441   0.49937   0.38539   0.00000  Uiso   1.00
C300   C     0.37559   0.50063   0.11461   0.00000  Uiso   1.00
C301   C     0.63823   0.47744   0.45608   0.00000  Uiso   1.00
C302   C     0.36177   0.52256   0.04392   0.00000  Uiso   1.00
C303   C     0.65423   0.48143   0.40937   0.00000  Uiso   1.00
C304   C     0.34577   0.51857   0.09063   0.00000  Uiso   1.00
C305   C     0.57874   0.51395   0.40862   0.00000  Uiso   1.00
C306   C     0.42126   0.48605   0.09138   0.00000  Uiso   1.00
C307   C     0.55855   0.50165   0.45415   0.00000  Uiso   1.00
C308   C     0.44145   0.49835   0.04585   0.00000  Uiso   1.00
C309   C     0.59046   0.48710   0.47865   0.00000  Uiso   1.00
C310   C     0.40954   0.51290   0.02135   0.00000  Uiso   1.00
C311   C     0.50818   0.50332   0.47627   0.00000  Uiso   1.00
C312   C     0.49182   0.49668   0.02373   0.00000  Uiso   1.00
Cu313  Cu    0.38022   0.50001   0.25000   0.00000  Uiso   1.00
Cu314  Cu    0.61978   0.49999   0.25000   0.00000  Uiso   1.00
H315   H     0.59959   0.47599   0.04499   0.00000  Uiso   1.00
H316   H     0.40041   0.52401   0.45501   0.00000  Uiso   1.00
H317   H     0.64326   0.52900   0.10793   0.00000  Uiso   1.00
H318   H     0.35674   0.47100   0.39207   0.00000  Uiso   1.00
H319   H     0.66249   0.46529   0.47437   0.00000  Uiso   1.00
H320   H     0.33751   0.53471   0.02563   0.00000  Uiso   1.00
H321   H     0.51714   0.49219   0.08407   0.00000  Uiso   1.00
H322   H     0.48286   0.50781   0.41593   0.00000  Uiso   1.00
H323   H     0.61350   0.62711   0.21388   0.00000  Uiso   1.00
H324   H     0.38650   0.37289   0.28612   0.00000  Uiso   1.00
H325   H     0.43979   0.45375   0.30075   0.00000  Uiso   1.00
H326   H     0.56021   0.54625   0.19925   0.00000  Uiso   1.00
N327   N     0.45069   0.50001   0.24999   0.00000  Uiso   1.00
N328   N     0.54931   0.49999   0.25001   0.00000  Uiso   1.00
O329   O     0.37291   0.43989   0.25000   0.00000  Uiso   1.00
O330   O     0.62709   0.56011   0.25000   0.00000  Uiso   1.00
O331   O     0.62706   0.43988   0.25000   0.00000  Uiso   1.00
O332   O     0.37294   0.56012   0.24999   0.00000  Uiso   1.00
O333   O     0.35186   0.50001   0.31491   0.00000  Uiso   1.00
O334   O     0.64814   0.49999   0.18508   0.00000  Uiso   1.00
O335   O     0.60600   0.50000   0.31492   0.00000  Uiso   1.00
O336   O     0.39400   0.50000   0.18508   0.00000  Uiso   1.00
I337   I     0.44653   0.43236   0.11964   0.00000  Uiso   1.00
I338   I     0.55347   0.56764   0.38035   0.00000  Uiso   1.00
O339   O     0.60583   0.37557   0.20777   0.00000  Uiso   1.00
C340   C     0.55747   0.36036   0.22039   0.00000  Uiso   1.00
H341   H     0.53375   0.38493   0.21360   0.00000  Uiso   1.00
H342   H     0.54433   0.35205   0.25697   0.00000  Uiso   1.00
H343   H     0.55347   0.33359   0.19966   0.00000  Uiso   1.00
O344   O     0.39417   0.62443   0.29223   0.00000  Uiso   1.00
C345   C     0.44253   0.63964   0.27961   0.00000  Uiso   1.00
H346   H     0.45567   0.64795   0.24303   0.00000  Uiso   1.00
H347   H     0.46625   0.61507   0.28640   0.00000  Uiso   1.00
H348   H     0.44653   0.66641   0.30034   0.00000  Uiso   1.00
I349   I     0.53030   0.43101   0.32519   0.00000  Uiso   1.00
I350   I     0.46970   0.56899   0.17481   0.00000  Uiso   1.00
C351   C     0.99978   0.42078   0.24960   0.00000  Uiso   1.00
C352   C     0.66689   0.57922   0.25040   0.00000  Uiso   1.00
C353   C     0.85993   0.49106   0.04780   0.00000  Uiso   1.00
C354   C     0.80674   0.50894   0.45220   0.00000  Uiso   1.00
C355   C     0.90793   0.48362   0.02548   0.00000  Uiso   1.00
C356   C     0.75873   0.51638   0.47452   0.00000  Uiso   1.00
C357   C     0.96752   0.35421   0.23030   0.00000  Uiso   1.00
C358   C     0.69914   0.64579   0.26970   0.00000  Uiso   1.00
C359   C     0.96924   0.64456   0.23041   0.00000  Uiso   1.00
C360   C     0.69743   0.35544   0.26959   0.00000  Uiso   1.00
C361   C     0.66737   0.62389   0.25050   0.00000  Uiso   1.00
C362   C     0.99929   0.37611   0.24950   0.00000  Uiso   1.00
C363   C     0.84843   0.47401   0.27846   0.00000  Uiso   1.00
C364   C     0.81824   0.52599   0.22153   0.00000  Uiso   1.00
C365   C     0.79923   0.47429   0.27823   0.00000  Uiso   1.00
C366   C     0.86743   0.52571   0.22177   0.00000  Uiso   1.00
C367   C     0.97275   0.50061   0.33606   0.00000  Uiso   1.00
C368   C     0.69392   0.49939   0.16394   0.00000  Uiso   1.00
C369   C     0.95775   0.49937   0.38539   0.00000  Uiso   1.00
C370   C     0.70892   0.50063   0.11461   0.00000  Uiso   1.00
C371   C     0.97156   0.47744   0.45608   0.00000  Uiso   1.00
C372   C     0.69510   0.52256   0.04392   0.00000  Uiso   1.00
C373   C     0.98756   0.48143   0.40937   0.00000  Uiso   1.00
C374   C     0.67910   0.51857   0.09063   0.00000  Uiso   1.00
C375   C     0.91208   0.51395   0.40862   0.00000  Uiso   1.00
C376   C     0.75459   0.48605   0.09138   0.00000  Uiso   1.00
C377   C     0.89188   0.50165   0.45415   0.00000  Uiso   1.00
C378   C     0.77479   0.49835   0.04585   0.00000  Uiso   1.00
C379   C     0.92379   0.48710   0.47865   0.00000  Uiso   1.00
C380   C     0.74288   0.51290   0.02135   0.00000  Uiso   1.00
C381   C     0.84151   0.50332   0.47627   0.00000  Uiso   1.00
C382   C     0.82516   0.49668   0.02373   0.00000  Uiso   1.00
Cu383  Cu    0.71355   0.50001   0.25000   0.00000  Uiso   1.00
Cu384  Cu    0.95311   0.49999   0.25000   0.00000  Uiso   1.00
H385   H     0.93293   0.47599   0.04499   0.00000  Uiso   1.00
H386   H     0.73374   0.52401   0.45501   0.00000  Uiso   1.00
H387   H     0.97659   0.52900   0.10793   0.00000  Uiso   1.00
H388   H     0.69007   0.47100   0.39207   0.00000  Uiso   1.00
H389   H     0.99583   0.46529   0.47437   0.00000  Uiso   1.00
H390   H     0.67084   0.53471   0.02563   0.00000  Uiso   1.00
H391   H     0.85047   0.49219   0.08407   0.00000  Uiso   1.00
H392   H     0.81620   0.50781   0.41593   0.00000  Uiso   1.00
H393   H     0.94683   0.62711   0.21388   0.00000  Uiso   1.00
H394   H     0.71983   0.37289   0.28612   0.00000  Uiso   1.00
H395   H     0.77313   0.45375   0.30075   0.00000  Uiso   1.00
H396   H     0.89354   0.54625   0.19925   0.00000  Uiso   1.00
N397   N     0.78403   0.50001   0.24999   0.00000  Uiso   1.00
N398   N     0.88264   0.49999   0.25001   0.00000  Uiso   1.00
O399   O     0.70625   0.43989   0.25000   0.00000  Uiso   1.00
O400   O     0.96042   0.56011   0.25000   0.00000  Uiso   1.00
O401   O     0.96039   0.43988   0.25000   0.00000  Uiso   1.00
O402   O     0.70628   0.56012   0.24999   0.00000  Uiso   1.00
O403   O     0.68519   0.50001   0.31491   0.00000  Uiso   1.00
O404   O     0.98148   0.49999   0.18508   0.00000  Uiso   1.00
O405   O     0.93933   0.50000   0.31492   0.00000  Uiso   1.00
O406   O     0.72733   0.50000   0.18508   0.00000  Uiso   1.00
I407   I     0.77987   0.43236   0.11964   0.00000  Uiso   1.00
I408   I     0.88680   0.56764   0.38035   0.00000  Uiso   1.00
O409   O     0.93916   0.37557   0.20777   0.00000  Uiso   1.00
C410   C     0.89081   0.36036   0.22039   0.00000  Uiso   1.00
H411   H     0.86708   0.38493   0.21360   0.00000  Uiso   1.00
H412   H     0.87766   0.35205   0.25697   0.00000  Uiso   1.00
H413   H     0.88680   0.33359   0.19966   0.00000  Uiso   1.00
O414   O     0.72750   0.62443   0.29223   0.00000  Uiso   1.00
C415   C     0.77586   0.63964   0.27961   0.00000  Uiso   1.00
H416   H     0.78900   0.64795   0.24303   0.00000  Uiso   1.00
H417   H     0.79959   0.61507   0.28640   0.00000  Uiso   1.00
H418   H     0.77987   0.66641   0.30034   0.00000  Uiso   1.00
I419   I     0.86363   0.43101   0.32519   0.00000  Uiso   1.00
I420   I     0.80304   0.56899   0.17481   0.00000  Uiso   1.00
C421   C     0.33311   0.75411   0.24960   0.00000  Uiso   1.00
C422   C     0.00022   0.91256   0.25040   0.00000  Uiso   1.00
C423   C     0.19326   0.82439   0.04780   0.00000  Uiso   1.00
C424   C     0.14007   0.84227   0.45220   0.00000  Uiso   1.00
C425   C     0.24127   0.81695   0.02548   0.00000  Uiso   1.00
C426   C     0.09207   0.84971   0.47452   0.00000  Uiso   1.00
C427   C     0.30086   0.68755   0.23030   0.00000  Uiso   1.00
C428   C     0.03247   0.97912   0.26970   0.00000  Uiso   1.00
C429   C     0.30257   0.97789   0.23041   0.00000  Uiso   1.00
C430   C     0.03076   0.68878   0.26959   0.00000  Uiso   1.00
C431   C     0.00071   0.95722   0.25050   0.00000  Uiso   1.00
C432   C     0.33263   0.70944   0.24950   0.00000  Uiso   1.00
C433   C     0.18176   0.80735   0.27846   0.00000  Uiso   1.00
C434   C     0.15157   0.85932   0.22153   0.00000  Uiso   1.00
C435   C     0.13257   0.80762   0.27823   0.00000  Uiso   1.00
C436   C     0.20077   0.85905   0.22177   0.00000  Uiso   1.00
C437   C     0.30608   0.83395   0.33606   0.00000  Uiso   1.00
C438   C     0.02725   0.83272   0.16394   0.00000  Uiso   1.00
C439   C     0.29108   0.83270   0.38539   0.00000  Uiso   1.00
C440   C     0.04225   0.83396   0.11461   0.00000  Uiso   1.00
C441   C     0.30490   0.81078   0.45608   0.00000  Uiso   1.00
C442   C     0.02844   0.85589   0.04392   0.00000  Uiso   1.00
C443   C     0.32090   0.81476   0.40937   0.00000  Uiso   1.00
C444   C     0.01244   0.85190   0.09063   0.00000  Uiso   1.00
C445   C     0.24541   0.84728   0.40862   0.00000  Uiso   1.00
C446   C     0.08792   0.81938   0.09138   0.00000  Uiso   1.00
C447   C     0.22521   0.83498   0.45415   0.00000  Uiso   1.00
C448   C     0.10812   0.83169   0.04585   0.00000  Uiso   1.00
C449   C     0.25712   0.82044   0.47865   0.00000  Uiso   1.00
C450   C     0.07621   0.84623   0.02135   0.00000  Uiso   1.00
C451   C     0.17484   0.83665   0.47627   0.00000  Uiso   1.00
C452   C     0.15849   0.83002   0.02373   0.00000  Uiso   1.00
Cu453  Cu    0.04689   0.83334   0.25000   0.00000  Uiso   1.00
Cu454  Cu    0.28645   0.83333   0.25000   0.00000  Uiso   1.00
H455   H     0.26626   0.80932   0.04499   0.00000  Uiso   1.00
H456   H     0.06707   0.85735   0.45501   0.00000  Uiso   1.00
H457   H     0.30993   0.86234   0.10793   0.00000  Uiso   1.00
H458   H     0.02340   0.80433   0.39207   0.00000  Uiso   1.00
H459   H     0.32916   0.79862   0.47437   0.00000  Uiso   1.00
H460   H     0.00417   0.86805   0.02563   0.00000  Uiso   1.00
H461   H     0.18380   0.82553   0.08407   0.00000  Uiso   1.00
H462   H     0.14953   0.84114   0.41593   0.00000  Uiso   1.00
H463   H     0.28017   0.96045   0.21388   0.00000  Uiso   1.00
H464   H     0.05317   0.70622   0.28612   0.00000  Uiso   1.00
H465   H     0.10646   0.78709   0.30075   0.00000  Uiso   1.00
H466   H     0.22687   0.87958   0.19925   0.00000  Uiso   1.00
N467   N     0.11736   0.83334   0.24999   0.00000  Uiso   1.00
N468   N     0.21597   0.83332   0.25001   0.00000  Uiso   1.00
O469   O     0.03958   0.77322   0.25000   0.00000  Uiso   1.00
O470   O     0.29375   0.89345   0.25000   0.00000  Uiso   1.00
O471   O     0.29372   0.77321   0.25000   0.00000  Uiso   1.00
O472   O     0.03961   0.89346   0.24999   0.00000  Uiso   1.00
O473   O     0.01852   0.83334   0.31491   0.00000  Uiso   1.00
O474   O     0.31481   0.83332   0.18508   0.00000  Uiso   1.00
O475   O     0.27267   0.83333   0.31492   0.00000  Uiso   1.00
O476   O     0.06067   0.83333   0.18508   0.00000  Uiso   1.00
I477   I     0.11320   0.76569   0.11964   0.00000  Uiso   1.00
I478   I     0.22013   0.90097   0.38035   0.00000  Uiso   1.00
O479   O     0.27250   0.70891   0.20777   0.00000  Uiso   1.00
C480   C     0.22414   0.69370   0.22039   0.00000  Uiso   1.00
H481   H     0.20041   0.71827   0.21360   0.00000  Uiso   1.00
H482   H     0.21099   0.68538   0.25697   0.00000  Uiso   1.00
H483   H     0.22013   0.66692   0.19966   0.00000  Uiso   1.00
O484   O     0.06084   0.95776   0.29223   0.00000  Uiso   1.00
C485   C     0.10919   0.97297   0.27961   0.00000  Uiso   1.00
H486   H     0.12234   0.98129   0.24303   0.00000  Uiso   1.00
H487   H     0.13292   0.94840   0.28640   0.00000  Uiso   1.00
H488   H     0.11320   0.99975   0.30034   0.00000  Uiso   1.00
I489   I     0.19696   0.76435   0.32519   0.00000  Uiso   1.00
I490   I     0.13637   0.90232   0.17481   0.00000  Uiso   1.00
C491   C     0.66645   0.75411   0.24960   0.00000  Uiso   1.00
C492   C     0.33355   0.91256   0.25040   0.00000  Uiso   1.00
C493   C     0.52660   0.82439   0.04780   0.00000  Uiso   1.00
C494   C     0.47340   0.84227   0.45220   0.00000  Uiso   1.00
C495   C     0.57460   0.81695   0.02548   0.00000  Uiso   1.00
C496   C     0.42540   0.84971   0.47452   0.00000  Uiso   1.00
C497   C     0.63419   0.68755   0.23030   0.00000  Uiso   1.00
C498   C     0.36581   0.97912   0.26970   0.00000  Uiso   1.00
C499   C     0.63590   0.97789   0.23041   0.00000  Uiso   1.00
C500   C     0.36410   0.68878   0.26959   0.00000  Uiso   1.00
C501   C     0.33404   0.95722   0.25050   0.00000  Uiso   1.00
C502   C     0.66596   0.70944   0.24950   0.00000  Uiso   1.00
C503   C     0.51509   0.80735   0.27846   0.00000  Uiso   1.00
C504   C     0.48491   0.85932   0.22153   0.00000  Uiso   1.00
C505   C     0.46590   0.80762   0.27823   0.00000  Uiso   1.00
C506   C     0.53410   0.85905   0.22177   0.00000  Uiso   1.00
C507   C     0.63941   0.83395   0.33606   0.00000  Uiso   1.00
C508   C     0.36059   0.83272   0.16394   0.00000  Uiso   1.00
C509   C     0.62441   0.83270   0.38539   0.00000  Uiso   1.00
C510   C     0.37559   0.83396   0.11461   0.00000  Uiso   1.00
C511   C     0.63823   0.81078   0.45608   0.00000  Uiso   1.00
C512   C     0.36177   0.85589   0.04392   0.00000  Uiso   1.00
C513   C     0.65423   0.81476   0.40937   0.00000  Uiso   1.00
C514   C     0.34577   0.85190   0.09063   0.00000  Uiso   1.00
C515   C     0.57874   0.84728   0.40862   0.00000  Uiso   1.00
C516   C     0.42126   0.81938   0.09138   0.00000  Uiso   1.00
C517   C     0.55855   0.83498   0.45415   0.00000  Uiso   1.00
C518   C     0.44145   0.83169   0.04585   0.00000  Uiso   1.00
C519   C     0.59046   0.82044   0.47865   0.00000  Uiso   1.00
C520   C     0.40954   0.84623   0.02135   0.00000  Uiso   1.00
C521   C     0.50818   0.83665   0.47627   0.00000  Uiso   1.00
C522   C     0.49182   0.83002   0.02373   0.00000  Uiso   1.00
Cu523  Cu    0.38022   0.83334   0.25000   0.00000  Uiso   1.00
Cu524  Cu    0.61978   0.83333   0.25000   0.00000  Uiso   1.00
H525   H     0.59959   0.80932   0.04499   0.00000  Uiso   1.00
H526   H     0.40041   0.85735   0.45501   0.00000  Uiso   1.00
H527   H     0.64326   0.86234   0.10793   0.00000  Uiso   1.00
H528   H     0.35674   0.80433   0.39207   0.00000  Uiso   1.00
H529   H     0.66249   0.79862   0.47437   0.00000  Uiso   1.00
H530   H     0.33751   0.86805   0.02563   0.00000  Uiso   1.00
H531   H     0.51714   0.82553   0.08407   0.00000  Uiso   1.00
H532   H     0.48286   0.84114   0.41593   0.00000  Uiso   1.00
H533   H     0.61350   0.96045   0.21388   0.00000  Uiso   1.00
H534   H     0.38650   0.70622   0.28612   0.00000  Uiso   1.00
H535   H     0.43979   0.78709   0.30075   0.00000  Uiso   1.00
H536   H     0.56021   0.87958   0.19925   0.00000  Uiso   1.00
N537   N     0.45069   0.83334   0.24999   0.00000  Uiso   1.00
N538   N     0.54931   0.83332   0.25001   0.00000  Uiso   1.00
O539   O     0.37291   0.77322   0.25000   0.00000  Uiso   1.00
O540   O     0.62709   0.89345   0.25000   0.00000  Uiso   1.00
O541   O     0.62706   0.77321   0.25000   0.00000  Uiso   1.00
O542   O     0.37294   0.89346   0.24999   0.00000  Uiso   1.00
O543   O     0.35186   0.83334   0.31491   0.00000  Uiso   1.00
O544   O     0.64814   0.83332   0.18508   0.00000  Uiso   1.00
O545   O     0.60600   0.83333   0.31492   0.00000  Uiso   1.00
O546   O     0.39400   0.83333   0.18508   0.00000  Uiso   1.00
I547   I     0.44653   0.76569   0.11964   0.00000  Uiso   1.00
I548   I     0.55347   0.90097   0.38035   0.00000  Uiso   1.00
O549   O     0.60583   0.70891   0.20777   0.00000  Uiso   1.00
C550   C     0.55747   0.69370   0.22039   0.00000  Uiso   1.00
H551   H     0.53375   0.71827   0.21360   0.00000  Uiso   1.00
H552   H     0.54433   0.68538   0.25697   0.00000  Uiso   1.00
H553   H     0.55347   0.66692   0.19966   0.00000  Uiso   1.00
O554   O     0.39417   0.95776   0.29223   0.00000  Uiso   1.00
C555   C     0.44253   0.97297   0.27961   0.00000  Uiso   1.00
H556   H     0.45567   0.98129   0.24303   0.00000  Uiso   1.00
H557   H     0.46625   0.94840   0.28640   0.00000  Uiso   1.00
H558   H     0.44653   0.99975   0.30034   0.00000  Uiso   1.00
I559   I     0.53030   0.76435   0.32519   0.00000  Uiso   1.00
I560   I     0.46970   0.90232   0.17481   0.00000  Uiso   1.00
C561   C     0.99978   0.75411   0.24960   0.00000  Uiso   1.00
C562   C     0.66689   0.91256   0.25040   0.00000  Uiso   1.00
C563   C     0.85993   0.82439   0.04780   0.00000  Uiso   1.00
C564   C     0.80674   0.84227   0.45220   0.00000  Uiso   1.00
C565   C     0.90793   0.81695   0.02548   0.00000  Uiso   1.00
C566   C     0.75873   0.84971   0.47452   0.00000  Uiso   1.00
C567   C     0.96752   0.68755   0.23030   0.00000  Uiso   1.00
C568   C     0.69914   0.97912   0.26970   0.00000  Uiso   1.00
C569   C     0.96924   0.97789   0.23041   0.00000  Uiso   1.00
C570   C     0.69743   0.68878   0.26959   0.00000  Uiso   1.00
C571   C     0.66737   0.95722   0.25050   0.00000  Uiso   1.00
C572   C     0.99929   0.70944   0.24950   0.00000  Uiso   1.00
C573   C     0.84843   0.80735   0.27846   0.00000  Uiso   1.00
C574   C     0.81824   0.85932   0.22153   0.00000  Uiso   1.00
C575   C     0.79923   0.80762   0.27823   0.00000  Uiso   1.00
C576   C     0.86743   0.85905   0.22177   0.00000  Uiso   1.00
C577   C     0.97275   0.83395   0.33606   0.00000  Uiso   1.00
C578   C     0.69392   0.83272   0.16394   0.00000  Uiso   1.00
C579   C     0.95775   0.83270   0.38539   0.00000  Uiso   1.00
C580   C     0.70892   0.83396   0.11461   0.00000  Uiso   1.00
C581   C     0.97156   0.81078   0.45608   0.00000  Uiso   1.00
C582   C     0.69510   0.85589   0.04392   0.00000  Uiso   1.00
C583   C     0.98756   0.81476   0.40937   0.00000  Uiso   1.00
C584   C     0.67910   0.85190   0.09063   0.00000  Uiso   1.00
C585   C     0.91208   0.84728   0.40862   0.00000  Uiso   1.00
C586   C     0.75459   0.81938   0.09138   0.00000  Uiso   1.00
C587   C     0.89188   0.83498   0.45415   0.00000  Uiso   1.00
C588   C     0.77479   0.83169   0.04585   0.00000  Uiso   1.00
C589   C     0.92379   0.82044   0.47865   0.00000  Uiso   1.00
C590   C     0.74288   0.84623   0.02135   0.00000  Uiso   1.00
C591   C     0.84151   0.83665   0.47627   0.00000  Uiso   1.00
C592   C     0.82516   0.83002   0.02373   0.00000  Uiso   1.00
Cu593  Cu    0.71355   0.83334   0.25000   0.00000  Uiso   1.00
Cu594  Cu    0.95311   0.83333   0.25000   0.00000  Uiso   1.00
H595   H     0.93293   0.80932   0.04499   0.00000  Uiso   1.00
H596   H     0.73374   0.85735   0.45501   0.00000  Uiso   1.00
H597   H     0.97659   0.86234   0.10793   0.00000  Uiso   1.00
H598   H     0.69007   0.80433   0.39207   0.00000  Uiso   1.00
H599   H     0.99583   0.79862   0.47437   0.00000  Uiso   1.00
H600   H     0.67084   0.86805   0.02563   0.00000  Uiso   1.00
H601   H     0.85047   0.82553   0.08407   0.00000  Uiso   1.00
H602   H     0.81620   0.84114   0.41593   0.00000  Uiso   1.00
H603   H     0.94683   0.96045   0.21388   0.00000  Uiso   1.00
H604   H     0.71983   0.70622   0.28612   0.00000  Uiso   1.00
H605   H     0.77313   0.78709   0.30075   0.00000  Uiso   1.00
H606   H     0.89354   0.87958   0.19925   0.00000  Uiso   1.00
N607   N     0.78403   0.83334   0.24999   0.00000  Uiso   1.00
N608   N     0.88264   0.83332   0.25001   0.00000  Uiso   1.00
O609   O     0.70625   0.77322   0.25000   0.00000  Uiso   1.00
O610   O     0.96042   0.89345   0.25000   0.00000  Uiso   1.00
O611   O     0.96039   0.77321   0.25000   0.00000  Uiso   1.00
O612   O     0.70628   0.89346   0.24999   0.00000  Uiso   1.00
O613   O     0.68519   0.83334   0.31491   0.00000  Uiso   1.00
O614   O     0.98148   0.83332   0.18508   0.00000  Uiso   1.00
O615   O     0.93933   0.83333   0.31492   0.00000  Uiso   1.00
O616   O     0.72733   0.83333   0.18508   0.00000  Uiso   1.00
I617   I     0.77987   0.76569   0.11964   0.00000  Uiso   1.00
I618   I     0.88680   0.90097   0.38035   0.00000  Uiso   1.00
O619   O     0.93916   0.70891   0.20777   0.00000  Uiso   1.00
C620   C     0.89081   0.69370   0.22039   0.00000  Uiso   1.00
H621   H     0.86708   0.71827   0.21360   0.00000  Uiso   1.00
H622   H     0.87766   0.68538   0.25697   0.00000  Uiso   1.00
H623   H     0.88680   0.66692   0.19966   0.00000  Uiso   1.00
O624   O     0.72750   0.95776   0.29223   0.00000  Uiso   1.00
C625   C     0.77586   0.97297   0.27961   0.00000  Uiso   1.00
H626   H     0.78900   0.98129   0.24303   0.00000  Uiso   1.00
H627   H     0.79959   0.94840   0.28640   0.00000  Uiso   1.00
H628   H     0.77987   0.99975   0.30034   0.00000  Uiso   1.00
I629   I     0.86363   0.76435   0.32519   0.00000  Uiso   1.00
I630   I     0.80304   0.90232   0.17481   0.00000  Uiso   1.00
C631   C     0.33311   0.08744   0.74960   0.00000  Uiso   1.00
C632   C     0.00022   0.24589   0.75040   0.00000  Uiso   1.00
C633   C     0.19326   0.15773   0.54780   0.00000  Uiso   1.00
C634   C     0.14007   0.17561   0.95220   0.00000  Uiso   1.00
C635   C     0.24127   0.15029   0.52548   0.00000  Uiso   1.00
C636   C     0.09207   0.18305   0.97452   0.00000  Uiso   1.00
C637   C     0.30086   0.02088   0.73030   0.00000  Uiso   1.00
C638   C     0.03247   0.31245   0.76970   0.00000  Uiso   1.00
C639   C     0.30257   0.31122   0.73041   0.00000  Uiso   1.00
C640   C     0.03076   0.02211   0.76959   0.00000  Uiso   1.00
C641   C     0.00071   0.29056   0.75050   0.00000  Uiso   1.00
C642   C     0.33263   0.04278   0.74950   0.00000  Uiso   1.00
C643   C     0.18176   0.14068   0.77846   0.00000  Uiso   1.00
C644   C     0.15157   0.19265   0.72153   0.00000  Uiso   1.00
C645   C     0.13257   0.14095   0.77823   0.00000  Uiso   1.00
C646   C     0.20077   0.19238   0.72177   0.00000  Uiso   1.00
C647   C     0.30608   0.16728   0.83606   0.00000  Uiso   1.00
C648   C     0.02725   0.16606   0.66394   0.00000  Uiso   1.00
C649   C     0.29108   0.16604   0.88539   0.00000  Uiso   1.00
C650   C     0.04225   0.16730   0.61461   0.00000  Uiso   1.00
C651   C     0.30490   0.14411   0.95608   0.00000  Uiso   1.00
C652   C     0.02844   0.18922   0.54392   0.00000  Uiso   1.00
C653   C     0.32090   0.14810   0.90937   0.00000  Uiso   1.00
C654   C     0.01244   0.18524   0.59063   0.00000  Uiso   1.00
C655   C     0.24541   0.18062   0.90862   0.00000  Uiso   1.00
C656   C     0.08792   0.15272   0.59138   0.00000  Uiso   1.00
C657   C     0.22521   0.16831   0.95415   0.00000  Uiso   1.00
C658   C     0.10812   0.16502   0.54585   0.00000  Uiso   1.00
C659   C     0.25712   0.15377   0.97865   0.00000  Uiso   1.00
C660   C     0.07621   0.17956   0.52135   0.00000  Uiso   1.00
C661   C     0.17484   0.16998   0.97627   0.00000  Uiso   1.00
C662   C     0.15849   0.16335   0.52373   0.00000  Uiso   1.00
Cu663  Cu    0.04689   0.16667   0.75000   0.00000  Uiso   1.00
Cu664  Cu    0.28645   0.16666   0.75000   0.00000  Uiso   1.00
H665   H     0.26626   0.14265   0.54499   0.00000  Uiso   1.00
H666   H     0.06707   0.19068   0.95501   0.00000  Uiso   1.00
H667   H     0.30993   0.19567   0.60793   0.00000  Uiso   1.00
H668   H     0.02340   0.13766   0.89207   0.00000  Uiso   1.00
H669   H     0.32916   0.13195   0.97437   0.00000  Uiso   1.00
H670   H     0.00417   0.20138   0.52563   0.00000  Uiso   1.00
H671   H     0.18380   0.15886   0.58407   0.00000  Uiso   1.00
H672   H     0.14953   0.17447   0.91593   0.00000  Uiso   1.00
H673   H     0.28017   0.29378   0.71388   0.00000  Uiso   1.00
H674   H     0.05317   0.03955   0.78612   0.00000  Uiso   1.00
H675   H     0.10646   0.12042   0.80075   0.00000  Uiso   1.00
H676   H     0.22687   0.21291   0.69925   0.00000  Uiso   1.00
N677   N     0.11736   0.16668   0.74999   0.00000  Uiso   1.00
N678   N     0.21597   0.16666   0.75001   0.00000  Uiso   1.00
O679   O     0.03958   0.10655   0.75000   0.00000  Uiso   1.00
O680   O     0.29375   0.22678   0.75000   0.00000  Uiso   1.00
O681   O     0.29372   0.10654   0.75000   0.00000  Uiso   1.00
O682   O     0.03961   0.22679   0.74999   0.00000  Uiso   1.00
O683   O     0.01852   0.16668   0.81491   0.00000  Uiso   1.00
O684   O     0.31481   0.16666   0.68508   0.00000  Uiso   1.00
O685   O     0.27267   0.16667   0.81492   0.00000  Uiso   1.00
O686   O     0.06067   0.16667   0.68508   0.00000  Uiso   1.00
I687   I     0.11320   0.09903   0.61964   0.00000  Uiso   1.00
I688   I     0.22013   0.23431   0.88035   0.00000  Uiso   1.00
O689   O     0.27250   0.04224   0.70777   0.00000  Uiso   1.00
C690   C     0.22414   0.02703   0.72039   0.00000  Uiso   1.00
H691   H     0.20041   0.05160   0.71360   0.00000  Uiso   1.00
H692   H     0.21099   0.01871   0.75697   0.00000  Uiso   1.00
H693   H     0.22013   0.00025   0.69966   0.00000  Uiso   1.00
O694   O     0.06084   0.29109   0.79223   0.00000  Uiso   1.00
C695   C     0.10919   0.30630   0.77961   0.00000  Uiso   1.00
H696   H     0.12234   0.31462   0.74303   0.00000  Uiso   1.00
H697   H     0.13292   0.28173   0.78640   0.00000  Uiso   1.00
H698   H     0.11320   0.33308   0.80034   0.00000  Uiso   1.00
I699   I     0.19696   0.09768   0.82519   0.00000  Uiso   1.00
I700   I     0.13637   0.23565   0.67481   0.00000  Uiso   1.00
C701   C     0.66645   0.08744   0.74960   0.00000  Uiso   1.00
C702   C     0.33355   0.24589   0.75040   0.00000  Uiso   1.00
C703   C     0.52660   0.15773   0.54780   0.00000  Uiso   1.00
C704   C     0.47340   0.17561   0.95220   0.00000  Uiso   1.00
C705   C     0.57460   0.15029   0.52548   0.00000  Uiso   1.00
C706   C     0.42540   0.18305   0.97452   0.00000  Uiso   1.00
C707   C     0.63419   0.02088   0.73030   0.00000  Uiso   1.00
C708   C     0.36581   0.31245   0.76970   0.00000  Uiso   1.00
C709   C     0.63590   0.31122   0.73041   0.00000  Uiso   1.00
C710   C     0.36410   0.02211   0.76959   0.00000  Uiso   1.00
C711   C     0.33404   0.29056   0.75050   0.00000  Uiso   1.00
C712   C     0.66596   0.04278   0.74950   0.00000  Uiso   1.00
C713   C     0.51509   0.14068   0.77846   0.00000  Uiso   1.00
C714   C     0.48491   0.19265   0.72153   0.00000  Uiso   1.00
C715   C     0.46590   0.14095   0.77823   0.00000  Uiso   1.00
C716   C     0.53410   0.19238   0.72177   0.00000  Uiso   1.00
C717   C     0.63941   0.16728   0.83606   0.00000  Uiso   1.00
C718   C     0.36059   0.16606   0.66394   0.00000  Uiso   1.00
C719   C     0.62441   0.16604   0.88539   0.00000  Uiso   1.00
C720   C     0.37559   0.16730   0.61461   0.00000  Uiso   1.00
C721   C     0.63823   0.14411   0.95608   0.00000  Uiso   1.00
C722   C     0.36177   0.18922   0.54392   0.00000  Uiso   1.00
C723   C     0.65423   0.14810   0.90937   0.00000  Uiso   1.00
C724   C     0.34577   0.18524   0.59063   0.00000  Uiso   1.00
C725   C     0.57874   0.18062   0.90862   0.00000  Uiso   1.00
C726   C     0.42126   0.15272   0.59138   0.00000  Uiso   1.00
C727   C     0.55855   0.16831   0.95415   0.00000  Uiso   1.00
C728   C     0.44145   0.16502   0.54585   0.00000  Uiso   1.00
C729   C     0.59046   0.15377   0.97865   0.00000  Uiso   1.00
C730   C     0.40954   0.17956   0.52135   0.00000  Uiso   1.00
C731   C     0.50818   0.16998   0.97627   0.00000  Uiso   1.00
C732   C     0.49182   0.16335   0.52373   0.00000  Uiso   1.00
Cu733  Cu    0.38022   0.16667   0.75000   0.00000  Uiso   1.00
Cu734  Cu    0.61978   0.16666   0.75000   0.00000  Uiso   1.00
H735   H     0.59959   0.14265   0.54499   0.00000  Uiso   1.00
H736   H     0.40041   0.19068   0.95501   0.00000  Uiso   1.00
H737   H     0.64326   0.19567   0.60793   0.00000  Uiso   1.00
H738   H     0.35674   0.13766   0.89207   0.00000  Uiso   1.00
H739   H     0.66249   0.13195   0.97437   0.00000  Uiso   1.00
H740   H     0.33751   0.20138   0.52563   0.00000  Uiso   1.00
H741   H     0.51714   0.15886   0.58407   0.00000  Uiso   1.00
H742   H     0.48286   0.17447   0.91593   0.00000  Uiso   1.00
H743   H     0.61350   0.29378   0.71388   0.00000  Uiso   1.00
H744   H     0.38650   0.03955   0.78612   0.00000  Uiso   1.00
H745   H     0.43979   0.12042   0.80075   0.00000  Uiso   1.00
H746   H     0.56021   0.21291   0.69925   0.00000  Uiso   1.00
N747   N     0.45069   0.16668   0.74999   0.00000  Uiso   1.00
N748   N     0.54931   0.16666   0.75001   0.00000  Uiso   1.00
O749   O     0.37291   0.10655   0.75000   0.00000  Uiso   1.00
O750   O     0.62709   0.22678   0.75000   0.00000  Uiso   1.00
O751   O     0.62706   0.10654   0.75000   0.00000  Uiso   1.00
O752   O     0.37294   0.22679   0.74999   0.00000  Uiso   1.00
O753   O     0.35186   0.16668   0.81491   0.00000  Uiso   1.00
O754   O     0.64814   0.16666   0.68508   0.00000  Uiso   1.00
O755   O     0.60600   0.16667   0.81492   0.00000  Uiso   1.00
O756   O     0.39400   0.16667   0.68508   0.00000  Uiso   1.00
I757   I     0.44653   0.09903   0.61964   0.00000  Uiso   1.00
I758   I     0.55347   0.23431   0.88035   0.00000  Uiso   1.00
O759   O     0.60583   0.04224   0.70777   0.00000  Uiso   1.00
C760   C     0.55747   0.02703   0.72039   0.00000  Uiso   1.00
H761   H     0.53375   0.05160   0.71360   0.00000  Uiso   1.00
H762   H     0.54433   0.01871   0.75697   0.00000  Uiso   1.00
H763   H     0.55347   0.00025   0.69966   0.00000  Uiso   1.00
O764   O     0.39417   0.29109   0.79223   0.00000  Uiso   1.00
C765   C     0.44253   0.30630   0.77961   0.00000  Uiso   1.00
H766   H     0.45567   0.31462   0.74303   0.00000  Uiso   1.00
H767   H     0.46625   0.28173   0.78640   0.00000  Uiso   1.00
H768   H     0.44653   0.33308   0.80034   0.00000  Uiso   1.00
I769   I     0.53030   0.09768   0.82519   0.00000  Uiso   1.00
I770   I     0.46970   0.23565   0.67481   0.00000  Uiso   1.00
C771   C     0.99978   0.08744   0.74960   0.00000  Uiso   1.00
C772   C     0.66689   0.24589   0.75040   0.00000  Uiso   1.00
C773   C     0.85993   0.15773   0.54780   0.00000  Uiso   1.00
C774   C     0.80674   0.17561   0.95220   0.00000  Uiso   1.00
C775   C     0.90793   0.15029   0.52548   0.00000  Uiso   1.00
C776   C     0.75873   0.18305   0.97452   0.00000  Uiso   1.00
C777   C     0.96752   0.02088   0.73030   0.00000  Uiso   1.00
C778   C     0.69914   0.31245   0.76970   0.00000  Uiso   1.00
C779   C     0.96924   0.31122   0.73041   0.00000  Uiso   1.00
C780   C     0.69743   0.02211   0.76959   0.00000  Uiso   1.00
C781   C     0.66737   0.29056   0.75050   0.00000  Uiso   1.00
C782   C     0.99929   0.04278   0.74950   0.00000  Uiso   1.00
C783   C     0.84843   0.14068   0.77846   0.00000  Uiso   1.00
C784   C     0.81824   0.19265   0.72153   0.00000  Uiso   1.00
C785   C     0.79923   0.14095   0.77823   0.00000  Uiso   1.00
C786   C     0.86743   0.19238   0.72177   0.00000  Uiso   1.00
C787   C     0.97275   0.16728   0.83606   0.00000  Uiso   1.00
C788   C     0.69392   0.16606   0.66394   0.00000  Uiso   1.00
C789   C     0.95775   0.16604   0.88539   0.00000  Uiso   1.00
C790   C     0.70892   0.16730   0.61461   0.00000  Uiso   1.00
C791   C     0.97156   0.14411   0.95608   0.00000  Uiso   1.00
C792   C     0.69510   0.18922   0.54392   0.00000  Uiso   1.00
C793   C     0.98756   0.14810   0.90937   0.00000  Uiso   1.00
C794   C     0.67910   0.18524   0.59063   0.00000  Uiso   1.00
C795   C     0.91208   0.18062   0.90862   0.00000  Uiso   1.00
C796   C     0.75459   0.15272   0.59138   0.00000  Uiso   1.00
C797   C     0.89188   0.16831   0.95415   0.00000  Uiso   1.00
C798   C     0.77479   0.16502   0.54585   0.00000  Uiso   1.00
C799   C     0.92379   0.15377   0.97865   0.00000  Uiso   1.00
C800   C     0.74288   0.17956   0.52135   0.00000  Uiso   1.00
C801   C     0.84151   0.16998   0.97627   0.00000  Uiso   1.00
C802   C     0.82516   0.16335   0.52373   0.00000  Uiso   1.00
Cu803  Cu    0.71355   0.16667   0.75000   0.00000  Uiso   1.00
Cu804  Cu    0.95311   0.16666   0.75000   0.00000  Uiso   1.00
H805   H     0.93293   0.14265   0.54499   0.00000  Uiso   1.00
H806   H     0.73374   0.19068   0.95501   0.00000  Uiso   1.00
H807   H     0.97659   0.19567   0.60793   0.00000  Uiso   1.00
H808   H     0.69007   0.13766   0.89207   0.00000  Uiso   1.00
H809   H     0.99583   0.13195   0.97437   0.00000  Uiso   1.00
H810   H     0.67084   0.20138   0.52563   0.00000  Uiso   1.00
H811   H     0.85047   0.15886   0.58407   0.00000  Uiso   1.00
H812   H     0.81620   0.17447   0.91593   0.00000  Uiso   1.00
H813   H     0.94683   0.29378   0.71388   0.00000  Uiso   1.00
H814   H     0.71983   0.03955   0.78612   0.00000  Uiso   1.00
H815   H     0.77313   0.12042   0.80075   0.00000  Uiso   1.00
H816   H     0.89354   0.21291   0.69925   0.00000  Uiso   1.00
N817   N     0.78403   0.16668   0.74999   0.00000  Uiso   1.00
N818   N     0.88264   0.16666   0.75001   0.00000  Uiso   1.00
O819   O     0.70625   0.10655   0.75000   0.00000  Uiso   1.00
O820   O     0.96042   0.22678   0.75000   0.00000  Uiso   1.00
O821   O     0.96039   0.10654   0.75000   0.00000  Uiso   1.00
O822   O     0.70628   0.22679   0.74999   0.00000  Uiso   1.00
O823   O     0.68519   0.16668   0.81491   0.00000  Uiso   1.00
O824   O     0.98148   0.16666   0.68508   0.00000  Uiso   1.00
O825   O     0.93933   0.16667   0.81492   0.00000  Uiso   1.00
O826   O     0.72733   0.16667   0.68508   0.00000  Uiso   1.00
I827   I     0.77987   0.09903   0.61964   0.00000  Uiso   1.00
I828   I     0.88680   0.23431   0.88035   0.00000  Uiso   1.00
O829   O     0.93916   0.04224   0.70777   0.00000  Uiso   1.00
C830   C     0.89081   0.02703   0.72039   0.00000  Uiso   1.00
H831   H     0.86708   0.05160   0.71360   0.00000  Uiso   1.00
H832   H     0.87766   0.01871   0.75697   0.00000  Uiso   1.00
H833   H     0.88680   0.00025   0.69966   0.00000  Uiso   1.00
O834   O     0.72750   0.29109   0.79223   0.00000  Uiso   1.00
C835   C     0.77586   0.30630   0.77961   0.00000  Uiso   1.00
H836   H     0.78900   0.31462   0.74303   0.00000  Uiso   1.00
H837   H     0.79959   0.28173   0.78640   0.00000  Uiso   1.00
H838   H     0.77987   0.33308   0.80034   0.00000  Uiso   1.00
I839   I     0.86363   0.09768   0.82519   0.00000  Uiso   1.00
I840   I     0.80304   0.23565   0.67481   0.00000  Uiso   1.00
C841   C     0.33311   0.42078   0.74960   0.00000  Uiso   1.00
C842   C     0.00022   0.57922   0.75040   0.00000  Uiso   1.00
C843   C     0.19326   0.49106   0.54780   0.00000  Uiso   1.00
C844   C     0.14007   0.50894   0.95220   0.00000  Uiso   1.00
C845   C     0.24127   0.48362   0.52548   0.00000  Uiso   1.00
C846   C     0.09207   0.51638   0.97452   0.00000  Uiso   1.00
C847   C     0.30086   0.35421   0.73030   0.00000  Uiso   1.00
C848   C     0.03247   0.64579   0.76970   0.00000  Uiso   1.00
C849   C     0.30257   0.64456   0.73041   0.00000  Uiso   1.00
C850   C     0.03076   0.35544   0.76959   0.00000  Uiso   1.00
C851   C     0.00071   0.62389   0.75050   0.00000  Uiso   1.00
C852   C     0.33263   0.37611   0.74950   0.00000  Uiso   1.00
C853   C     0.18176   0.47401   0.77846   0.00000  Uiso   1.00
C854   C     0.15157   0.52599   0.72153   0.00000  Uiso   1.00
C855   C     0.13257   0.47429   0.77823   0.00000  Uiso   1.00
C856   C     0.20077   0.52571   0.72177   0.00000  Uiso   1.00
C857   C     0.30608   0.50061   0.83606   0.00000  Uiso   1.00
C858   C     0.02725   0.49939   0.66394   0.00000  Uiso   1.00
C859   C     0.29108   0.49937   0.88539   0.00000  Uiso   1.00
C860   C     0.04225   0.50063   0.61461   0.00000  Uiso   1.00
C861   C     0.30490   0.47744   0.95608   0.00000  Uiso   1.00
C862   C     0.02844   0.52256   0.54392   0.00000  Uiso   1.00
C863   C     0.32090   0.48143   0.90937   0.00000  Uiso   1.00
C864   C     0.01244   0.51857   0.59063   0.00000  Uiso   1.00
C865   C     0.24541   0.51395   0.90862   0.00000  Uiso   1.00
C866   C     0.08792   0.48605   0.59138   0.00000  Uiso   1.00
C867   C     0.22521   0.50165   0.95415   0.00000  Uiso   1.00
C868   C     0.10812   0.49835   0.54585   0.00000  Uiso   1.00
C869   C     0.25712   0.48710   0.97865   0.00000  Uiso   1.00
C870   C     0.07621   0.51290   0.52135   0.00000  Uiso   1.00
C871   C     0.17484   0.50332   0.97627   0.00000  Uiso   1.00
C872   C     0.15849   0.49668   0.52373   0.00000  Uiso   1.00
Cu873  Cu    0.04689   0.50001   0.75000   0.00000  Uiso   1.00
Cu874  Cu    0.28645   0.49999   0.75000   0.00000  Uiso   1.00
H875   H     0.26626   0.47599   0.54499   0.00000  Uiso   1.00
H876   H     0.06707   0.52401   0.95501   0.00000  Uiso   1.00
H877   H     0.30993   0.52900   0.60793   0.00000  Uiso   1.00
H878   H     0.02340   0.47100   0.89207   0.00000  Uiso   1.00
H879   H     0.32916   0.46529   0.97437   0.00000  Uiso   1.00
H880   H     0.00417   0.53471   0.52563   0.00000  Uiso   1.00
H881   H     0.18380   0.49219   0.58407   0.00000  Uiso   1.00
H882   H     0.14953   0.50781   0.91593   0.00000  Uiso   1.00
H883   H     0.28017   0.62711   0.71388   0.00000  Uiso   1.00
H884   H     0.05317   0.37289   0.78612   0.00000  Uiso   1.00
H885   H     0.10646   0.45375   0.80075   0.00000  Uiso   1.00
H886   H     0.22687   0.54625   0.69925   0.00000  Uiso   1.00
N887   N     0.11736   0.50001   0.74999   0.00000  Uiso   1.00
N888   N     0.21597   0.49999   0.75001   0.00000  Uiso   1.00
O889   O     0.03958   0.43989   0.75000   0.00000  Uiso   1.00
O890   O     0.29375   0.56011   0.75000   0.00000  Uiso   1.00
O891   O     0.29372   0.43988   0.75000   0.00000  Uiso   1.00
O892   O     0.03961   0.56012   0.74999   0.00000  Uiso   1.00
O893   O     0.01852   0.50001   0.81491   0.00000  Uiso   1.00
O894   O     0.31481   0.49999   0.68508   0.00000  Uiso   1.00
O895   O     0.27267   0.50000   0.81492   0.00000  Uiso   1.00
O896   O     0.06067   0.50000   0.68508   0.00000  Uiso   1.00
I897   I     0.11320   0.43236   0.61964   0.00000  Uiso   1.00
I898   I     0.22013   0.56764   0.88035   0.00000  Uiso   1.00
O899   O     0.27250   0.37557   0.70777   0.00000  Uiso   1.00
C900   C     0.22414   0.36036   0.72039   0.00000  Uiso   1.00
H901   H     0.20041   0.38493   0.71360   0.00000  Uiso   1.00
H902   H     0.21099   0.35205   0.75697   0.00000  Uiso   1.00
H903   H     0.22013   0.33359   0.69966   0.00000  Uiso   1.00
O904   O     0.06084   0.62443   0.79223   0.00000  Uiso   1.00
C905   C     0.10919   0.63964   0.77961   0.00000  Uiso   1.00
H906   H     0.12234   0.64795   0.74303   0.00000  Uiso   1.00
H907   H     0.13292   0.61507   0.78640   0.00000  Uiso   1.00
H908   H     0.11320   0.66641   0.80034   0.00000  Uiso   1.00
I909   I     0.19696   0.43101   0.82519   0.00000  Uiso   1.00
I910   I     0.13637   0.56899   0.67481   0.00000  Uiso   1.00
C911   C     0.66645   0.42078   0.74960   0.00000  Uiso   1.00
C912   C     0.33355   0.57922   0.75040   0.00000  Uiso   1.00
C913   C     0.52660   0.49106   0.54780   0.00000  Uiso   1.00
C914   C     0.47340   0.50894   0.95220   0.00000  Uiso   1.00
C915   C     0.57460   0.48362   0.52548   0.00000  Uiso   1.00
C916   C     0.42540   0.51638   0.97452   0.00000  Uiso   1.00
C917   C     0.63419   0.35421   0.73030   0.00000  Uiso   1.00
C918   C     0.36581   0.64579   0.76970   0.00000  Uiso   1.00
C919   C     0.63590   0.64456   0.73041   0.00000  Uiso   1.00
C920   C     0.36410   0.35544   0.76959   0.00000  Uiso   1.00
C921   C     0.33404   0.62389   0.75050   0.00000  Uiso   1.00
C922   C     0.66596   0.37611   0.74950   0.00000  Uiso   1.00
C923   C     0.51509   0.47401   0.77846   0.00000  Uiso   1.00
C924   C     0.48491   0.52599   0.72153   0.00000  Uiso   1.00
C925   C     0.46590   0.47429   0.77823   0.00000  Uiso   1.00
C926   C     0.53410   0.52571   0.72177   0.00000  Uiso   1.00
C927   C     0.63941   0.50061   0.83606   0.00000  Uiso   1.00
C928   C     0.36059   0.49939   0.66394   0.00000  Uiso   1.00
C929   C     0.62441   0.49937   0.88539   0.00000  Uiso   1.00
C930   C     0.37559   0.50063   0.61461   0.00000  Uiso   1.00
C931   C     0.63823   0.47744   0.95608   0.00000  Uiso   1.00
C932   C     0.36177   0.52256   0.54392   0.00000  Uiso   1.00
C933   C     0.65423   0.48143   0.90937   0.00000  Uiso   1.00
C934   C     0.34577   0.51857   0.59063   0.00000  Uiso   1.00
C935   C     0.57874   0.51395   0.90862   0.00000  Uiso   1.00
C936   C     0.42126   0.48605   0.59138   0.00000  Uiso   1.00
C937   C     0.55855   0.50165   0.95415   0.00000  Uiso   1.00
C938   C     0.44145   0.49835   0.54585   0.00000  Uiso   1.00
C939   C     0.59046   0.48710   0.97865   0.00000  Uiso   1.00
C940   C     0.40954   0.51290   0.52135   0.00000  Uiso   1.00
C941   C     0.50818   0.50332   0.97627   0.00000  Uiso   1.00
C942   C     0.49182   0.49668   0.52373   0.00000  Uiso   1.00
Cu943  Cu    0.38022   0.50001   0.75000   0.00000  Uiso   1.00
Cu944  Cu    0.61978   0.49999   0.75000   0.00000  Uiso   1.00
H945   H     0.59959   0.47599   0.54499   0.00000  Uiso   1.00
H946   H     0.40041   0.52401   0.95501   0.00000  Uiso   1.00
H947   H     0.64326   0.52900   0.60793   0.00000  Uiso   1.00
H948   H     0.35674   0.47100   0.89207   0.00000  Uiso   1.00
H949   H     0.66249   0.46529   0.97437   0.00000  Uiso   1.00
H950   H     0.33751   0.53471   0.52563   0.00000  Uiso   1.00
H951   H     0.51714   0.49219   0.58407   0.00000  Uiso   1.00
H952   H     0.48286   0.50781   0.91593   0.00000  Uiso   1.00
H953   H     0.61350   0.62711   0.71388   0.00000  Uiso   1.00
H954   H     0.38650   0.37289   0.78612   0.00000  Uiso   1.00
H955   H     0.43979   0.45375   0.80075   0.00000  Uiso   1.00
H956   H     0.56021   0.54625   0.69925   0.00000  Uiso   1.00
N957   N     0.45069   0.50001   0.74999   0.00000  Uiso   1.00
N958   N     0.54931   0.49999   0.75001   0.00000  Uiso   1.00
O959   O     0.37291   0.43989   0.75000   0.00000  Uiso   1.00
O960   O     0.62709   0.56011   0.75000   0.00000  Uiso   1.00
O961   O     0.62706   0.43988   0.75000   0.00000  Uiso   1.00
O962   O     0.37294   0.56012   0.74999   0.00000  Uiso   1.00
O963   O     0.35186   0.50001   0.81491   0.00000  Uiso   1.00
O964   O     0.64814   0.49999   0.68508   0.00000  Uiso   1.00
O965   O     0.60600   0.50000   0.81492   0.00000  Uiso   1.00
O966   O     0.39400   0.50000   0.68508   0.00000  Uiso   1.00
I967   I     0.44653   0.43236   0.61964   0.00000  Uiso   1.00
I968   I     0.55347   0.56764   0.88035   0.00000  Uiso   1.00
O969   O     0.60583   0.37557   0.70777   0.00000  Uiso   1.00
C970   C     0.55747   0.36036   0.72039   0.00000  Uiso   1.00
H971   H     0.53375   0.38493   0.71360   0.00000  Uiso   1.00
H972   H     0.54433   0.35205   0.75697   0.00000  Uiso   1.00
H973   H     0.55347   0.33359   0.69966   0.00000  Uiso   1.00
O974   O     0.39417   0.62443   0.79223   0.00000  Uiso   1.00
C975   C     0.44253   0.63964   0.77961   0.00000  Uiso   1.00
H976   H     0.45567   0.64795   0.74303   0.00000  Uiso   1.00
H977   H     0.46625   0.61507   0.78640   0.00000  Uiso   1.00
H978   H     0.44653   0.66641   0.80034   0.00000  Uiso   1.00
I979   I     0.53030   0.43101   0.82519   0.00000  Uiso   1.00
I980   I     0.46970   0.56899   0.67481   0.00000  Uiso   1.00
C981   C     0.99978   0.42078   0.74960   0.00000  Uiso   1.00
C982   C     0.66689   0.57922   0.75040   0.00000  Uiso   1.00
C983   C     0.85993   0.49106   0.54780   0.00000  Uiso   1.00
C984   C     0.80674   0.50894   0.95220   0.00000  Uiso   1.00
C985   C     0.90793   0.48362   0.52548   0.00000  Uiso   1.00
C986   C     0.75873   0.51638   0.97452   0.00000  Uiso   1.00
C987   C     0.96752   0.35421   0.73030   0.00000  Uiso   1.00
C988   C     0.69914   0.64579   0.76970   0.00000  Uiso   1.00
C989   C     0.96924   0.64456   0.73041   0.00000  Uiso   1.00
C990   C     0.69743   0.35544   0.76959   0.00000  Uiso   1.00
C991   C     0.66737   0.62389   0.75050   0.00000  Uiso   1.00
C992   C     0.99929   0.37611   0.74950   0.00000  Uiso   1.00
C993   C     0.84843   0.47401   0.77846   0.00000  Uiso   1.00
C994   C     0.81824   0.52599   0.72153   0.00000  Uiso   1.00
C995   C     0.79923   0.47429   0.77823   0.00000  Uiso   1.00
C996   C     0.86743   0.52571   0.72177   0.00000  Uiso   1.00
C997   C     0.97275   0.50061   0.83606   0.00000  Uiso   1.00
C998   C     0.69392   0.49939   0.66394   0.00000  Uiso   1.00
C999   C     0.95775   0.49937   0.88539   0.00000  Uiso   1.00
C1000  C     0.70892   0.50063   0.61461   0.00000  Uiso   1.00
C1001  C     0.97156   0.47744   0.95608   0.00000  Uiso   1.00
C1002  C     0.69510   0.52256   0.54392   0.00000  Uiso   1.00
C1003  C     0.98756   0.48143   0.90937   0.00000  Uiso   1.00
C1004  C     0.67910   0.51857   0.59063   0.00000  Uiso   1.00
C1005  C     0.91208   0.51395   0.90862   0.00000  Uiso   1.00
C1006  C     0.75459   0.48605   0.59138   0.00000  Uiso   1.00
C1007  C     0.89188   0.50165   0.95415   0.00000  Uiso   1.00
C1008  C     0.77479   0.49835   0.54585   0.00000  Uiso   1.00
C1009  C     0.92379   0.48710   0.97865   0.00000  Uiso   1.00
C1010  C     0.74288   0.51290   0.52135   0.00000  Uiso   1.00
C1011  C     0.84151   0.50332   0.97627   0.00000  Uiso   1.00
C1012  C     0.82516   0.49668   0.52373   0.00000  Uiso   1.00
Cu1013 Cu    0.71355   0.50001   0.75000   0.00000  Uiso   1.00
Cu1014 Cu    0.95311   0.49999   0.75000   0.00000  Uiso   1.00
H1015  H     0.93293   0.47599   0.54499   0.00000  Uiso   1.00
H1016  H     0.73374   0.52401   0.95501   0.00000  Uiso   1.00
H1017  H     0.97659   0.52900   0.60793   0.00000  Uiso   1.00
H1018  H     0.69007   0.47100   0.89207   0.00000  Uiso   1.00
H1019  H     0.99583   0.46529   0.97437   0.00000  Uiso   1.00
H1020  H     0.67084   0.53471   0.52563   0.00000  Uiso   1.00
H1021  H     0.85047   0.49219   0.58407   0.00000  Uiso   1.00
H1022  H     0.81620   0.50781   0.91593   0.00000  Uiso   1.00
H1023  H     0.94683   0.62711   0.71388   0.00000  Uiso   1.00
H1024  H     0.71983   0.37289   0.78612   0.00000  Uiso   1.00
H1025  H     0.77313   0.45375   0.80075   0.00000  Uiso   1.00
H1026  H     0.89354   0.54625   0.69925   0.00000  Uiso   1.00
N1027  N     0.78403   0.50001   0.74999   0.00000  Uiso   1.00
N1028  N     0.88264   0.49999   0.75001   0.00000  Uiso   1.00
O1029  O     0.70625   0.43989   0.75000   0.00000  Uiso   1.00
O1030  O     0.96042   0.56011   0.75000   0.00000  Uiso   1.00
O1031  O     0.96039   0.43988   0.75000   0.00000  Uiso   1.00
O1032  O     0.70628   0.56012   0.74999   0.00000  Uiso   1.00
O1033  O     0.68519   0.50001   0.81491   0.00000  Uiso   1.00
O1034  O     0.98148   0.49999   0.68508   0.00000  Uiso   1.00
O1035  O     0.93933   0.50000   0.81492   0.00000  Uiso   1.00
O1036  O     0.72733   0.50000   0.68508   0.00000  Uiso   1.00
I1037  I     0.77987   0.43236   0.61964   0.00000  Uiso   1.00
I1038  I     0.88680   0.56764   0.88035   0.00000  Uiso   1.00
O1039  O     0.93916   0.37557   0.70777   0.00000  Uiso   1.00
C1040  C     0.89081   0.36036   0.72039   0.00000  Uiso   1.00
H1041  H     0.86708   0.38493   0.71360   0.00000  Uiso   1.00
H1042  H     0.87766   0.35205   0.75697   0.00000  Uiso   1.00
H1043  H     0.88680   0.33359   0.69966   0.00000  Uiso   1.00
O1044  O     0.72750   0.62443   0.79223   0.00000  Uiso   1.00
C1045  C     0.77586   0.63964   0.77961   0.00000  Uiso   1.00
H1046  H     0.78900   0.64795   0.74303   0.00000  Uiso   1.00
H1047  H     0.79959   0.61507   0.78640   0.00000  Uiso   1.00
H1048  H     0.77987   0.66641   0.80034   0.00000  Uiso   1.00
I1049  I     0.86363   0.43101   0.82519   0.00000  Uiso   1.00
I1050  I     0.80304   0.56899   0.67481   0.00000  Uiso   1.00
C1051  C     0.33311   0.75411   0.74960   0.00000  Uiso   1.00
C1052  C     0.00022   0.91256   0.75040   0.00000  Uiso   1.00
C1053  C     0.19326   0.82439   0.54780   0.00000  Uiso   1.00
C1054  C     0.14007   0.84227   0.95220   0.00000  Uiso   1.00
C1055  C     0.24127   0.81695   0.52548   0.00000  Uiso   1.00
C1056  C     0.09207   0.84971   0.97452   0.00000  Uiso   1.00
C1057  C     0.30086   0.68755   0.73030   0.00000  Uiso   1.00
C1058  C     0.03247   0.97912   0.76970   0.00000  Uiso   1.00
C1059  C     0.30257   0.97789   0.73041   0.00000  Uiso   1.00
C1060  C     0.03076   0.68878   0.76959   0.00000  Uiso   1.00
C1061  C     0.00071   0.95722   0.75050   0.00000  Uiso   1.00
C1062  C     0.33263   0.70944   0.74950   0.00000  Uiso   1.00
C1063  C     0.18176   0.80735   0.77846   0.00000  Uiso   1.00
C1064  C     0.15157   0.85932   0.72153   0.00000  Uiso   1.00
C1065  C     0.13257   0.80762   0.77823   0.00000  Uiso   1.00
C1066  C     0.20077   0.85905   0.72177   0.00000  Uiso   1.00
C1067  C     0.30608   0.83395   0.83606   0.00000  Uiso   1.00
C1068  C     0.02725   0.83272   0.66394   0.00000  Uiso   1.00
C1069  C     0.29108   0.83270   0.88539   0.00000  Uiso   1.00
C1070  C     0.04225   0.83396   0.61461   0.00000  Uiso   1.00
C1071  C     0.30490   0.81078   0.95608   0.00000  Uiso   1.00
C1072  C     0.02844   0.85589   0.54392   0.00000  Uiso   1.00
C1073  C     0.32090   0.81476   0.90937   0.00000  Uiso   1.00
C1074  C     0.01244   0.85190   0.59063   0.00000  Uiso   1.00
C1075  C     0.24541   0.84728   0.90862   0.00000  Uiso   1.00
C1076  C     0.08792   0.81938   0.59138   0.00000  Uiso   1.00
C1077  C     0.22521   0.83498   0.95415   0.00000  Uiso   1.00
C1078  C     0.10812   0.83169   0.54585   0.00000  Uiso   1.00
C1079  C     0.25712   0.82044   0.97865   0.00000  Uiso   1.00
C1080  C     0.07621   0.84623   0.52135   0.00000  Uiso   1.00
C1081  C     0.17484   0.83665   0.97627   0.00000  Uiso   1.00
C1082  C     0.15849   0.83002   0.52373   0.00000  Uiso   1.00
Cu1083 Cu    0.04689   0.83334   0.75000   0.00000  Uiso   1.00
Cu1084 Cu    0.28645   0.83333   0.75000   0.00000  Uiso   1.00
H1085  H     0.26626   0.80932   0.54499   0.00000  Uiso   1.00
H1086  H     0.06707   0.85735   0.95501   0.00000  Uiso   1.00
H1087  H     0.30993   0.86234   0.60793   0.00000  Uiso   1.00
H1088  H     0.02340   0.80433   0.89207   0.00000  Uiso   1.00
H1089  H     0.32916   0.79862   0.97437   0.00000  Uiso   1.00
H1090  H     0.00417   0.86805   0.52563   0.00000  Uiso   1.00
H1091  H     0.18380   0.82553   0.58407   0.00000  Uiso   1.00
H1092  H     0.14953   0.84114   0.91593   0.00000  Uiso   1.00
H1093  H     0.28017   0.96045   0.71388   0.00000  Uiso   1.00
H1094  H     0.05317   0.70622   0.78612   0.00000  Uiso   1.00
H1095  H     0.10646   0.78709   0.80075   0.00000  Uiso   1.00
H1096  H     0.22687   0.87958   0.69925   0.00000  Uiso   1.00
N1097  N     0.11736   0.83334   0.74999   0.00000  Uiso   1.00
N1098  N     0.21597   0.83332   0.75001   0.00000  Uiso   1.00
O1099  O     0.03958   0.77322   0.75000   0.00000  Uiso   1.00
O1100  O     0.29375   0.89345   0.75000   0.00000  Uiso   1.00
O1101  O     0.29372   0.77321   0.75000   0.00000  Uiso   1.00
O1102  O     0.03961   0.89346   0.74999   0.00000  Uiso   1.00
O1103  O     0.01852   0.83334   0.81491   0.00000  Uiso   1.00
O1104  O     0.31481   0.83332   0.68508   0.00000  Uiso   1.00
O1105  O     0.27267   0.83333   0.81492   0.00000  Uiso   1.00
O1106  O     0.06067   0.83333   0.68508   0.00000  Uiso   1.00
I1107  I     0.11320   0.76569   0.61964   0.00000  Uiso   1.00
I1108  I     0.22013   0.90097   0.88035   0.00000  Uiso   1.00
O1109  O     0.27250   0.70891   0.70777   0.00000  Uiso   1.00
C1110  C     0.22414   0.69370   0.72039   0.00000  Uiso   1.00
H1111  H     0.20041   0.71827   0.71360   0.00000  Uiso   1.00
H1112  H     0.21099   0.68538   0.75697   0.00000  Uiso   1.00
H1113  H     0.22013   0.66692   0.69966   0.00000  Uiso   1.00
O1114  O     0.06084   0.95776   0.79223   0.00000  Uiso   1.00
C1115  C     0.10919   0.97297   0.77961   0.00000  Uiso   1.00
H1116  H     0.12234   0.98129   0.74303   0.00000  Uiso   1.00
H1117  H     0.13292   0.94840   0.78640   0.00000  Uiso   1.00
H1118  H     0.11320   0.99975   0.80034   0.00000  Uiso   1.00
I1119  I     0.19696   0.76435   0.82519   0.00000  Uiso   1.00
I1120  I     0.13637   0.90232   0.67481   0.00000  Uiso   1.00
C1121  C     0.66645   0.75411   0.74960   0.00000  Uiso   1.00
C1122  C     0.33355   0.91256   0.75040   0.00000  Uiso   1.00
C1123  C     0.52660   0.82439   0.54780   0.00000  Uiso   1.00
C1124  C     0.47340   0.84227   0.95220   0.00000  Uiso   1.00
C1125  C     0.57460   0.81695   0.52548   0.00000  Uiso   1.00
C1126  C     0.42540   0.84971   0.97452   0.00000  Uiso   1.00
C1127  C     0.63419   0.68755   0.73030   0.00000  Uiso   1.00
C1128  C     0.36581   0.97912   0.76970   0.00000  Uiso   1.00
C1129  C     0.63590   0.97789   0.73041   0.00000  Uiso   1.00
C1130  C     0.36410   0.68878   0.76959   0.00000  Uiso   1.00
C1131  C     0.33404   0.95722   0.75050   0.00000  Uiso   1.00
C1132  C     0.66596   0.70944   0.74950   0.00000  Uiso   1.00
C1133  C     0.51509   0.80735   0.77846   0.00000  Uiso   1.00
C1134  C     0.48491   0.85932   0.72153   0.00000  Uiso   1.00
C1135  C     0.46590   0.80762   0.77823   0.00000  Uiso   1.00
C1136  C     0.53410   0.85905   0.72177   0.00000  Uiso   1.00
C1137  C     0.63941   0.83395   0.83606   0.00000  Uiso   1.00
C1138  C     0.36059   0.83272   0.66394   0.00000  Uiso   1.00
C1139  C     0.62441   0.83270   0.88539   0.00000  Uiso   1.00
C1140  C     0.37559   0.83396   0.61461   0.00000  Uiso   1.00
C1141  C     0.63823   0.81078   0.95608   0.00000  Uiso   1.00
C1142  C     0.36177   0.85589   0.54392   0.00000  Uiso   1.00
C1143  C     0.65423   0.81476   0.90937   0.00000  Uiso   1.00
C1144  C     0.34577   0.85190   0.59063   0.00000  Uiso   1.00
C1145  C     0.57874   0.84728   0.90862   0.00000  Uiso   1.00
C1146  C     0.42126   0.81938   0.59138   0.00000  Uiso   1.00
C1147  C     0.55855   0.83498   0.95415   0.00000  Uiso   1.00
C1148  C     0.44145   0.83169   0.54585   0.00000  Uiso   1.00
C1149  C     0.59046   0.82044   0.97865   0.00000  Uiso   1.00
C1150  C     0.40954   0.84623   0.52135   0.00000  Uiso   1.00
C1151  C     0.50818   0.83665   0.97627   0.00000  Uiso   1.00
C1152  C     0.49182   0.83002   0.52373   0.00000  Uiso   1.00
Cu1153 Cu    0.38022   0.83334   0.75000   0.00000  Uiso   1.00
Cu1154 Cu    0.61978   0.83333   0.75000   0.00000  Uiso   1.00
H1155  H     0.59959   0.80932   0.54499   0.00000  Uiso   1.00
H1156  H     0.40041   0.85735   0.95501   0.00000  Uiso   1.00
H1157  H     0.64326   0.86234   0.60793   0.00000  Uiso   1.00
H1158  H     0.35674   0.80433   0.89207   0.00000  Uiso   1.00
H1159  H     0.66249   0.79862   0.97437   0.00000  Uiso   1.00
H1160  H     0.33751   0.86805   0.52563   0.00000  Uiso   1.00
H1161  H     0.51714   0.82553   0.58407   0.00000  Uiso   1.00
H1162  H     0.48286   0.84114   0.91593   0.00000  Uiso   1.00
H1163  H     0.61350   0.96045   0.71388   0.00000  Uiso   1.00
H1164  H     0.38650   0.70622   0.78612   0.00000  Uiso   1.00
H1165  H     0.43979   0.78709   0.80075   0.00000  Uiso   1.00
H1166  H     0.56021   0.87958   0.69925   0.00000  Uiso   1.00
N1167  N     0.45069   0.83334   0.74999   0.00000  Uiso   1.00
N1168  N     0.54931   0.83332   0.75001   0.00000  Uiso   1.00
O1169  O     0.37291   0.77322   0.75000   0.00000  Uiso   1.00
O1170  O     0.62709   0.89345   0.75000   0.00000  Uiso   1.00
O1171  O     0.62706   0.77321   0.75000   0.00000  Uiso   1.00
O1172  O     0.37294   0.89346   0.74999   0.00000  Uiso   1.00
O1173  O     0.35186   0.83334   0.81491   0.00000  Uiso   1.00
O1174  O     0.64814   0.83332   0.68508   0.00000  Uiso   1.00
O1175  O     0.60600   0.83333   0.81492   0.00000  Uiso   1.00
O1176  O     0.39400   0.83333   0.68508   0.00000  Uiso   1.00
I1177  I     0.44653   0.76569   0.61964   0.00000  Uiso   1.00
I1178  I     0.55347   0.90097   0.88035   0.00000  Uiso   1.00
O1179  O     0.60583   0.70891   0.70777   0.00000  Uiso   1.00
C1180  C     0.55747   0.69370   0.72039   0.00000  Uiso   1.00
H1181  H     0.53375   0.71827   0.71360   0.00000  Uiso   1.00
H1182  H     0.54433   0.68538   0.75697   0.00000  Uiso   1.00
H1183  H     0.55347   0.66692   0.69966   0.00000  Uiso   1.00
O1184  O     0.39417   0.95776   0.79223   0.00000  Uiso   1.00
C1185  C     0.44253   0.97297   0.77961   0.00000  Uiso   1.00
H1186  H     0.45567   0.98129   0.74303   0.00000  Uiso   1.00
H1187  H     0.46625   0.94840   0.78640   0.00000  Uiso   1.00
H1188  H     0.44653   0.99975   0.80034   0.00000  Uiso   1.00
I1189  I     0.53030   0.76435   0.82519   0.00000  Uiso   1.00
I1190  I     0.46970   0.90232   0.67481   0.00000  Uiso   1.00
C1191  C     0.99978   0.75411   0.74960   0.00000  Uiso   1.00
C1192  C     0.66689   0.91256   0.75040   0.00000  Uiso   1.00
C1193  C     0.85993   0.82439   0.54780   0.00000  Uiso   1.00
C1194  C     0.80674   0.84227   0.95220   0.00000  Uiso   1.00
C1195  C     0.90793   0.81695   0.52548   0.00000  Uiso   1.00
C1196  C     0.75873   0.84971   0.97452   0.00000  Uiso   1.00
C1197  C     0.96752   0.68755   0.73030   0.00000  Uiso   1.00
C1198  C     0.69914   0.97912   0.76970   0.00000  Uiso   1.00
C1199  C     0.96924   0.97789   0.73041   0.00000  Uiso   1.00
C1200  C     0.69743   0.68878   0.76959   0.00000  Uiso   1.00
C1201  C     0.66737   0.95722   0.75050   0.00000  Uiso   1.00
C1202  C     0.99929   0.70944   0.74950   0.00000  Uiso   1.00
C1203  C     0.84843   0.80735   0.77846   0.00000  Uiso   1.00
C1204  C     0.81824   0.85932   0.72153   0.00000  Uiso   1.00
C1205  C     0.79923   0.80762   0.77823   0.00000  Uiso   1.00
C1206  C     0.86743   0.85905   0.72177   0.00000  Uiso   1.00
C1207  C     0.97275   0.83395   0.83606   0.00000  Uiso   1.00
C1208  C     0.69392   0.83272   0.66394   0.00000  Uiso   1.00
C1209  C     0.95775   0.83270   0.88539   0.00000  Uiso   1.00
C1210  C     0.70892   0.83396   0.61461   0.00000  Uiso   1.00
C1211  C     0.97156   0.81078   0.95608   0.00000  Uiso   1.00
C1212  C     0.69510   0.85589   0.54392   0.00000  Uiso   1.00
C1213  C     0.98756   0.81476   0.90937   0.00000  Uiso   1.00
C1214  C     0.67910   0.85190   0.59063   0.00000  Uiso   1.00
C1215  C     0.91208   0.84728   0.90862   0.00000  Uiso   1.00
C1216  C     0.75459   0.81938   0.59138   0.00000  Uiso   1.00
C1217  C     0.89188   0.83498   0.95415   0.00000  Uiso   1.00
C1218  C     0.77479   0.83169   0.54585   0.00000  Uiso   1.00
C1219  C     0.92379   0.82044   0.97865   0.00000  Uiso   1.00
C1220  C     0.74288   0.84623   0.52135   0.00000  Uiso   1.00
C1221  C     0.84151   0.83665   0.97627   0.00000  Uiso   1.00
C1222  C     0.82516   0.83002   0.52373   0.00000  Uiso   1.00
Cu1223 Cu    0.71355   0.83334   0.75000   0.00000  Uiso   1.00
Cu1224 Cu    0.95311   0.83333   0.75000   0.00000  Uiso   1.00
H1225  H     0.93293   0.80932   0.54499   0.00000  Uiso   1.00
H1226  H     0.73374   0.85735   0.95501   0.00000  Uiso   1.00
H1227  H     0.97659   0.86234   0.60793   0.00000  Uiso   1.00
H1228  H     0.69007   0.80433   0.89207   0.00000  Uiso   1.00
H1229  H     0.99583   0.79862   0.97437   0.00000  Uiso   1.00
H1230  H     0.67084   0.86805   0.52563   0.00000  Uiso   1.00
H1231  H     0.85047   0.82553   0.58407   0.00000  Uiso   1.00
H1232  H     0.81620   0.84114   0.91593   0.00000  Uiso   1.00
H1233  H     0.94683   0.96045   0.71388   0.00000  Uiso   1.00
H1234  H     0.71983   0.70622   0.78612   0.00000  Uiso   1.00
H1235  H     0.77313   0.78709   0.80075   0.00000  Uiso   1.00
H1236  H     0.89354   0.87958   0.69925   0.00000  Uiso   1.00
N1237  N     0.78403   0.83334   0.74999   0.00000  Uiso   1.00
N1238  N     0.88264   0.83332   0.75001   0.00000  Uiso   1.00
O1239  O     0.70625   0.77322   0.75000   0.00000  Uiso   1.00
O1240  O     0.96042   0.89345   0.75000   0.00000  Uiso   1.00
O1241  O     0.96039   0.77321   0.75000   0.00000  Uiso   1.00
O1242  O     0.70628   0.89346   0.74999   0.00000  Uiso   1.00
O1243  O     0.68519   0.83334   0.81491   0.00000  Uiso   1.00
O1244  O     0.98148   0.83332   0.68508   0.00000  Uiso   1.00
O1245  O     0.93933   0.83333   0.81492   0.00000  Uiso   1.00
O1246  O     0.72733   0.83333   0.68508   0.00000  Uiso   1.00
I1247  I     0.77987   0.76569   0.61964   0.00000  Uiso   1.00
I1248  I     0.88680   0.90097   0.88035   0.00000  Uiso   1.00
O1249  O     0.93916   0.70891   0.70777   0.00000  Uiso   1.00
C1250  C     0.89081   0.69370   0.72039   0.00000  Uiso   1.00
H1251  H     0.86708   0.71827   0.71360   0.00000  Uiso   1.00
H1252  H     0.87766   0.68538   0.75697   0.00000  Uiso   1.00
H1253  H     0.88680   0.66692   0.69966   0.00000  Uiso   1.00
O1254  O     0.72750   0.95776   0.79223   0.00000  Uiso   1.00
C1255  C     0.77586   0.97297   0.77961   0.00000  Uiso   1.00
H1256  H     0.78900   0.98129   0.74303   0.00000  Uiso   1.00
H1257  H     0.79959   0.94840   0.78640   0.00000  Uiso   1.00
H1258  H     0.77987   0.99975   0.80034   0.00000  Uiso   1.00
I1259  I     0.86363   0.76435   0.82519   0.00000  Uiso   1.00
I1260  I     0.80304   0.90232   0.67481   0.00000  Uiso   1.00
loop_
_geom_bond_atom_site_label_1
_geom_bond_atom_site_label_2
_geom_bond_distance
_geom_bond_site_symmetry_2
_ccdc_geom_bond_type
C1     O51     1.294   .     A
C1     C12     1.448   .     S
C1     O119    1.294   .     S
C2     O52     1.294   .     A
C2     C11     1.448   .     S
C2     O190    1.294   1_455 S
C3     C32     1.410   .     A
C3     H41     1.079   .     S
C3     C5      1.388   .     A
C4     H42     1.079   .     S
C4     C31     1.410   .     A
C4     C6      1.388   .     A
C5     H35     1.084   .     S
C5     C659    1.393   1_554 S
C6     H36     1.084   .     S
C6     C660    1.393   .     S
C7     C12     1.406   .     A
C7     O59     1.391   .     S
C7     C429    1.396   1_545 S
C8     O64     1.391   .     S
C8     C11     1.406   .     A
C8     C220    1.396   .     S
C9     H43     1.083   .     S
C9     C217    1.396   .     S
C9     C81     1.400   .     S
C10    H44     1.083   .     S
C10    C428    1.396   1_545 S
C10    C152    1.400   1_455 S
C11    C149    1.400   1_455 S
C12    C80     1.400   .     S
C13    N48     1.386   .     A
C13    C15     1.414   .     A
C13    I69     2.123   .     S
C14    N47     1.386   .     A
C14    C16     1.414   .     A
C14    I70     2.123   .     S
C15    N47     1.356   .     A
C15    H45     1.082   .     S
C16    N48     1.356   .     A
C16    H46     1.082   .     S
C17    O55     1.299   .     A
C17    C19     1.464   .     S
C17    O123    1.297   .     S
C18    O56     1.299   .     A
C18    C20     1.464   .     S
C18    O194    1.297   1_455 S
C19    C23     1.402   .     A
C19    C25     1.404   .     A
C20    C24     1.402   .     A
C20    C26     1.404   .     A
C21    C29     1.400   .     A
C21    C23     1.391   .     A
C21    H39     1.084   .     S
C22    H40     1.084   .     S
C22    C24     1.391   .     A
C22    C30     1.400   .     A
C23    H108    1.083   .     S
C24    H177    1.083   1_455 S
C25    I58     2.156   .     S
C25    C27     1.413   .     A
C26    C28     1.413   .     A
C26    I57     2.156   .     S
C27    C29     1.418   .     A
C27    C31     1.422   .     A
C28    C30     1.418   .     A
C28    C32     1.422   .     A
C29    C635    1.393   .     S
C30    C636    1.393   1_554 S
C31    C662    1.422   .     S
C32    C661    1.422   1_554 S
Cu33   O56     1.933   .     S
Cu33   O52     1.964   .     S
Cu33   O53     1.945   .     S
Cu33   N47     2.022   .     S
Cu33   O49     1.958   .     S
Cu33   Cu174   2.691   1_455 S
Cu34   O50     1.958   .     S
Cu34   O51     1.964   .     S
Cu34   O54     1.945   .     S
Cu34   N48     2.022   .     S
Cu34   O55     1.933   .     S
Cu34   Cu103   2.691   .     S
H37    C94     1.083   .     S
H38    C163    1.083   1_455 S
O49    C141    1.294   1_455 S
O50    C72     1.294   .     S
O53    C157    1.297   1_455 S
O54    C88     1.297   .     S
O59    C60     1.413   .     S
C60    H63     1.110   .     S
C60    H62     1.115   .     S
C60    H61     1.110   .     S
O64    C65     1.413   .     S
C65    H68     1.110   .     S
C65    H66     1.115   .     S
C65    H67     1.110   .     S
C71    O121    1.294   .     A
C71    C82     1.448   .     S
C71    O189    1.294   .     S
C72    O122    1.294   .     A
C72    C81     1.448   .     S
C73    C102    1.410   .     A
C73    H111    1.079   .     S
C73    C75     1.388   .     A
C74    H112    1.079   .     S
C74    C101    1.410   .     A
C74    C76     1.388   .     A
C75    H105    1.084   .     S
C75    C729    1.393   1_554 S
C76    H106    1.084   .     S
C76    C730    1.393   .     S
C77    C82     1.406   .     A
C77    O129    1.391   .     S
C77    C499    1.396   1_545 S
C78    O134    1.391   .     S
C78    C81     1.406   .     A
C78    C290    1.396   .     S
C79    H113    1.083   .     S
C79    C287    1.396   .     S
C79    C151    1.400   .     S
C80    H114    1.083   .     S
C80    C498    1.396   1_545 S
C82    C150    1.400   .     S
C83    N118    1.386   .     A
C83    C85     1.414   .     A
C83    I139    2.123   .     S
C84    N117    1.386   .     A
C84    C86     1.414   .     A
C84    I140    2.123   .     S
C85    N117    1.356   .     A
C85    H115    1.082   .     S
C86    N118    1.356   .     A
C86    H116    1.082   .     S
C87    O125    1.299   .     A
C87    C89     1.464   .     S
C87    O193    1.297   .     S
C88    O126    1.299   .     A
C88    C90     1.464   .     S
C89    C93     1.402   .     A
C89    C95     1.404   .     A
C90    C94     1.402   .     A
C90    C96     1.404   .     A
C91    C99     1.400   .     A
C91    C93     1.391   .     A
C91    H109    1.084   .     S
C92    H110    1.084   .     S
C92    C94     1.391   .     A
C92    C100    1.400   .     A
C93    H178    1.083   .     S
C95    I128    2.156   .     S
C95    C97     1.413   .     A
C96    C98     1.413   .     A
C96    I127    2.156   .     S
C97    C99     1.418   .     A
C97    C101    1.422   .     A
C98    C100    1.418   .     A
C98    C102    1.422   .     A
C99    C705    1.393   .     S
C100   C706    1.393   1_554 S
C101   C732    1.422   .     S
C102   C731    1.422   1_554 S
Cu103  O126    1.933   .     S
Cu103  O122    1.964   .     S
Cu103  O123    1.945   .     S
Cu103  N117    2.022   .     S
Cu103  O119    1.958   .     S
Cu104  O120    1.958   .     S
Cu104  O121    1.964   .     S
Cu104  O124    1.945   .     S
Cu104  N118    2.022   .     S
Cu104  O125    1.933   .     S
Cu104  Cu173   2.691   .     S
H107   C164    1.083   .     S
O120   C142    1.294   .     S
O124   C158    1.297   .     S
O129   C130    1.413   .     S
C130   H133    1.110   .     S
C130   H132    1.115   .     S
C130   H131    1.110   .     S
O134   C135    1.413   .     S
C135   H138    1.110   .     S
C135   H136    1.115   .     S
C135   H137    1.110   .     S
C141   O191    1.294   .     A
C141   C152    1.448   .     S
C141   O49     1.294   1_655 S
C142   O192    1.294   .     A
C142   C151    1.448   .     S
C143   C172    1.410   .     A
C143   H181    1.079   .     S
C143   C145    1.388   .     A
C144   H182    1.079   .     S
C144   C171    1.410   .     A
C144   C146    1.388   .     A
C145   H175    1.084   .     S
C145   C799    1.393   1_554 S
C146   H176    1.084   .     S
C146   C800    1.393   .     S
C147   C152    1.406   .     A
C147   O199    1.391   .     S
C147   C569    1.396   1_545 S
C148   O204    1.391   .     S
C148   C151    1.406   .     A
C148   C360    1.396   .     S
C149   H183    1.083   .     S
C149   C357    1.396   .     S
C149   C11     1.400   1_655 S
C150   H184    1.083   .     S
C150   C568    1.396   1_545 S
C152   C10     1.400   1_655 S
C153   N188    1.386   .     A
C153   C155    1.414   .     A
C153   I209    2.123   .     S
C154   N187    1.386   .     A
C154   C156    1.414   .     A
C154   I210    2.123   .     S
C155   N187    1.356   .     A
C155   H185    1.082   .     S
C156   N188    1.356   .     A
C156   H186    1.082   .     S
C157   O195    1.299   .     A
C157   C159    1.464   .     S
C157   O53     1.297   1_655 S
C158   O196    1.299   .     A
C158   C160    1.464   .     S
C159   C163    1.402   .     A
C159   C165    1.404   .     A
C160   C164    1.402   .     A
C160   C166    1.404   .     A
C161   C169    1.400   .     A
C161   C163    1.391   .     A
C161   H179    1.084   .     S
C162   H180    1.084   .     S
C162   C164    1.391   .     A
C162   C170    1.400   .     A
C163   H38     1.083   1_655 S
C165   I198    2.156   .     S
C165   C167    1.413   .     A
C166   C168    1.413   .     A
C166   I197    2.156   .     S
C167   C169    1.418   .     A
C167   C171    1.422   .     A
C168   C170    1.418   .     A
C168   C172    1.422   .     A
C169   C775    1.393   .     S
C170   C776    1.393   1_554 S
C171   C802    1.422   .     S
C172   C801    1.422   1_554 S
Cu173  O196    1.933   .     S
Cu173  O192    1.964   .     S
Cu173  O193    1.945   .     S
Cu173  N187    2.022   .     S
Cu173  O189    1.958   .     S
Cu174  O190    1.958   .     S
Cu174  O191    1.964   .     S
Cu174  O194    1.945   .     S
Cu174  N188    2.022   .     S
Cu174  O195    1.933   .     S
Cu174  Cu33    2.691   1_655 S
H177   C24     1.083   1_655 S
O190   C2      1.294   1_655 S
O194   C18     1.297   1_655 S
O199   C200    1.413   .     S
C200   H203    1.110   .     S
C200   H202    1.115   .     S
C200   H201    1.110   .     S
O204   C205    1.413   .     S
C205   H208    1.110   .     S
C205   H206    1.115   .     S
C205   H207    1.110   .     S
C211   O261    1.294   .     A
C211   C222    1.448   .     S
C211   O329    1.294   .     S
C212   O262    1.294   .     A
C212   C221    1.448   .     S
C212   O400    1.294   1_455 S
C213   C242    1.410   .     A
C213   H251    1.079   .     S
C213   C215    1.388   .     A
C214   H252    1.079   .     S
C214   C241    1.410   .     A
C214   C216    1.388   .     A
C215   H245    1.084   .     S
C215   C869    1.393   1_554 S
C216   H246    1.084   .     S
C216   C870    1.393   .     S
C217   C222    1.406   .     A
C217   O269    1.391   .     S
C218   O274    1.391   .     S
C218   C221    1.406   .     A
C218   C430    1.396   .     S
C219   H253    1.083   .     S
C219   C427    1.396   .     S
C219   C291    1.400   .     S
C220   H254    1.083   .     S
C220   C362    1.400   1_455 S
C221   C359    1.400   1_455 S
C222   C290    1.400   .     S
C223   N258    1.386   .     A
C223   C225    1.414   .     A
C223   I279    2.123   .     S
C224   N257    1.386   .     A
C224   C226    1.414   .     A
C224   I280    2.123   .     S
C225   N257    1.356   .     A
C225   H255    1.082   .     S
C226   N258    1.356   .     A
C226   H256    1.082   .     S
C227   O265    1.299   .     A
C227   C229    1.464   .     S
C227   O333    1.297   .     S
C228   O266    1.299   .     A
C228   C230    1.464   .     S
C228   O404    1.297   1_455 S
C229   C233    1.402   .     A
C229   C235    1.404   .     A
C230   C234    1.402   .     A
C230   C236    1.404   .     A
C231   C239    1.400   .     A
C231   C233    1.391   .     A
C231   H249    1.084   .     S
C232   H250    1.084   .     S
C232   C234    1.391   .     A
C232   C240    1.400   .     A
C233   H318    1.083   .     S
C234   H387    1.083   1_455 S
C235   I268    2.156   .     S
C235   C237    1.413   .     A
C236   C238    1.413   .     A
C236   I267    2.156   .     S
C237   C239    1.418   .     A
C237   C241    1.422   .     A
C238   C240    1.418   .     A
C238   C242    1.422   .     A
C239   C845    1.393   .     S
C240   C846    1.393   1_554 S
C241   C872    1.422   .     S
C242   C871    1.422   1_554 S
Cu243  O266    1.933   .     S
Cu243  O262    1.964   .     S
Cu243  O263    1.945   .     S
Cu243  N257    2.022   .     S
Cu243  O259    1.958   .     S
Cu243  Cu384   2.691   1_455 S
Cu244  O260    1.958   .     S
Cu244  O261    1.964   .     S
Cu244  O264    1.945   .     S
Cu244  N258    2.022   .     S
Cu244  O265    1.933   .     S
Cu244  Cu313   2.691   .     S
H247   C304    1.083   .     S
H248   C373    1.083   1_455 S
O259   C351    1.294   1_455 S
O260   C282    1.294   .     S
O263   C367    1.297   1_455 S
O264   C298    1.297   .     S
O269   C270    1.413   .     S
C270   H273    1.110   .     S
C270   H272    1.115   .     S
C270   H271    1.110   .     S
O274   C275    1.413   .     S
C275   H278    1.110   .     S
C275   H276    1.115   .     S
C275   H277    1.110   .     S
C281   O331    1.294   .     A
C281   C292    1.448   .     S
C281   O399    1.294   .     S
C282   O332    1.294   .     A
C282   C291    1.448   .     S
C283   C312    1.410   .     A
C283   H321    1.079   .     S
C283   C285    1.388   .     A
C284   H322    1.079   .     S
C284   C311    1.410   .     A
C284   C286    1.388   .     A
C285   H315    1.084   .     S
C285   C939    1.393   1_554 S
C286   H316    1.084   .     S
C286   C940    1.393   .     S
C287   C292    1.406   .     A
C287   O339    1.391   .     S
C288   O344    1.391   .     S
C288   C291    1.406   .     A
C288   C500    1.396   .     S
C289   H323    1.083   .     S
C289   C497    1.396   .     S
C289   C361    1.400   .     S
C290   H324    1.083   .     S
C292   C360    1.400   .     S
C293   N328    1.386   .     A
C293   C295    1.414   .     A
C293   I349    2.123   .     S
C294   N327    1.386   .     A
C294   C296    1.414   .     A
C294   I350    2.123   .     S
C295   N327    1.356   .     A
C295   H325    1.082   .     S
C296   N328    1.356   .     A
C296   H326    1.082   .     S
C297   O335    1.299   .     A
C297   C299    1.464   .     S
C297   O403    1.297   .     S
C298   O336    1.299   .     A
C298   C300    1.464   .     S
C299   C303    1.402   .     A
C299   C305    1.404   .     A
C300   C304    1.402   .     A
C300   C306    1.404   .     A
C301   C309    1.400   .     A
C301   C303    1.391   .     A
C301   H319    1.084   .     S
C302   H320    1.084   .     S
C302   C304    1.391   .     A
C302   C310    1.400   .     A
C303   H388    1.083   .     S
C305   I338    2.156   .     S
C305   C307    1.413   .     A
C306   C308    1.413   .     A
C306   I337    2.156   .     S
C307   C309    1.418   .     A
C307   C311    1.422   .     A
C308   C310    1.418   .     A
C308   C312    1.422   .     A
C309   C915    1.393   .     S
C310   C916    1.393   1_554 S
C311   C942    1.422   .     S
C312   C941    1.422   1_554 S
Cu313  O336    1.933   .     S
Cu313  O332    1.964   .     S
Cu313  O333    1.945   .     S
Cu313  N327    2.022   .     S
Cu313  O329    1.958   .     S
Cu314  O330    1.958   .     S
Cu314  O331    1.964   .     S
Cu314  O334    1.945   .     S
Cu314  N328    2.022   .     S
Cu314  O335    1.933   .     S
Cu314  Cu383   2.691   .     S
H317   C374    1.083   .     S
O330   C352    1.294   .     S
O334   C368    1.297   .     S
O339   C340    1.413   .     S
C340   H343    1.110   .     S
C340   H342    1.115   .     S
C340   H341    1.110   .     S
O344   C345    1.413   .     S
C345   H348    1.110   .     S
C345   H346    1.115   .     S
C345   H347    1.110   .     S
C351   O401    1.294   .     A
C351   C362    1.448   .     S
C351   O259    1.294   1_655 S
C352   O402    1.294   .     A
C352   C361    1.448   .     S
C353   C382    1.410   .     A
C353   H391    1.079   .     S
C353   C355    1.388   .     A
C354   H392    1.079   .     S
C354   C381    1.410   .     A
C354   C356    1.388   .     A
C355   H385    1.084   .     S
C355   C1009   1.393   1_554 S
C356   H386    1.084   .     S
C356   C1010   1.393   .     S
C357   C362    1.406   .     A
C357   O409    1.391   .     S
C358   O414    1.391   .     S
C358   C361    1.406   .     A
C358   C570    1.396   .     S
C359   H393    1.083   .     S
C359   C567    1.396   .     S
C359   C221    1.400   1_655 S
C360   H394    1.083   .     S
C362   C220    1.400   1_655 S
C363   N398    1.386   .     A
C363   C365    1.414   .     A
C363   I419    2.123   .     S
C364   N397    1.386   .     A
C364   C366    1.414   .     A
C364   I420    2.123   .     S
C365   N397    1.356   .     A
C365   H395    1.082   .     S
C366   N398    1.356   .     A
C366   H396    1.082   .     S
C367   O405    1.299   .     A
C367   C369    1.464   .     S
C367   O263    1.297   1_655 S
C368   O406    1.299   .     A
C368   C370    1.464   .     S
C369   C373    1.402   .     A
C369   C375    1.404   .     A
C370   C374    1.402   .     A
C370   C376    1.404   .     A
C371   C379    1.400   .     A
C371   C373    1.391   .     A
C371   H389    1.084   .     S
C372   H390    1.084   .     S
C372   C374    1.391   .     A
C372   C380    1.400   .     A
C373   H248    1.083   1_655 S
C375   I408    2.156   .     S
C375   C377    1.413   .     A
C376   C378    1.413   .     A
C376   I407    2.156   .     S
C377   C379    1.418   .     A
C377   C381    1.422   .     A
C378   C380    1.418   .     A
C378   C382    1.422   .     A
C379   C985    1.393   .     S
C380   C986    1.393   1_554 S
C381   C1012   1.422   .     S
C382   C1011   1.422   1_554 S
Cu383  O406    1.933   .     S
Cu383  O402    1.964   .     S
Cu383  O403    1.945   .     S
Cu383  N397    2.022   .     S
Cu383  O399    1.958   .     S
Cu384  O400    1.958   .     S
Cu384  O401    1.964   .     S
Cu384  O404    1.945   .     S
Cu384  N398    2.022   .     S
Cu384  O405    1.933   .     S
Cu384  Cu243   2.691   1_655 S
H387   C234    1.083   1_655 S
O400   C212    1.294   1_655 S
O404   C228    1.297   1_655 S
O409   C410    1.413   .     S
C410   H413    1.110   .     S
C410   H412    1.115   .     S
C410   H411    1.110   .     S
O414   C415    1.413   .     S
C415   H418    1.110   .     S
C415   H416    1.115   .     S
C415   H417    1.110   .     S
C421   O471    1.294   .     A
C421   C432    1.448   .     S
C421   O539    1.294   .     S
C422   O472    1.294   .     A
C422   C431    1.448   .     S
C422   O610    1.294   1_455 S
C423   C452    1.410   .     A
C423   H461    1.079   .     S
C423   C425    1.388   .     A
C424   H462    1.079   .     S
C424   C451    1.410   .     A
C424   C426    1.388   .     A
C425   H455    1.084   .     S
C425   C1079   1.393   1_554 S
C426   H456    1.084   .     S
C426   C1080   1.393   .     S
C427   C432    1.406   .     A
C427   O479    1.391   .     S
C428   O484    1.391   .     S
C428   C431    1.406   .     A
C428   C10     1.396   1_565 S
C429   H463    1.083   .     S
C429   C7      1.396   1_565 S
C429   C501    1.400   .     S
C430   H464    1.083   .     S
C430   C572    1.400   1_455 S
C431   C569    1.400   1_455 S
C432   C500    1.400   .     S
C433   N468    1.386   .     A
C433   C435    1.414   .     A
C433   I489    2.123   .     S
C434   N467    1.386   .     A
C434   C436    1.414   .     A
C434   I490    2.123   .     S
C435   N467    1.356   .     A
C435   H465    1.082   .     S
C436   N468    1.356   .     A
C436   H466    1.082   .     S
C437   O475    1.299   .     A
C437   C439    1.464   .     S
C437   O543    1.297   .     S
C438   O476    1.299   .     A
C438   C440    1.464   .     S
C438   O614    1.297   1_455 S
C439   C443    1.402   .     A
C439   C445    1.404   .     A
C440   C444    1.402   .     A
C440   C446    1.404   .     A
C441   C449    1.400   .     A
C441   C443    1.391   .     A
C441   H459    1.084   .     S
C442   H460    1.084   .     S
C442   C444    1.391   .     A
C442   C450    1.400   .     A
C443   H528    1.083   .     S
C444   H597    1.083   1_455 S
C445   I478    2.156   .     S
C445   C447    1.413   .     A
C446   C448    1.413   .     A
C446   I477    2.156   .     S
C447   C449    1.418   .     A
C447   C451    1.422   .     A
C448   C450    1.418   .     A
C448   C452    1.422   .     A
C449   C1055   1.393   .     S
C450   C1056   1.393   1_554 S
C451   C1082   1.422   .     S
C452   C1081   1.422   1_554 S
Cu453  O476    1.933   .     S
Cu453  O472    1.964   .     S
Cu453  O473    1.945   .     S
Cu453  N467    2.022   .     S
Cu453  O469    1.958   .     S
Cu453  Cu594   2.691   1_455 S
Cu454  O470    1.958   .     S
Cu454  O471    1.964   .     S
Cu454  O474    1.945   .     S
Cu454  N468    2.022   .     S
Cu454  O475    1.933   .     S
Cu454  Cu523   2.691   .     S
H457   C514    1.083   .     S
H458   C583    1.083   1_455 S
O469   C561    1.294   1_455 S
O470   C492    1.294   .     S
O473   C577    1.297   1_455 S
O474   C508    1.297   .     S
O479   C480    1.413   .     S
C480   H483    1.110   .     S
C480   H482    1.115   .     S
C480   H481    1.110   .     S
O484   C485    1.413   .     S
C485   H488    1.110   .     S
C485   H486    1.115   .     S
C485   H487    1.110   .     S
C491   O541    1.294   .     A
C491   C502    1.448   .     S
C491   O609    1.294   .     S
C492   O542    1.294   .     A
C492   C501    1.448   .     S
C493   C522    1.410   .     A
C493   H531    1.079   .     S
C493   C495    1.388   .     A
C494   H532    1.079   .     S
C494   C521    1.410   .     A
C494   C496    1.388   .     A
C495   H525    1.084   .     S
C495   C1149   1.393   1_554 S
C496   H526    1.084   .     S
C496   C1150   1.393   .     S
C497   C502    1.406   .     A
C497   O549    1.391   .     S
C498   O554    1.391   .     S
C498   C501    1.406   .     A
C498   C80     1.396   1_565 S
C499   H533    1.083   .     S
C499   C77     1.396   1_565 S
C499   C571    1.400   .     S
C500   H534    1.083   .     S
C502   C570    1.400   .     S
C503   N538    1.386   .     A
C503   C505    1.414   .     A
C503   I559    2.123   .     S
C504   N537    1.386   .     A
C504   C506    1.414   .     A
C504   I560    2.123   .     S
C505   N537    1.356   .     A
C505   H535    1.082   .     S
C506   N538    1.356   .     A
C506   H536    1.082   .     S
C507   O545    1.299   .     A
C507   C509    1.464   .     S
C507   O613    1.297   .     S
C508   O546    1.299   .     A
C508   C510    1.464   .     S
C509   C513    1.402   .     A
C509   C515    1.404   .     A
C510   C514    1.402   .     A
C510   C516    1.404   .     A
C511   C519    1.400   .     A
C511   C513    1.391   .     A
C511   H529    1.084   .     S
C512   H530    1.084   .     S
C512   C514    1.391   .     A
C512   C520    1.400   .     A
C513   H598    1.083   .     S
C515   I548    2.156   .     S
C515   C517    1.413   .     A
C516   C518    1.413   .     A
C516   I547    2.156   .     S
C517   C519    1.418   .     A
C517   C521    1.422   .     A
C518   C520    1.418   .     A
C518   C522    1.422   .     A
C519   C1125   1.393   .     S
C520   C1126   1.393   1_554 S
C521   C1152   1.422   .     S
C522   C1151   1.422   1_554 S
Cu523  O546    1.933   .     S
Cu523  O542    1.964   .     S
Cu523  O543    1.945   .     S
Cu523  N537    2.022   .     S
Cu523  O539    1.958   .     S
Cu524  O540    1.958   .     S
Cu524  O541    1.964   .     S
Cu524  O544    1.945   .     S
Cu524  N538    2.022   .     S
Cu524  O545    1.933   .     S
Cu524  Cu593   2.691   .     S
H527   C584    1.083   .     S
O540   C562    1.294   .     S
O544   C578    1.297   .     S
O549   C550    1.413   .     S
C550   H553    1.110   .     S
C550   H552    1.115   .     S
C550   H551    1.110   .     S
O554   C555    1.413   .     S
C555   H558    1.110   .     S
C555   H556    1.115   .     S
C555   H557    1.110   .     S
C561   O611    1.294   .     A
C561   C572    1.448   .     S
C561   O469    1.294   1_655 S
C562   O612    1.294   .     A
C562   C571    1.448   .     S
C563   C592    1.410   .     A
C563   H601    1.079   .     S
C563   C565    1.388   .     A
C564   H602    1.079   .     S
C564   C591    1.410   .     A
C564   C566    1.388   .     A
C565   H595    1.084   .     S
C565   C1219   1.393   1_554 S
C566   H596    1.084   .     S
C566   C1220   1.393   .     S
C567   C572    1.406   .     A
C567   O619    1.391   .     S
C568   O624    1.391   .     S
C568   C571    1.406   .     A
C568   C150    1.396   1_565 S
C569   H603    1.083   .     S
C569   C147    1.396   1_565 S
C569   C431    1.400   1_655 S
C570   H604    1.083   .     S
C572   C430    1.400   1_655 S
C573   N608    1.386   .     A
C573   C575    1.414   .     A
C573   I629    2.123   .     S
C574   N607    1.386   .     A
C574   C576    1.414   .     A
C574   I630    2.123   .     S
C575   N607    1.356   .     A
C575   H605    1.082   .     S
C576   N608    1.356   .     A
C576   H606    1.082   .     S
C577   O615    1.299   .     A
C577   C579    1.464   .     S
C577   O473    1.297   1_655 S
C578   O616    1.299   .     A
C578   C580    1.464   .     S
C579   C583    1.402   .     A
C579   C585    1.404   .     A
C580   C584    1.402   .     A
C580   C586    1.404   .     A
C581   C589    1.400   .     A
C581   C583    1.391   .     A
C581   H599    1.084   .     S
C582   H600    1.084   .     S
C582   C584    1.391   .     A
C582   C590    1.400   .     A
C583   H458    1.083   1_655 S
C585   I618    2.156   .     S
C585   C587    1.413   .     A
C586   C588    1.413   .     A
C586   I617    2.156   .     S
C587   C589    1.418   .     A
C587   C591    1.422   .     A
C588   C590    1.418   .     A
C588   C592    1.422   .     A
C589   C1195   1.393   .     S
C590   C1196   1.393   1_554 S
C591   C1222   1.422   .     S
C592   C1221   1.422   1_554 S
Cu593  O616    1.933   .     S
Cu593  O612    1.964   .     S
Cu593  O613    1.945   .     S
Cu593  N607    2.022   .     S
Cu593  O609    1.958   .     S
Cu594  O610    1.958   .     S
Cu594  O611    1.964   .     S
Cu594  O614    1.945   .     S
Cu594  N608    2.022   .     S
Cu594  O615    1.933   .     S
Cu594  Cu453   2.691   1_655 S
H597   C444    1.083   1_655 S
O610   C422    1.294   1_655 S
O614   C438    1.297   1_655 S
O619   C620    1.413   .     S
C620   H623    1.110   .     S
C620   H622    1.115   .     S
C620   H621    1.110   .     S
O624   C625    1.413   .     S
C625   H628    1.110   .     S
C625   H626    1.115   .     S
C625   H627    1.110   .     S
C631   O681    1.294   .     A
C631   C642    1.448   .     S
C631   O749    1.294   .     S
C632   O682    1.294   .     A
C632   C641    1.448   .     S
C632   O820    1.294   1_455 S
C633   C662    1.410   .     A
C633   H671    1.079   .     S
C633   C635    1.388   .     A
C634   H672    1.079   .     S
C634   C661    1.410   .     A
C634   C636    1.388   .     A
C635   H665    1.084   .     S
C636   H666    1.084   .     S
C636   C30     1.393   1_556 S
C637   C642    1.406   .     A
C637   O689    1.391   .     S
C637   C1059   1.396   1_545 S
C638   O694    1.391   .     S
C638   C641    1.406   .     A
C638   C850    1.396   .     S
C639   H673    1.083   .     S
C639   C847    1.396   .     S
C639   C711    1.400   .     S
C640   H674    1.083   .     S
C640   C1058   1.396   1_545 S
C640   C782    1.400   1_455 S
C641   C779    1.400   1_455 S
C642   C710    1.400   .     S
C643   N678    1.386   .     A
C643   C645    1.414   .     A
C643   I699    2.123   .     S
C644   N677    1.386   .     A
C644   C646    1.414   .     A
C644   I700    2.123   .     S
C645   N677    1.356   .     A
C645   H675    1.082   .     S
C646   N678    1.356   .     A
C646   H676    1.082   .     S
C647   O685    1.299   .     A
C647   C649    1.464   .     S
C647   O753    1.297   .     S
C648   O686    1.299   .     A
C648   C650    1.464   .     S
C648   O824    1.297   1_455 S
C649   C653    1.402   .     A
C649   C655    1.404   .     A
C650   C654    1.402   .     A
C650   C656    1.404   .     A
C651   C659    1.400   .     A
C651   C653    1.391   .     A
C651   H669    1.084   .     S
C652   H670    1.084   .     S
C652   C654    1.391   .     A
C652   C660    1.400   .     A
C653   H738    1.083   .     S
C654   H807    1.083   1_455 S
C655   I688    2.156   .     S
C655   C657    1.413   .     A
C656   C658    1.413   .     A
C656   I687    2.156   .     S
C657   C659    1.418   .     A
C657   C661    1.422   .     A
C658   C660    1.418   .     A
C658   C662    1.422   .     A
C659   C5      1.393   1_556 S
C661   C32     1.422   1_556 S
Cu663  O686    1.933   .     S
Cu663  O682    1.964   .     S
Cu663  O683    1.945   .     S
Cu663  N677    2.022   .     S
Cu663  O679    1.958   .     S
Cu663  Cu804   2.691   1_455 S
Cu664  O680    1.958   .     S
Cu664  O681    1.964   .     S
Cu664  O684    1.945   .     S
Cu664  N678    2.022   .     S
Cu664  O685    1.933   .     S
Cu664  Cu733   2.691   .     S
H667   C724    1.083   .     S
H668   C793    1.083   1_455 S
O679   C771    1.294   1_455 S
O680   C702    1.294   .     S
O683   C787    1.297   1_455 S
O684   C718    1.297   .     S
O689   C690    1.413   .     S
C690   H693    1.110   .     S
C690   H692    1.115   .     S
C690   H691    1.110   .     S
O694   C695    1.413   .     S
C695   H698    1.110   .     S
C695   H696    1.115   .     S
C695   H697    1.110   .     S
C701   O751    1.294   .     A
C701   C712    1.448   .     S
C701   O819    1.294   .     S
C702   O752    1.294   .     A
C702   C711    1.448   .     S
C703   C732    1.410   .     A
C703   H741    1.079   .     S
C703   C705    1.388   .     A
C704   H742    1.079   .     S
C704   C731    1.410   .     A
C704   C706    1.388   .     A
C705   H735    1.084   .     S
C706   H736    1.084   .     S
C706   C100    1.393   1_556 S
C707   C712    1.406   .     A
C707   O759    1.391   .     S
C707   C1129   1.396   1_545 S
C708   O764    1.391   .     S
C708   C711    1.406   .     A
C708   C920    1.396   .     S
C709   H743    1.083   .     S
C709   C917    1.396   .     S
C709   C781    1.400   .     S
C710   H744    1.083   .     S
C710   C1128   1.396   1_545 S
C712   C780    1.400   .     S
C713   N748    1.386   .     A
C713   C715    1.414   .     A
C713   I769    2.123   .     S
C714   N747    1.386   .     A
C714   C716    1.414   .     A
C714   I770    2.123   .     S
C715   N747    1.356   .     A
C715   H745    1.082   .     S
C716   N748    1.356   .     A
C716   H746    1.082   .     S
C717   O755    1.299   .     A
C717   C719    1.464   .     S
C717   O823    1.297   .     S
C718   O756    1.299   .     A
C718   C720    1.464   .     S
C719   C723    1.402   .     A
C719   C725    1.404   .     A
C720   C724    1.402   .     A
C720   C726    1.404   .     A
C721   C729    1.400   .     A
C721   C723    1.391   .     A
C721   H739    1.084   .     S
C722   H740    1.084   .     S
C722   C724    1.391   .     A
C722   C730    1.400   .     A
C723   H808    1.083   .     S
C725   I758    2.156   .     S
C725   C727    1.413   .     A
C726   C728    1.413   .     A
C726   I757    2.156   .     S
C727   C729    1.418   .     A
C727   C731    1.422   .     A
C728   C730    1.418   .     A
C728   C732    1.422   .     A
C729   C75     1.393   1_556 S
C731   C102    1.422   1_556 S
Cu733  O756    1.933   .     S
Cu733  O752    1.964   .     S
Cu733  O753    1.945   .     S
Cu733  N747    2.022   .     S
Cu733  O749    1.958   .     S
Cu734  O750    1.958   .     S
Cu734  O751    1.964   .     S
Cu734  O754    1.945   .     S
Cu734  N748    2.022   .     S
Cu734  O755    1.933   .     S
Cu734  Cu803   2.691   .     S
H737   C794    1.083   .     S
O750   C772    1.294   .     S
O754   C788    1.297   .     S
O759   C760    1.413   .     S
C760   H763    1.110   .     S
C760   H762    1.115   .     S
C760   H761    1.110   .     S
O764   C765    1.413   .     S
C765   H768    1.110   .     S
C765   H766    1.115   .     S
C765   H767    1.110   .     S
C771   O821    1.294   .     A
C771   C782    1.448   .     S
C771   O679    1.294   1_655 S
C772   O822    1.294   .     A
C772   C781    1.448   .     S
C773   C802    1.410   .     A
C773   H811    1.079   .     S
C773   C775    1.388   .     A
C774   H812    1.079   .     S
C774   C801    1.410   .     A
C774   C776    1.388   .     A
C775   H805    1.084   .     S
C776   H806    1.084   .     S
C776   C170    1.393   1_556 S
C777   C782    1.406   .     A
C777   O829    1.391   .     S
C777   C1199   1.396   1_545 S
C778   O834    1.391   .     S
C778   C781    1.406   .     A
C778   C990    1.396   .     S
C779   H813    1.083   .     S
C779   C987    1.396   .     S
C779   C641    1.400   1_655 S
C780   H814    1.083   .     S
C780   C1198   1.396   1_545 S
C782   C640    1.400   1_655 S
C783   N818    1.386   .     A
C783   C785    1.414   .     A
C783   I839    2.123   .     S
C784   N817    1.386   .     A
C784   C786    1.414   .     A
C784   I840    2.123   .     S
C785   N817    1.356   .     A
C785   H815    1.082   .     S
C786   N818    1.356   .     A
C786   H816    1.082   .     S
C787   O825    1.299   .     A
C787   C789    1.464   .     S
C787   O683    1.297   1_655 S
C788   O826    1.299   .     A
C788   C790    1.464   .     S
C789   C793    1.402   .     A
C789   C795    1.404   .     A
C790   C794    1.402   .     A
C790   C796    1.404   .     A
C791   C799    1.400   .     A
C791   C793    1.391   .     A
C791   H809    1.084   .     S
C792   H810    1.084   .     S
C792   C794    1.391   .     A
C792   C800    1.400   .     A
C793   H668    1.083   1_655 S
C795   I828    2.156   .     S
C795   C797    1.413   .     A
C796   C798    1.413   .     A
C796   I827    2.156   .     S
C797   C799    1.418   .     A
C797   C801    1.422   .     A
C798   C800    1.418   .     A
C798   C802    1.422   .     A
C799   C145    1.393   1_556 S
C801   C172    1.422   1_556 S
Cu803  O826    1.933   .     S
Cu803  O822    1.964   .     S
Cu803  O823    1.945   .     S
Cu803  N817    2.022   .     S
Cu803  O819    1.958   .     S
Cu804  O820    1.958   .     S
Cu804  O821    1.964   .     S
Cu804  O824    1.945   .     S
Cu804  N818    2.022   .     S
Cu804  O825    1.933   .     S
Cu804  Cu663   2.691   1_655 S
H807   C654    1.083   1_655 S
O820   C632    1.294   1_655 S
O824   C648    1.297   1_655 S
O829   C830    1.413   .     S
C830   H833    1.110   .     S
C830   H832    1.115   .     S
C830   H831    1.110   .     S
O834   C835    1.413   .     S
C835   H838    1.110   .     S
C835   H836    1.115   .     S
C835   H837    1.110   .     S
C841   O891    1.294   .     A
C841   C852    1.448   .     S
C841   O959    1.294   .     S
C842   O892    1.294   .     A
C842   C851    1.448   .     S
C842   O1030   1.294   1_455 S
C843   C872    1.410   .     A
C843   H881    1.079   .     S
C843   C845    1.388   .     A
C844   H882    1.079   .     S
C844   C871    1.410   .     A
C844   C846    1.388   .     A
C845   H875    1.084   .     S
C846   H876    1.084   .     S
C846   C240    1.393   1_556 S
C847   C852    1.406   .     A
C847   O899    1.391   .     S
C848   O904    1.391   .     S
C848   C851    1.406   .     A
C848   C1060   1.396   .     S
C849   H883    1.083   .     S
C849   C1057   1.396   .     S
C849   C921    1.400   .     S
C850   H884    1.083   .     S
C850   C992    1.400   1_455 S
C851   C989    1.400   1_455 S
C852   C920    1.400   .     S
C853   N888    1.386   .     A
C853   C855    1.414   .     A
C853   I909    2.123   .     S
C854   N887    1.386   .     A
C854   C856    1.414   .     A
C854   I910    2.123   .     S
C855   N887    1.356   .     A
C855   H885    1.082   .     S
C856   N888    1.356   .     A
C856   H886    1.082   .     S
C857   O895    1.299   .     A
C857   C859    1.464   .     S
C857   O963    1.297   .     S
C858   O896    1.299   .     A
C858   C860    1.464   .     S
C858   O1034   1.297   1_455 S
C859   C863    1.402   .     A
C859   C865    1.404   .     A
C860   C864    1.402   .     A
C860   C866    1.404   .     A
C861   C869    1.400   .     A
C861   C863    1.391   .     A
C861   H879    1.084   .     S
C862   H880    1.084   .     S
C862   C864    1.391   .     A
C862   C870    1.400   .     A
C863   H948    1.083   .     S
C864   H1017   1.083   1_455 S
C865   I898    2.156   .     S
C865   C867    1.413   .     A
C866   C868    1.413   .     A
C866   I897    2.156   .     S
C867   C869    1.418   .     A
C867   C871    1.422   .     A
C868   C870    1.418   .     A
C868   C872    1.422   .     A
C869   C215    1.393   1_556 S
C871   C242    1.422   1_556 S
Cu873  O896    1.933   .     S
Cu873  O892    1.964   .     S
Cu873  O893    1.945   .     S
Cu873  N887    2.022   .     S
Cu873  O889    1.958   .     S
Cu873  Cu1014  2.691   1_455 S
Cu874  O890    1.958   .     S
Cu874  O891    1.964   .     S
Cu874  O894    1.945   .     S
Cu874  N888    2.022   .     S
Cu874  O895    1.933   .     S
Cu874  Cu943   2.691   .     S
H877   C934    1.083   .     S
H878   C1003   1.083   1_455 S
O889   C981    1.294   1_455 S
O890   C912    1.294   .     S
O893   C997    1.297   1_455 S
O894   C928    1.297   .     S
O899   C900    1.413   .     S
C900   H903    1.110   .     S
C900   H902    1.115   .     S
C900   H901    1.110   .     S
O904   C905    1.413   .     S
C905   H908    1.110   .     S
C905   H906    1.115   .     S
C905   H907    1.110   .     S
C911   O961    1.294   .     A
C911   C922    1.448   .     S
C911   O1029   1.294   .     S
C912   O962    1.294   .     A
C912   C921    1.448   .     S
C913   C942    1.410   .     A
C913   H951    1.079   .     S
C913   C915    1.388   .     A
C914   H952    1.079   .     S
C914   C941    1.410   .     A
C914   C916    1.388   .     A
C915   H945    1.084   .     S
C916   H946    1.084   .     S
C916   C310    1.393   1_556 S
C917   C922    1.406   .     A
C917   O969    1.391   .     S
C918   O974    1.391   .     S
C918   C921    1.406   .     A
C918   C1130   1.396   .     S
C919   H953    1.083   .     S
C919   C1127   1.396   .     S
C919   C991    1.400   .     S
C920   H954    1.083   .     S
C922   C990    1.400   .     S
C923   N958    1.386   .     A
C923   C925    1.414   .     A
C923   I979    2.123   .     S
C924   N957    1.386   .     A
C924   C926    1.414   .     A
C924   I980    2.123   .     S
C925   N957    1.356   .     A
C925   H955    1.082   .     S
C926   N958    1.356   .     A
C926   H956    1.082   .     S
C927   O965    1.299   .     A
C927   C929    1.464   .     S
C927   O1033   1.297   .     S
C928   O966    1.299   .     A
C928   C930    1.464   .     S
C929   C933    1.402   .     A
C929   C935    1.404   .     A
C930   C934    1.402   .     A
C930   C936    1.404   .     A
C931   C939    1.400   .     A
C931   C933    1.391   .     A
C931   H949    1.084   .     S
C932   H950    1.084   .     S
C932   C934    1.391   .     A
C932   C940    1.400   .     A
C933   H1018   1.083   .     S
C935   I968    2.156   .     S
C935   C937    1.413   .     A
C936   C938    1.413   .     A
C936   I967    2.156   .     S
C937   C939    1.418   .     A
C937   C941    1.422   .     A
C938   C940    1.418   .     A
C938   C942    1.422   .     A
C939   C285    1.393   1_556 S
C941   C312    1.422   1_556 S
Cu943  O966    1.933   .     S
Cu943  O962    1.964   .     S
Cu943  O963    1.945   .     S
Cu943  N957    2.022   .     S
Cu943  O959    1.958   .     S
Cu944  O960    1.958   .     S
Cu944  O961    1.964   .     S
Cu944  O964    1.945   .     S
Cu944  N958    2.022   .     S
Cu944  O965    1.933   .     S
Cu944  Cu1013  2.691   .     S
H947   C1004   1.083   .     S
O960   C982    1.294   .     S
O964   C998    1.297   .     S
O969   C970    1.413   .     S
C970   H973    1.110   .     S
C970   H972    1.115   .     S
C970   H971    1.110   .     S
O974   C975    1.413   .     S
C975   H978    1.110   .     S
C975   H976    1.115   .     S
C975   H977    1.110   .     S
C981   O1031   1.294   .     A
C981   C992    1.448   .     S
C981   O889    1.294   1_655 S
C982   O1032   1.294   .     A
C982   C991    1.448   .     S
C983   C1012   1.410   .     A
C983   H1021   1.079   .     S
C983   C985    1.388   .     A
C984   H1022   1.079   .     S
C984   C1011   1.410   .     A
C984   C986    1.388   .     A
C985   H1015   1.084   .     S
C986   H1016   1.084   .     S
C986   C380    1.393   1_556 S
C987   C992    1.406   .     A
C987   O1039   1.391   .     S
C988   O1044   1.391   .     S
C988   C991    1.406   .     A
C988   C1200   1.396   .     S
C989   H1023   1.083   .     S
C989   C1197   1.396   .     S
C989   C851    1.400   1_655 S
C990   H1024   1.083   .     S
C992   C850    1.400   1_655 S
C993   N1028   1.386   .     A
C993   C995    1.414   .     A
C993   I1049   2.123   .     S
C994   N1027   1.386   .     A
C994   C996    1.414   .     A
C994   I1050   2.123   .     S
C995   N1027   1.356   .     A
C995   H1025   1.082   .     S
C996   N1028   1.356   .     A
C996   H1026   1.082   .     S
C997   O1035   1.299   .     A
C997   C999    1.464   .     S
C997   O893    1.297   1_655 S
C998   O1036   1.299   .     A
C998   C1000   1.464   .     S
C999   C1003   1.402   .     A
C999   C1005   1.404   .     A
C1000  C1004   1.402   .     A
C1000  C1006   1.404   .     A
C1001  C1009   1.400   .     A
C1001  C1003   1.391   .     A
C1001  H1019   1.084   .     S
C1002  H1020   1.084   .     S
C1002  C1004   1.391   .     A
C1002  C1010   1.400   .     A
C1003  H878    1.083   1_655 S
C1005  I1038   2.156   .     S
C1005  C1007   1.413   .     A
C1006  C1008   1.413   .     A
C1006  I1037   2.156   .     S
C1007  C1009   1.418   .     A
C1007  C1011   1.422   .     A
C1008  C1010   1.418   .     A
C1008  C1012   1.422   .     A
C1009  C355    1.393   1_556 S
C1011  C382    1.422   1_556 S
Cu1013 O1036   1.933   .     S
Cu1013 O1032   1.964   .     S
Cu1013 O1033   1.945   .     S
Cu1013 N1027   2.022   .     S
Cu1013 O1029   1.958   .     S
Cu1014 O1030   1.958   .     S
Cu1014 O1031   1.964   .     S
Cu1014 O1034   1.945   .     S
Cu1014 N1028   2.022   .     S
Cu1014 O1035   1.933   .     S
Cu1014 Cu873   2.691   1_655 S
H1017  C864    1.083   1_655 S
O1030  C842    1.294   1_655 S
O1034  C858    1.297   1_655 S
O1039  C1040   1.413   .     S
C1040  H1043   1.110   .     S
C1040  H1042   1.115   .     S
C1040  H1041   1.110   .     S
O1044  C1045   1.413   .     S
C1045  H1048   1.110   .     S
C1045  H1046   1.115   .     S
C1045  H1047   1.110   .     S
C1051  O1101   1.294   .     A
C1051  C1062   1.448   .     S
C1051  O1169   1.294   .     S
C1052  O1102   1.294   .     A
C1052  C1061   1.448   .     S
C1052  O1240   1.294   1_455 S
C1053  C1082   1.410   .     A
C1053  H1091   1.079   .     S
C1053  C1055   1.388   .     A
C1054  H1092   1.079   .     S
C1054  C1081   1.410   .     A
C1054  C1056   1.388   .     A
C1055  H1085   1.084   .     S
C1056  H1086   1.084   .     S
C1056  C450    1.393   1_556 S
C1057  C1062   1.406   .     A
C1057  O1109   1.391   .     S
C1058  O1114   1.391   .     S
C1058  C1061   1.406   .     A
C1058  C640    1.396   1_565 S
C1059  H1093   1.083   .     S
C1059  C637    1.396   1_565 S
C1059  C1131   1.400   .     S
C1060  H1094   1.083   .     S
C1060  C1202   1.400   1_455 S
C1061  C1199   1.400   1_455 S
C1062  C1130   1.400   .     S
C1063  N1098   1.386   .     A
C1063  C1065   1.414   .     A
C1063  I1119   2.123   .     S
C1064  N1097   1.386   .     A
C1064  C1066   1.414   .     A
C1064  I1120   2.123   .     S
C1065  N1097   1.356   .     A
C1065  H1095   1.082   .     S
C1066  N1098   1.356   .     A
C1066  H1096   1.082   .     S
C1067  O1105   1.299   .     A
C1067  C1069   1.464   .     S
C1067  O1173   1.297   .     S
C1068  O1106   1.299   .     A
C1068  C1070   1.464   .     S
C1068  O1244   1.297   1_455 S
C1069  C1073   1.402   .     A
C1069  C1075   1.404   .     A
C1070  C1074   1.402   .     A
C1070  C1076   1.404   .     A
C1071  C1079   1.400   .     A
C1071  C1073   1.391   .     A
C1071  H1089   1.084   .     S
C1072  H1090   1.084   .     S
C1072  C1074   1.391   .     A
C1072  C1080   1.400   .     A
C1073  H1158   1.083   .     S
C1074  H1227   1.083   1_455 S
C1075  I1108   2.156   .     S
C1075  C1077   1.413   .     A
C1076  C1078   1.413   .     A
C1076  I1107   2.156   .     S
C1077  C1079   1.418   .     A
C1077  C1081   1.422   .     A
C1078  C1080   1.418   .     A
C1078  C1082   1.422   .     A
C1079  C425    1.393   1_556 S
C1081  C452    1.422   1_556 S
Cu1083 O1106   1.933   .     S
Cu1083 O1102   1.964   .     S
Cu1083 O1103   1.945   .     S
Cu1083 N1097   2.022   .     S
Cu1083 O1099   1.958   .     S
Cu1083 Cu1224  2.691   1_455 S
Cu1084 O1100   1.958   .     S
Cu1084 O1101   1.964   .     S
Cu1084 O1104   1.945   .     S
Cu1084 N1098   2.022   .     S
Cu1084 O1105   1.933   .     S
Cu1084 Cu1153  2.691   .     S
H1087  C1144   1.083   .     S
H1088  C1213   1.083   1_455 S
O1099  C1191   1.294   1_455 S
O1100  C1122   1.294   .     S
O1103  C1207   1.297   1_455 S
O1104  C1138   1.297   .     S
O1109  C1110   1.413   .     S
C1110  H1113   1.110   .     S
C1110  H1112   1.115   .     S
C1110  H1111   1.110   .     S
O1114  C1115   1.413   .     S
C1115  H1118   1.110   .     S
C1115  H1116   1.115   .     S
C1115  H1117   1.110   .     S
C1121  O1171   1.294   .     A
C1121  C1132   1.448   .     S
C1121  O1239   1.294   .     S
C1122  O1172   1.294   .     A
C1122  C1131   1.448   .     S
C1123  C1152   1.410   .     A
C1123  H1161   1.079   .     S
C1123  C1125   1.388   .     A
C1124  H1162   1.079   .     S
C1124  C1151   1.410   .     A
C1124  C1126   1.388   .     A
C1125  H1155   1.084   .     S
C1126  H1156   1.084   .     S
C1126  C520    1.393   1_556 S
C1127  C1132   1.406   .     A
C1127  O1179   1.391   .     S
C1128  O1184   1.391   .     S
C1128  C1131   1.406   .     A
C1128  C710    1.396   1_565 S
C1129  H1163   1.083   .     S
C1129  C707    1.396   1_565 S
C1129  C1201   1.400   .     S
C1130  H1164   1.083   .     S
C1132  C1200   1.400   .     S
C1133  N1168   1.386   .     A
C1133  C1135   1.414   .     A
C1133  I1189   2.123   .     S
C1134  N1167   1.386   .     A
C1134  C1136   1.414   .     A
C1134  I1190   2.123   .     S
C1135  N1167   1.356   .     A
C1135  H1165   1.082   .     S
C1136  N1168   1.356   .     A
C1136  H1166   1.082   .     S
C1137  O1175   1.299   .     A
C1137  C1139   1.464   .     S
C1137  O1243   1.297   .     S
C1138  O1176   1.299   .     A
C1138  C1140   1.464   .     S
C1139  C1143   1.402   .     A
C1139  C1145   1.404   .     A
C1140  C1144   1.402   .     A
C1140  C1146   1.404   .     A
C1141  C1149   1.400   .     A
C1141  C1143   1.391   .     A
C1141  H1159   1.084   .     S
C1142  H1160   1.084   .     S
C1142  C1144   1.391   .     A
C1142  C1150   1.400   .     A
C1143  H1228   1.083   .     S
C1145  I1178   2.156   .     S
C1145  C1147   1.413   .     A
C1146  C1148   1.413   .     A
C1146  I1177   2.156   .     S
C1147  C1149   1.418   .     A
C1147  C1151   1.422   .     A
C1148  C1150   1.418   .     A
C1148  C1152   1.422   .     A
C1149  C495    1.393   1_556 S
C1151  C522    1.422   1_556 S
Cu1153 O1176   1.933   .     S
Cu1153 O1172   1.964   .     S
Cu1153 O1173   1.945   .     S
Cu1153 N1167   2.022   .     S
Cu1153 O1169   1.958   .     S
Cu1154 O1170   1.958   .     S
Cu1154 O1171   1.964   .     S
Cu1154 O1174   1.945   .     S
Cu1154 N1168   2.022   .     S
Cu1154 O1175   1.933   .     S
Cu1154 Cu1223  2.691   .     S
H1157  C1214   1.083   .     S
O1170  C1192   1.294   .     S
O1174  C1208   1.297   .     S
O1179  C1180   1.413   .     S
C1180  H1183   1.110   .     S
C1180  H1182   1.115   .     S
C1180  H1181   1.110   .     S
O1184  C1185   1.413   .     S
C1185  H1188   1.110   .     S
C1185  H1186   1.115   .     S
C1185  H1187   1.110   .     S
C1191  O1241   1.294   .     A
C1191  C1202   1.448   .     S
C1191  O1099   1.294   1_655 S
C1192  O1242   1.294   .     A
C1192  C1201   1.448   .     S
C1193  C1222   1.410   .     A
C1193  H1231   1.079   .     S
C1193  C1195   1.388   .     A
C1194  H1232   1.079   .     S
C1194  C1221   1.410   .     A
C1194  C1196   1.388   .     A
C1195  H1225   1.084   .     S
C1196  H1226   1.084   .     S
C1196  C590    1.393   1_556 S
C1197  C1202   1.406   .     A
C1197  O1249   1.391   .     S
C1198  O1254   1.391   .     S
C1198  C1201   1.406   .     A
C1198  C780    1.396   1_565 S
C1199  H1233   1.083   .     S
C1199  C777    1.396   1_565 S
C1199  C1061   1.400   1_655 S
C1200  H1234   1.083   .     S
C1202  C1060   1.400   1_655 S
C1203  N1238   1.386   .     A
C1203  C1205   1.414   .     A
C1203  I1259   2.123   .     S
C1204  N1237   1.386   .     A
C1204  C1206   1.414   .     A
C1204  I1260   2.123   .     S
C1205  N1237   1.356   .     A
C1205  H1235   1.082   .     S
C1206  N1238   1.356   .     A
C1206  H1236   1.082   .     S
C1207  O1245   1.299   .     A
C1207  C1209   1.464   .     S
C1207  O1103   1.297   1_655 S
C1208  O1246   1.299   .     A
C1208  C1210   1.464   .     S
C1209  C1213   1.402   .     A
C1209  C1215   1.404   .     A
C1210  C1214   1.402   .     A
C1210  C1216   1.404   .     A
C1211  C1219   1.400   .     A
C1211  C1213   1.391   .     A
C1211  H1229   1.084   .     S
C1212  H1230   1.084   .     S
C1212  C1214   1.391   .     A
C1212  C1220   1.400   .     A
C1213  H1088   1.083   1_655 S
C1215  I1248   2.156   .     S
C1215  C1217   1.413   .     A
C1216  C1218   1.413   .     A
C1216  I1247   2.156   .     S
C1217  C1219   1.418   .     A
C1217  C1221   1.422   .     A
C1218  C1220   1.418   .     A
C1218  C1222   1.422   .     A
C1219  C565    1.393   1_556 S
C1221  C592    1.422   1_556 S
Cu1223 O1246   1.933   .     S
Cu1223 O1242   1.964   .     S
Cu1223 O1243   1.945   .     S
Cu1223 N1237   2.022   .     S
Cu1223 O1239   1.958   .     S
Cu1224 O1240   1.958   .     S
Cu1224 O1241   1.964   .     S
Cu1224 O1244   1.945   .     S
Cu1224 N1238   2.022   .     S
Cu1224 O1245   1.933   .     S
Cu1224 Cu1083  2.691   1_655 S
H1227  C1074   1.083   1_655 S
O1240  C1052   1.294   1_655 S
O1244  C1068   1.297   1_655 S
O1249  C1250   1.413   .     S
C1250  H1253   1.110   .     S
C1250  H1252   1.115   .     S
C1250  H1251   1.110   .     S
O1254  C1255   1.413   .     S
C1255  H1258   1.110   .     S
C1255  H1256   1.115   .     S
C1255  H1257   1.110   .     S
