data_str_m3_o1_o16_pcu_sym.138
_audit_creation_date              2020-01-03
_audit_creation_method            'Materials Studio'
_symmetry_space_group_name_H-M    'P1'
_symmetry_Int_Tables_number       1
_symmetry_cell_setting            triclinic
loop_
_symmetry_equiv_pos_as_xyz
  x,y,z
_cell_length_a                    29.6043
_cell_length_b                    32.0840
_cell_length_c                    26.2615
_cell_angle_alpha                 90.3554
_cell_angle_beta                  70.1184
_cell_angle_gamma                 90.2444
loop_
_atom_site_label
_atom_site_type_symbol
_atom_site_fract_x
_atom_site_fract_y
_atom_site_fract_z
_atom_site_U_iso_or_equiv
_atom_site_adp_type
_atom_site_occupancy
O1     O     0.12846   0.22775   0.25001   0.00000  Uiso   1.00
O2     O     0.20490   0.22774   0.25001   0.00000  Uiso   1.00
C3     C     0.16669   0.24667   0.25022   0.00000  Uiso   1.00
O4     O     0.10947   0.16666   0.32681   0.00000  Uiso   1.00
O5     O     0.18591   0.16665   0.32681   0.00000  Uiso   1.00
C6     C     0.14004   0.16438   0.35200   0.00000  Uiso   1.00
Zn7    Zn    0.11562   0.16667   0.25000   0.00000  Uiso   1.00
Zn8    Zn    0.21771   0.16666   0.25000   0.00000  Uiso   1.00
O9     O     0.12843   0.10559   0.25000   0.00000  Uiso   1.00
O10    O     0.20488   0.10558   0.25000   0.00000  Uiso   1.00
O11    O     0.14742   0.16668   0.17319   0.00000  Uiso   1.00
O12    O     0.22387   0.16667   0.17319   0.00000  Uiso   1.00
C13    C     0.16659   0.08667   0.25006   0.00000  Uiso   1.00
C14    C     0.19331   0.16648   0.14790   0.00000  Uiso   1.00
C15    C     0.25828   0.12381   0.00959   0.00000  Uiso   1.00
H16    H     0.27693   0.13062   0.08137   0.00000  Uiso   1.00
H17    H     0.25952   0.09488   0.41363   0.00000  Uiso   1.00
H18    H     0.29054   0.10636   0.48837   0.00000  Uiso   1.00
C19    C     0.20934   0.16054   0.08970   0.00000  Uiso   1.00
C20    C     0.07745   0.17719   0.44075   0.00000  Uiso   1.00
C21    C     0.06432   0.18193   0.49647   0.00000  Uiso   1.00
C22    C     0.09738   0.17338   0.02206   0.00000  Uiso   1.00
C23    C     0.14357   0.15756   0.49225   0.00000  Uiso   1.00
C24    C     0.15344   0.14629   0.43770   0.00000  Uiso   1.00
C25    C     0.18033   0.15252   0.01470   0.00000  Uiso   1.00
C26    C     0.22265   0.12998   0.48620   0.00000  Uiso   1.00
C27    C     0.22828   0.11340   0.43530   0.00000  Uiso   1.00
C28    C     0.19411   0.12142   0.41125   0.00000  Uiso   1.00
C29    C     0.17649   0.17016   0.06442   0.00000  Uiso   1.00
C30    C     0.25117   0.13836   0.06189   0.00000  Uiso   1.00
C31    C     0.12265   0.16087   0.41086   0.00000  Uiso   1.00
H32    H     0.14687   0.19031   0.08560   0.00000  Uiso   1.00
H33    H     0.05286   0.18746   0.42087   0.00000  Uiso   1.00
H34    H     0.08547   0.17835   0.06529   0.00000  Uiso   1.00
H35    H     0.02918   0.19404   0.01959   0.00000  Uiso   1.00
H36    H     0.19959   0.10746   0.37201   0.00000  Uiso   1.00
C37    C     0.21046   0.31207   0.23213   0.00000  Uiso   1.00
H38    H     0.24447   0.29576   0.21727   0.00000  Uiso   1.00
C39    C     0.21040   0.02146   0.23191   0.00000  Uiso   1.00
H40    H     0.24439   0.03791   0.21689   0.00000  Uiso   1.00
C41    C     0.16656   0.04252   0.25036   0.00000  Uiso   1.00
C42    C     0.12282   0.02128   0.26939   0.00000  Uiso   1.00
H43    H     0.08887   0.03761   0.28476   0.00000  Uiso   1.00
C44    C     0.12286   0.31188   0.26934   0.00000  Uiso   1.00
H45    H     0.08888   0.29541   0.28437   0.00000  Uiso   1.00
C46    C     0.16668   0.29082   0.25061   0.00000  Uiso   1.00
C47    C     0.31671   0.13594   0.22418   0.00000  Uiso   1.00
H48    H     0.30446   0.11155   0.20331   0.00000  Uiso   1.00
C49    C     0.03130   0.13579   0.22386   0.00000  Uiso   1.00
N50    N     0.04760   0.16668   0.25001   0.00000  Uiso   1.00
C51    C     0.01618   0.19726   0.27631   0.00000  Uiso   1.00
H52    H     0.02799   0.22173   0.29741   0.00000  Uiso   1.00
C53    C     0.30163   0.19725   0.27627   0.00000  Uiso   1.00
H54    H     0.27734   0.22175   0.29733   0.00000  Uiso   1.00
N55    N     0.28573   0.16665   0.25001   0.00000  Uiso   1.00
N56    N     0.06216   0.10274   0.19602   0.00000  Uiso   1.00
O57    O     0.09297   0.10947   0.14798   0.00000  Uiso   1.00
O58    O     0.04982   0.06451   0.21059   0.00000  Uiso   1.00
O59    O     0.46179   0.22775   0.25001   0.00000  Uiso   1.00
O60    O     0.53823   0.22774   0.25001   0.00000  Uiso   1.00
C61    C     0.50002   0.24667   0.25022   0.00000  Uiso   1.00
O62    O     0.44280   0.16666   0.32681   0.00000  Uiso   1.00
O63    O     0.51924   0.16665   0.32681   0.00000  Uiso   1.00
C64    C     0.47337   0.16438   0.35200   0.00000  Uiso   1.00
Zn65   Zn    0.44896   0.16667   0.25000   0.00000  Uiso   1.00
Zn66   Zn    0.55104   0.16666   0.25000   0.00000  Uiso   1.00
O67    O     0.46177   0.10559   0.25000   0.00000  Uiso   1.00
O68    O     0.53821   0.10558   0.25000   0.00000  Uiso   1.00
O69    O     0.48076   0.16668   0.17319   0.00000  Uiso   1.00
O70    O     0.55720   0.16667   0.17319   0.00000  Uiso   1.00
C71    C     0.49992   0.08667   0.25006   0.00000  Uiso   1.00
C72    C     0.52664   0.16648   0.14790   0.00000  Uiso   1.00
C73    C     0.59161   0.12381   0.00959   0.00000  Uiso   1.00
H74    H     0.61026   0.13062   0.08137   0.00000  Uiso   1.00
H75    H     0.59286   0.09488   0.41363   0.00000  Uiso   1.00
H76    H     0.62387   0.10636   0.48837   0.00000  Uiso   1.00
C77    C     0.54267   0.16054   0.08970   0.00000  Uiso   1.00
C78    C     0.41078   0.17719   0.44075   0.00000  Uiso   1.00
C79    C     0.39765   0.18193   0.49647   0.00000  Uiso   1.00
C80    C     0.43072   0.17338   0.02206   0.00000  Uiso   1.00
C81    C     0.47691   0.15756   0.49225   0.00000  Uiso   1.00
C82    C     0.48677   0.14629   0.43770   0.00000  Uiso   1.00
C83    C     0.51366   0.15252   0.01470   0.00000  Uiso   1.00
C84    C     0.55598   0.12998   0.48620   0.00000  Uiso   1.00
C85    C     0.56162   0.11340   0.43530   0.00000  Uiso   1.00
C86    C     0.52744   0.12142   0.41125   0.00000  Uiso   1.00
C87    C     0.50983   0.17016   0.06442   0.00000  Uiso   1.00
C88    C     0.58451   0.13836   0.06189   0.00000  Uiso   1.00
C89    C     0.45599   0.16087   0.41086   0.00000  Uiso   1.00
H90    H     0.48020   0.19031   0.08560   0.00000  Uiso   1.00
H91    H     0.38620   0.18746   0.42087   0.00000  Uiso   1.00
H92    H     0.41880   0.17835   0.06529   0.00000  Uiso   1.00
H93    H     0.36251   0.19404   0.01959   0.00000  Uiso   1.00
H94    H     0.53292   0.10746   0.37201   0.00000  Uiso   1.00
C95    C     0.54380   0.31207   0.23213   0.00000  Uiso   1.00
H96    H     0.57781   0.29576   0.21727   0.00000  Uiso   1.00
C97    C     0.54373   0.02146   0.23191   0.00000  Uiso   1.00
H98    H     0.57772   0.03791   0.21689   0.00000  Uiso   1.00
C99    C     0.49989   0.04252   0.25036   0.00000  Uiso   1.00
C100   C     0.45615   0.02128   0.26939   0.00000  Uiso   1.00
H101   H     0.42220   0.03761   0.28476   0.00000  Uiso   1.00
C102   C     0.45619   0.31188   0.26934   0.00000  Uiso   1.00
H103   H     0.42222   0.29541   0.28437   0.00000  Uiso   1.00
C104   C     0.50002   0.29082   0.25061   0.00000  Uiso   1.00
C105   C     0.65004   0.13594   0.22418   0.00000  Uiso   1.00
H106   H     0.63779   0.11155   0.20331   0.00000  Uiso   1.00
C107   C     0.36463   0.13579   0.22386   0.00000  Uiso   1.00
N108   N     0.38093   0.16668   0.25001   0.00000  Uiso   1.00
C109   C     0.34951   0.19726   0.27631   0.00000  Uiso   1.00
H110   H     0.36133   0.22173   0.29741   0.00000  Uiso   1.00
C111   C     0.63497   0.19725   0.27627   0.00000  Uiso   1.00
H112   H     0.61067   0.22175   0.29733   0.00000  Uiso   1.00
N113   N     0.61906   0.16665   0.25001   0.00000  Uiso   1.00
N114   N     0.39549   0.10274   0.19602   0.00000  Uiso   1.00
O115   O     0.42630   0.10947   0.14798   0.00000  Uiso   1.00
O116   O     0.38315   0.06451   0.21059   0.00000  Uiso   1.00
O117   O     0.79512   0.22775   0.25001   0.00000  Uiso   1.00
O118   O     0.87157   0.22774   0.25001   0.00000  Uiso   1.00
C119   C     0.83336   0.24667   0.25022   0.00000  Uiso   1.00
O120   O     0.77613   0.16666   0.32681   0.00000  Uiso   1.00
O121   O     0.85258   0.16665   0.32681   0.00000  Uiso   1.00
C122   C     0.80671   0.16438   0.35200   0.00000  Uiso   1.00
Zn123  Zn    0.78229   0.16667   0.25000   0.00000  Uiso   1.00
Zn124  Zn    0.88438   0.16666   0.25000   0.00000  Uiso   1.00
O125   O     0.79510   0.10559   0.25000   0.00000  Uiso   1.00
O126   O     0.87154   0.10558   0.25000   0.00000  Uiso   1.00
O127   O     0.81409   0.16668   0.17319   0.00000  Uiso   1.00
O128   O     0.89053   0.16667   0.17319   0.00000  Uiso   1.00
C129   C     0.83326   0.08667   0.25006   0.00000  Uiso   1.00
C130   C     0.85998   0.16648   0.14790   0.00000  Uiso   1.00
C131   C     0.92495   0.12381   0.00959   0.00000  Uiso   1.00
H132   H     0.94360   0.13062   0.08137   0.00000  Uiso   1.00
H133   H     0.92619   0.09488   0.41363   0.00000  Uiso   1.00
H134   H     0.95721   0.10636   0.48837   0.00000  Uiso   1.00
C135   C     0.87601   0.16054   0.08970   0.00000  Uiso   1.00
C136   C     0.74411   0.17719   0.44075   0.00000  Uiso   1.00
C137   C     0.73099   0.18193   0.49647   0.00000  Uiso   1.00
C138   C     0.76405   0.17338   0.02206   0.00000  Uiso   1.00
C139   C     0.81024   0.15756   0.49225   0.00000  Uiso   1.00
C140   C     0.82011   0.14629   0.43770   0.00000  Uiso   1.00
C141   C     0.84700   0.15252   0.01470   0.00000  Uiso   1.00
C142   C     0.88932   0.12998   0.48620   0.00000  Uiso   1.00
C143   C     0.89495   0.11340   0.43530   0.00000  Uiso   1.00
C144   C     0.86078   0.12142   0.41125   0.00000  Uiso   1.00
C145   C     0.84316   0.17016   0.06442   0.00000  Uiso   1.00
C146   C     0.91784   0.13836   0.06189   0.00000  Uiso   1.00
C147   C     0.78932   0.16087   0.41086   0.00000  Uiso   1.00
H148   H     0.81353   0.19031   0.08560   0.00000  Uiso   1.00
H149   H     0.71953   0.18746   0.42087   0.00000  Uiso   1.00
H150   H     0.75214   0.17835   0.06529   0.00000  Uiso   1.00
H151   H     0.69585   0.19404   0.01959   0.00000  Uiso   1.00
H152   H     0.86626   0.10746   0.37201   0.00000  Uiso   1.00
C153   C     0.87713   0.31207   0.23213   0.00000  Uiso   1.00
H154   H     0.91114   0.29576   0.21727   0.00000  Uiso   1.00
C155   C     0.87707   0.02146   0.23191   0.00000  Uiso   1.00
H156   H     0.91105   0.03791   0.21689   0.00000  Uiso   1.00
C157   C     0.83323   0.04252   0.25036   0.00000  Uiso   1.00
C158   C     0.78949   0.02128   0.26939   0.00000  Uiso   1.00
H159   H     0.75554   0.03761   0.28476   0.00000  Uiso   1.00
C160   C     0.78953   0.31188   0.26934   0.00000  Uiso   1.00
H161   H     0.75555   0.29541   0.28437   0.00000  Uiso   1.00
C162   C     0.83335   0.29082   0.25061   0.00000  Uiso   1.00
C163   C     0.98337   0.13594   0.22418   0.00000  Uiso   1.00
H164   H     0.97113   0.11155   0.20331   0.00000  Uiso   1.00
C165   C     0.69797   0.13579   0.22386   0.00000  Uiso   1.00
N166   N     0.71426   0.16668   0.25001   0.00000  Uiso   1.00
C167   C     0.68285   0.19726   0.27631   0.00000  Uiso   1.00
H168   H     0.69466   0.22173   0.29741   0.00000  Uiso   1.00
C169   C     0.96830   0.19725   0.27627   0.00000  Uiso   1.00
H170   H     0.94400   0.22175   0.29733   0.00000  Uiso   1.00
N171   N     0.95239   0.16665   0.25001   0.00000  Uiso   1.00
N172   N     0.72883   0.10274   0.19602   0.00000  Uiso   1.00
O173   O     0.75963   0.10947   0.14798   0.00000  Uiso   1.00
O174   O     0.71648   0.06451   0.21059   0.00000  Uiso   1.00
O175   O     0.12846   0.56108   0.25001   0.00000  Uiso   1.00
O176   O     0.20490   0.56107   0.25001   0.00000  Uiso   1.00
C177   C     0.16669   0.58000   0.25022   0.00000  Uiso   1.00
O178   O     0.10947   0.50000   0.32681   0.00000  Uiso   1.00
O179   O     0.18591   0.49999   0.32681   0.00000  Uiso   1.00
C180   C     0.14004   0.49771   0.35200   0.00000  Uiso   1.00
Zn181  Zn    0.11562   0.50001   0.25000   0.00000  Uiso   1.00
Zn182  Zn    0.21771   0.49999   0.25000   0.00000  Uiso   1.00
O183   O     0.12843   0.43893   0.25000   0.00000  Uiso   1.00
O184   O     0.20488   0.43892   0.25000   0.00000  Uiso   1.00
O185   O     0.14742   0.50001   0.17319   0.00000  Uiso   1.00
O186   O     0.22387   0.50000   0.17319   0.00000  Uiso   1.00
C187   C     0.16659   0.42000   0.25006   0.00000  Uiso   1.00
C188   C     0.19331   0.49982   0.14790   0.00000  Uiso   1.00
C189   C     0.25828   0.45714   0.00959   0.00000  Uiso   1.00
H190   H     0.27693   0.46395   0.08137   0.00000  Uiso   1.00
H191   H     0.25952   0.42821   0.41363   0.00000  Uiso   1.00
H192   H     0.29054   0.43970   0.48837   0.00000  Uiso   1.00
C193   C     0.20934   0.49387   0.08970   0.00000  Uiso   1.00
C194   C     0.07745   0.51052   0.44075   0.00000  Uiso   1.00
C195   C     0.06432   0.51526   0.49647   0.00000  Uiso   1.00
C196   C     0.09738   0.50672   0.02206   0.00000  Uiso   1.00
C197   C     0.14357   0.49090   0.49225   0.00000  Uiso   1.00
C198   C     0.15344   0.47963   0.43770   0.00000  Uiso   1.00
C199   C     0.18033   0.48585   0.01470   0.00000  Uiso   1.00
C200   C     0.22265   0.46332   0.48620   0.00000  Uiso   1.00
C201   C     0.22828   0.44673   0.43530   0.00000  Uiso   1.00
C202   C     0.19411   0.45475   0.41125   0.00000  Uiso   1.00
C203   C     0.17649   0.50349   0.06442   0.00000  Uiso   1.00
C204   C     0.25117   0.47169   0.06189   0.00000  Uiso   1.00
C205   C     0.12265   0.49420   0.41086   0.00000  Uiso   1.00
H206   H     0.14687   0.52364   0.08560   0.00000  Uiso   1.00
H207   H     0.05286   0.52080   0.42087   0.00000  Uiso   1.00
H208   H     0.08547   0.51169   0.06529   0.00000  Uiso   1.00
H209   H     0.02918   0.52737   0.01959   0.00000  Uiso   1.00
H210   H     0.19959   0.44079   0.37201   0.00000  Uiso   1.00
C211   C     0.21046   0.64540   0.23213   0.00000  Uiso   1.00
H212   H     0.24447   0.62909   0.21727   0.00000  Uiso   1.00
C213   C     0.21040   0.35479   0.23191   0.00000  Uiso   1.00
H214   H     0.24439   0.37125   0.21689   0.00000  Uiso   1.00
C215   C     0.16656   0.37585   0.25036   0.00000  Uiso   1.00
C216   C     0.12282   0.35461   0.26939   0.00000  Uiso   1.00
H217   H     0.08887   0.37095   0.28476   0.00000  Uiso   1.00
C218   C     0.12286   0.64522   0.26934   0.00000  Uiso   1.00
H219   H     0.08888   0.62875   0.28437   0.00000  Uiso   1.00
C220   C     0.16668   0.62416   0.25061   0.00000  Uiso   1.00
C221   C     0.31671   0.46927   0.22418   0.00000  Uiso   1.00
H222   H     0.30446   0.44488   0.20331   0.00000  Uiso   1.00
C223   C     0.03130   0.46913   0.22386   0.00000  Uiso   1.00
N224   N     0.04760   0.50001   0.25001   0.00000  Uiso   1.00
C225   C     0.01618   0.53059   0.27631   0.00000  Uiso   1.00
H226   H     0.02799   0.55506   0.29741   0.00000  Uiso   1.00
C227   C     0.30163   0.53058   0.27627   0.00000  Uiso   1.00
H228   H     0.27734   0.55508   0.29733   0.00000  Uiso   1.00
N229   N     0.28573   0.49998   0.25001   0.00000  Uiso   1.00
N230   N     0.06216   0.43608   0.19602   0.00000  Uiso   1.00
O231   O     0.09297   0.44280   0.14798   0.00000  Uiso   1.00
O232   O     0.04982   0.39784   0.21059   0.00000  Uiso   1.00
O233   O     0.46179   0.56108   0.25001   0.00000  Uiso   1.00
O234   O     0.53823   0.56107   0.25001   0.00000  Uiso   1.00
C235   C     0.50002   0.58000   0.25022   0.00000  Uiso   1.00
O236   O     0.44280   0.50000   0.32681   0.00000  Uiso   1.00
O237   O     0.51924   0.49999   0.32681   0.00000  Uiso   1.00
C238   C     0.47337   0.49771   0.35200   0.00000  Uiso   1.00
Zn239  Zn    0.44896   0.50001   0.25000   0.00000  Uiso   1.00
Zn240  Zn    0.55104   0.49999   0.25000   0.00000  Uiso   1.00
O241   O     0.46177   0.43893   0.25000   0.00000  Uiso   1.00
O242   O     0.53821   0.43892   0.25000   0.00000  Uiso   1.00
O243   O     0.48076   0.50001   0.17319   0.00000  Uiso   1.00
O244   O     0.55720   0.50000   0.17319   0.00000  Uiso   1.00
C245   C     0.49992   0.42000   0.25006   0.00000  Uiso   1.00
C246   C     0.52664   0.49982   0.14790   0.00000  Uiso   1.00
C247   C     0.59161   0.45714   0.00959   0.00000  Uiso   1.00
H248   H     0.61026   0.46395   0.08137   0.00000  Uiso   1.00
H249   H     0.59286   0.42821   0.41363   0.00000  Uiso   1.00
H250   H     0.62387   0.43970   0.48837   0.00000  Uiso   1.00
C251   C     0.54267   0.49387   0.08970   0.00000  Uiso   1.00
C252   C     0.41078   0.51052   0.44075   0.00000  Uiso   1.00
C253   C     0.39765   0.51526   0.49647   0.00000  Uiso   1.00
C254   C     0.43072   0.50672   0.02206   0.00000  Uiso   1.00
C255   C     0.47691   0.49090   0.49225   0.00000  Uiso   1.00
C256   C     0.48677   0.47963   0.43770   0.00000  Uiso   1.00
C257   C     0.51366   0.48585   0.01470   0.00000  Uiso   1.00
C258   C     0.55598   0.46332   0.48620   0.00000  Uiso   1.00
C259   C     0.56162   0.44673   0.43530   0.00000  Uiso   1.00
C260   C     0.52744   0.45475   0.41125   0.00000  Uiso   1.00
C261   C     0.50983   0.50349   0.06442   0.00000  Uiso   1.00
C262   C     0.58451   0.47169   0.06189   0.00000  Uiso   1.00
C263   C     0.45599   0.49420   0.41086   0.00000  Uiso   1.00
H264   H     0.48020   0.52364   0.08560   0.00000  Uiso   1.00
H265   H     0.38620   0.52080   0.42087   0.00000  Uiso   1.00
H266   H     0.41880   0.51169   0.06529   0.00000  Uiso   1.00
H267   H     0.36251   0.52737   0.01959   0.00000  Uiso   1.00
H268   H     0.53292   0.44079   0.37201   0.00000  Uiso   1.00
C269   C     0.54380   0.64540   0.23213   0.00000  Uiso   1.00
H270   H     0.57781   0.62909   0.21727   0.00000  Uiso   1.00
C271   C     0.54373   0.35479   0.23191   0.00000  Uiso   1.00
H272   H     0.57772   0.37125   0.21689   0.00000  Uiso   1.00
C273   C     0.49989   0.37585   0.25036   0.00000  Uiso   1.00
C274   C     0.45615   0.35461   0.26939   0.00000  Uiso   1.00
H275   H     0.42220   0.37095   0.28476   0.00000  Uiso   1.00
C276   C     0.45619   0.64522   0.26934   0.00000  Uiso   1.00
H277   H     0.42222   0.62875   0.28437   0.00000  Uiso   1.00
C278   C     0.50002   0.62416   0.25061   0.00000  Uiso   1.00
C279   C     0.65004   0.46927   0.22418   0.00000  Uiso   1.00
H280   H     0.63779   0.44488   0.20331   0.00000  Uiso   1.00
C281   C     0.36463   0.46913   0.22386   0.00000  Uiso   1.00
N282   N     0.38093   0.50001   0.25001   0.00000  Uiso   1.00
C283   C     0.34951   0.53059   0.27631   0.00000  Uiso   1.00
H284   H     0.36133   0.55506   0.29741   0.00000  Uiso   1.00
C285   C     0.63497   0.53058   0.27627   0.00000  Uiso   1.00
H286   H     0.61067   0.55508   0.29733   0.00000  Uiso   1.00
N287   N     0.61906   0.49998   0.25001   0.00000  Uiso   1.00
N288   N     0.39549   0.43608   0.19602   0.00000  Uiso   1.00
O289   O     0.42630   0.44280   0.14798   0.00000  Uiso   1.00
O290   O     0.38315   0.39784   0.21059   0.00000  Uiso   1.00
O291   O     0.79512   0.56108   0.25001   0.00000  Uiso   1.00
O292   O     0.87157   0.56107   0.25001   0.00000  Uiso   1.00
C293   C     0.83336   0.58000   0.25022   0.00000  Uiso   1.00
O294   O     0.77613   0.50000   0.32681   0.00000  Uiso   1.00
O295   O     0.85258   0.49999   0.32681   0.00000  Uiso   1.00
C296   C     0.80671   0.49771   0.35200   0.00000  Uiso   1.00
Zn297  Zn    0.78229   0.50001   0.25000   0.00000  Uiso   1.00
Zn298  Zn    0.88438   0.49999   0.25000   0.00000  Uiso   1.00
O299   O     0.79510   0.43893   0.25000   0.00000  Uiso   1.00
O300   O     0.87154   0.43892   0.25000   0.00000  Uiso   1.00
O301   O     0.81409   0.50001   0.17319   0.00000  Uiso   1.00
O302   O     0.89053   0.50000   0.17319   0.00000  Uiso   1.00
C303   C     0.83326   0.42000   0.25006   0.00000  Uiso   1.00
C304   C     0.85998   0.49982   0.14790   0.00000  Uiso   1.00
C305   C     0.92495   0.45714   0.00959   0.00000  Uiso   1.00
H306   H     0.94360   0.46395   0.08137   0.00000  Uiso   1.00
H307   H     0.92619   0.42821   0.41363   0.00000  Uiso   1.00
H308   H     0.95721   0.43970   0.48837   0.00000  Uiso   1.00
C309   C     0.87601   0.49387   0.08970   0.00000  Uiso   1.00
C310   C     0.74411   0.51052   0.44075   0.00000  Uiso   1.00
C311   C     0.73099   0.51526   0.49647   0.00000  Uiso   1.00
C312   C     0.76405   0.50672   0.02206   0.00000  Uiso   1.00
C313   C     0.81024   0.49090   0.49225   0.00000  Uiso   1.00
C314   C     0.82011   0.47963   0.43770   0.00000  Uiso   1.00
C315   C     0.84700   0.48585   0.01470   0.00000  Uiso   1.00
C316   C     0.88932   0.46332   0.48620   0.00000  Uiso   1.00
C317   C     0.89495   0.44673   0.43530   0.00000  Uiso   1.00
C318   C     0.86078   0.45475   0.41125   0.00000  Uiso   1.00
C319   C     0.84316   0.50349   0.06442   0.00000  Uiso   1.00
C320   C     0.91784   0.47169   0.06189   0.00000  Uiso   1.00
C321   C     0.78932   0.49420   0.41086   0.00000  Uiso   1.00
H322   H     0.81353   0.52364   0.08560   0.00000  Uiso   1.00
H323   H     0.71953   0.52080   0.42087   0.00000  Uiso   1.00
H324   H     0.75214   0.51169   0.06529   0.00000  Uiso   1.00
H325   H     0.69585   0.52737   0.01959   0.00000  Uiso   1.00
H326   H     0.86626   0.44079   0.37201   0.00000  Uiso   1.00
C327   C     0.87713   0.64540   0.23213   0.00000  Uiso   1.00
H328   H     0.91114   0.62909   0.21727   0.00000  Uiso   1.00
C329   C     0.87707   0.35479   0.23191   0.00000  Uiso   1.00
H330   H     0.91105   0.37125   0.21689   0.00000  Uiso   1.00
C331   C     0.83323   0.37585   0.25036   0.00000  Uiso   1.00
C332   C     0.78949   0.35461   0.26939   0.00000  Uiso   1.00
H333   H     0.75554   0.37095   0.28476   0.00000  Uiso   1.00
C334   C     0.78953   0.64522   0.26934   0.00000  Uiso   1.00
H335   H     0.75555   0.62875   0.28437   0.00000  Uiso   1.00
C336   C     0.83335   0.62416   0.25061   0.00000  Uiso   1.00
C337   C     0.98337   0.46927   0.22418   0.00000  Uiso   1.00
H338   H     0.97113   0.44488   0.20331   0.00000  Uiso   1.00
C339   C     0.69797   0.46913   0.22386   0.00000  Uiso   1.00
N340   N     0.71426   0.50001   0.25001   0.00000  Uiso   1.00
C341   C     0.68285   0.53059   0.27631   0.00000  Uiso   1.00
H342   H     0.69466   0.55506   0.29741   0.00000  Uiso   1.00
C343   C     0.96830   0.53058   0.27627   0.00000  Uiso   1.00
H344   H     0.94400   0.55508   0.29733   0.00000  Uiso   1.00
N345   N     0.95239   0.49998   0.25001   0.00000  Uiso   1.00
N346   N     0.72883   0.43608   0.19602   0.00000  Uiso   1.00
O347   O     0.75963   0.44280   0.14798   0.00000  Uiso   1.00
O348   O     0.71648   0.39784   0.21059   0.00000  Uiso   1.00
O349   O     0.12846   0.89442   0.25001   0.00000  Uiso   1.00
O350   O     0.20490   0.89441   0.25001   0.00000  Uiso   1.00
C351   C     0.16669   0.91333   0.25022   0.00000  Uiso   1.00
O352   O     0.10947   0.83333   0.32681   0.00000  Uiso   1.00
O353   O     0.18591   0.83332   0.32681   0.00000  Uiso   1.00
C354   C     0.14004   0.83105   0.35200   0.00000  Uiso   1.00
Zn355  Zn    0.11562   0.83334   0.25000   0.00000  Uiso   1.00
Zn356  Zn    0.21771   0.83333   0.25000   0.00000  Uiso   1.00
O357   O     0.12843   0.77226   0.25000   0.00000  Uiso   1.00
O358   O     0.20488   0.77225   0.25000   0.00000  Uiso   1.00
O359   O     0.14742   0.83335   0.17319   0.00000  Uiso   1.00
O360   O     0.22387   0.83334   0.17319   0.00000  Uiso   1.00
C361   C     0.16659   0.75333   0.25006   0.00000  Uiso   1.00
C362   C     0.19331   0.83315   0.14790   0.00000  Uiso   1.00
C363   C     0.25828   0.79048   0.00959   0.00000  Uiso   1.00
H364   H     0.27693   0.79729   0.08137   0.00000  Uiso   1.00
H365   H     0.25952   0.76155   0.41363   0.00000  Uiso   1.00
H366   H     0.29054   0.77303   0.48837   0.00000  Uiso   1.00
C367   C     0.20934   0.82721   0.08970   0.00000  Uiso   1.00
C368   C     0.07745   0.84386   0.44075   0.00000  Uiso   1.00
C369   C     0.06432   0.84860   0.49647   0.00000  Uiso   1.00
C370   C     0.09738   0.84005   0.02206   0.00000  Uiso   1.00
C371   C     0.14357   0.82423   0.49225   0.00000  Uiso   1.00
C372   C     0.15344   0.81296   0.43770   0.00000  Uiso   1.00
C373   C     0.18033   0.81918   0.01470   0.00000  Uiso   1.00
C374   C     0.22265   0.79665   0.48620   0.00000  Uiso   1.00
C375   C     0.22828   0.78007   0.43530   0.00000  Uiso   1.00
C376   C     0.19411   0.78809   0.41125   0.00000  Uiso   1.00
C377   C     0.17649   0.83682   0.06442   0.00000  Uiso   1.00
C378   C     0.25117   0.80503   0.06189   0.00000  Uiso   1.00
C379   C     0.12265   0.82754   0.41086   0.00000  Uiso   1.00
H380   H     0.14687   0.85698   0.08560   0.00000  Uiso   1.00
H381   H     0.05286   0.85413   0.42087   0.00000  Uiso   1.00
H382   H     0.08547   0.84502   0.06529   0.00000  Uiso   1.00
H383   H     0.02918   0.86070   0.01959   0.00000  Uiso   1.00
H384   H     0.19959   0.77412   0.37201   0.00000  Uiso   1.00
C385   C     0.21046   0.97874   0.23213   0.00000  Uiso   1.00
H386   H     0.24447   0.96242   0.21727   0.00000  Uiso   1.00
C387   C     0.21040   0.68812   0.23191   0.00000  Uiso   1.00
H388   H     0.24439   0.70458   0.21689   0.00000  Uiso   1.00
C389   C     0.16656   0.70919   0.25036   0.00000  Uiso   1.00
C390   C     0.12282   0.68795   0.26939   0.00000  Uiso   1.00
H391   H     0.08887   0.70428   0.28476   0.00000  Uiso   1.00
C392   C     0.12286   0.97855   0.26934   0.00000  Uiso   1.00
H393   H     0.08888   0.96208   0.28437   0.00000  Uiso   1.00
C394   C     0.16668   0.95749   0.25061   0.00000  Uiso   1.00
C395   C     0.31671   0.80260   0.22418   0.00000  Uiso   1.00
H396   H     0.30446   0.77821   0.20331   0.00000  Uiso   1.00
C397   C     0.03130   0.80246   0.22386   0.00000  Uiso   1.00
N398   N     0.04760   0.83334   0.25001   0.00000  Uiso   1.00
C399   C     0.01618   0.86392   0.27631   0.00000  Uiso   1.00
H400   H     0.02799   0.88840   0.29741   0.00000  Uiso   1.00
C401   C     0.30163   0.86392   0.27627   0.00000  Uiso   1.00
H402   H     0.27734   0.88841   0.29733   0.00000  Uiso   1.00
N403   N     0.28573   0.83331   0.25001   0.00000  Uiso   1.00
N404   N     0.06216   0.76941   0.19602   0.00000  Uiso   1.00
O405   O     0.09297   0.77614   0.14798   0.00000  Uiso   1.00
O406   O     0.04982   0.73117   0.21059   0.00000  Uiso   1.00
O407   O     0.46179   0.89442   0.25001   0.00000  Uiso   1.00
O408   O     0.53823   0.89441   0.25001   0.00000  Uiso   1.00
C409   C     0.50002   0.91333   0.25022   0.00000  Uiso   1.00
O410   O     0.44280   0.83333   0.32681   0.00000  Uiso   1.00
O411   O     0.51924   0.83332   0.32681   0.00000  Uiso   1.00
C412   C     0.47337   0.83105   0.35200   0.00000  Uiso   1.00
Zn413  Zn    0.44896   0.83334   0.25000   0.00000  Uiso   1.00
Zn414  Zn    0.55104   0.83333   0.25000   0.00000  Uiso   1.00
O415   O     0.46177   0.77226   0.25000   0.00000  Uiso   1.00
O416   O     0.53821   0.77225   0.25000   0.00000  Uiso   1.00
O417   O     0.48076   0.83335   0.17319   0.00000  Uiso   1.00
O418   O     0.55720   0.83334   0.17319   0.00000  Uiso   1.00
C419   C     0.49992   0.75333   0.25006   0.00000  Uiso   1.00
C420   C     0.52664   0.83315   0.14790   0.00000  Uiso   1.00
C421   C     0.59161   0.79048   0.00959   0.00000  Uiso   1.00
H422   H     0.61026   0.79729   0.08137   0.00000  Uiso   1.00
H423   H     0.59286   0.76155   0.41363   0.00000  Uiso   1.00
H424   H     0.62387   0.77303   0.48837   0.00000  Uiso   1.00
C425   C     0.54267   0.82721   0.08970   0.00000  Uiso   1.00
C426   C     0.41078   0.84386   0.44075   0.00000  Uiso   1.00
C427   C     0.39765   0.84860   0.49647   0.00000  Uiso   1.00
C428   C     0.43072   0.84005   0.02206   0.00000  Uiso   1.00
C429   C     0.47691   0.82423   0.49225   0.00000  Uiso   1.00
C430   C     0.48677   0.81296   0.43770   0.00000  Uiso   1.00
C431   C     0.51366   0.81918   0.01470   0.00000  Uiso   1.00
C432   C     0.55598   0.79665   0.48620   0.00000  Uiso   1.00
C433   C     0.56162   0.78007   0.43530   0.00000  Uiso   1.00
C434   C     0.52744   0.78809   0.41125   0.00000  Uiso   1.00
C435   C     0.50983   0.83682   0.06442   0.00000  Uiso   1.00
C436   C     0.58451   0.80503   0.06189   0.00000  Uiso   1.00
C437   C     0.45599   0.82754   0.41086   0.00000  Uiso   1.00
H438   H     0.48020   0.85698   0.08560   0.00000  Uiso   1.00
H439   H     0.38620   0.85413   0.42087   0.00000  Uiso   1.00
H440   H     0.41880   0.84502   0.06529   0.00000  Uiso   1.00
H441   H     0.36251   0.86070   0.01959   0.00000  Uiso   1.00
H442   H     0.53292   0.77412   0.37201   0.00000  Uiso   1.00
C443   C     0.54380   0.97874   0.23213   0.00000  Uiso   1.00
H444   H     0.57781   0.96242   0.21727   0.00000  Uiso   1.00
C445   C     0.54373   0.68812   0.23191   0.00000  Uiso   1.00
H446   H     0.57772   0.70458   0.21689   0.00000  Uiso   1.00
C447   C     0.49989   0.70919   0.25036   0.00000  Uiso   1.00
C448   C     0.45615   0.68795   0.26939   0.00000  Uiso   1.00
H449   H     0.42220   0.70428   0.28476   0.00000  Uiso   1.00
C450   C     0.45619   0.97855   0.26934   0.00000  Uiso   1.00
H451   H     0.42222   0.96208   0.28437   0.00000  Uiso   1.00
C452   C     0.50002   0.95749   0.25061   0.00000  Uiso   1.00
C453   C     0.65004   0.80260   0.22418   0.00000  Uiso   1.00
H454   H     0.63779   0.77821   0.20331   0.00000  Uiso   1.00
C455   C     0.36463   0.80246   0.22386   0.00000  Uiso   1.00
N456   N     0.38093   0.83334   0.25001   0.00000  Uiso   1.00
C457   C     0.34951   0.86392   0.27631   0.00000  Uiso   1.00
H458   H     0.36133   0.88840   0.29741   0.00000  Uiso   1.00
C459   C     0.63497   0.86392   0.27627   0.00000  Uiso   1.00
H460   H     0.61067   0.88841   0.29733   0.00000  Uiso   1.00
N461   N     0.61906   0.83331   0.25001   0.00000  Uiso   1.00
N462   N     0.39549   0.76941   0.19602   0.00000  Uiso   1.00
O463   O     0.42630   0.77614   0.14798   0.00000  Uiso   1.00
O464   O     0.38315   0.73117   0.21059   0.00000  Uiso   1.00
O465   O     0.79512   0.89442   0.25001   0.00000  Uiso   1.00
O466   O     0.87157   0.89441   0.25001   0.00000  Uiso   1.00
C467   C     0.83336   0.91333   0.25022   0.00000  Uiso   1.00
O468   O     0.77613   0.83333   0.32681   0.00000  Uiso   1.00
O469   O     0.85258   0.83332   0.32681   0.00000  Uiso   1.00
C470   C     0.80671   0.83105   0.35200   0.00000  Uiso   1.00
Zn471  Zn    0.78229   0.83334   0.25000   0.00000  Uiso   1.00
Zn472  Zn    0.88438   0.83333   0.25000   0.00000  Uiso   1.00
O473   O     0.79510   0.77226   0.25000   0.00000  Uiso   1.00
O474   O     0.87154   0.77225   0.25000   0.00000  Uiso   1.00
O475   O     0.81409   0.83335   0.17319   0.00000  Uiso   1.00
O476   O     0.89053   0.83334   0.17319   0.00000  Uiso   1.00
C477   C     0.83326   0.75333   0.25006   0.00000  Uiso   1.00
C478   C     0.85998   0.83315   0.14790   0.00000  Uiso   1.00
C479   C     0.92495   0.79048   0.00959   0.00000  Uiso   1.00
H480   H     0.94360   0.79729   0.08137   0.00000  Uiso   1.00
H481   H     0.92619   0.76155   0.41363   0.00000  Uiso   1.00
H482   H     0.95721   0.77303   0.48837   0.00000  Uiso   1.00
C483   C     0.87601   0.82721   0.08970   0.00000  Uiso   1.00
C484   C     0.74411   0.84386   0.44075   0.00000  Uiso   1.00
C485   C     0.73099   0.84860   0.49647   0.00000  Uiso   1.00
C486   C     0.76405   0.84005   0.02206   0.00000  Uiso   1.00
C487   C     0.81024   0.82423   0.49225   0.00000  Uiso   1.00
C488   C     0.82011   0.81296   0.43770   0.00000  Uiso   1.00
C489   C     0.84700   0.81918   0.01470   0.00000  Uiso   1.00
C490   C     0.88932   0.79665   0.48620   0.00000  Uiso   1.00
C491   C     0.89495   0.78007   0.43530   0.00000  Uiso   1.00
C492   C     0.86078   0.78809   0.41125   0.00000  Uiso   1.00
C493   C     0.84316   0.83682   0.06442   0.00000  Uiso   1.00
C494   C     0.91784   0.80503   0.06189   0.00000  Uiso   1.00
C495   C     0.78932   0.82754   0.41086   0.00000  Uiso   1.00
H496   H     0.81353   0.85698   0.08560   0.00000  Uiso   1.00
H497   H     0.71953   0.85413   0.42087   0.00000  Uiso   1.00
H498   H     0.75214   0.84502   0.06529   0.00000  Uiso   1.00
H499   H     0.69585   0.86070   0.01959   0.00000  Uiso   1.00
H500   H     0.86626   0.77412   0.37201   0.00000  Uiso   1.00
C501   C     0.87713   0.97874   0.23213   0.00000  Uiso   1.00
H502   H     0.91114   0.96242   0.21727   0.00000  Uiso   1.00
C503   C     0.87707   0.68812   0.23191   0.00000  Uiso   1.00
H504   H     0.91105   0.70458   0.21689   0.00000  Uiso   1.00
C505   C     0.83323   0.70919   0.25036   0.00000  Uiso   1.00
C506   C     0.78949   0.68795   0.26939   0.00000  Uiso   1.00
H507   H     0.75554   0.70428   0.28476   0.00000  Uiso   1.00
C508   C     0.78953   0.97855   0.26934   0.00000  Uiso   1.00
H509   H     0.75555   0.96208   0.28437   0.00000  Uiso   1.00
C510   C     0.83335   0.95749   0.25061   0.00000  Uiso   1.00
C511   C     0.98337   0.80260   0.22418   0.00000  Uiso   1.00
H512   H     0.97113   0.77821   0.20331   0.00000  Uiso   1.00
C513   C     0.69797   0.80246   0.22386   0.00000  Uiso   1.00
N514   N     0.71426   0.83334   0.25001   0.00000  Uiso   1.00
C515   C     0.68285   0.86392   0.27631   0.00000  Uiso   1.00
H516   H     0.69466   0.88840   0.29741   0.00000  Uiso   1.00
C517   C     0.96830   0.86392   0.27627   0.00000  Uiso   1.00
H518   H     0.94400   0.88841   0.29733   0.00000  Uiso   1.00
N519   N     0.95239   0.83331   0.25001   0.00000  Uiso   1.00
N520   N     0.72883   0.76941   0.19602   0.00000  Uiso   1.00
O521   O     0.75963   0.77614   0.14798   0.00000  Uiso   1.00
O522   O     0.71648   0.73117   0.21059   0.00000  Uiso   1.00
O523   O     0.12846   0.22775   0.75001   0.00000  Uiso   1.00
O524   O     0.20490   0.22774   0.75001   0.00000  Uiso   1.00
C525   C     0.16669   0.24667   0.75022   0.00000  Uiso   1.00
O526   O     0.10947   0.16666   0.82681   0.00000  Uiso   1.00
O527   O     0.18591   0.16665   0.82681   0.00000  Uiso   1.00
C528   C     0.14004   0.16438   0.85200   0.00000  Uiso   1.00
Zn529  Zn    0.11562   0.16667   0.75000   0.00000  Uiso   1.00
Zn530  Zn    0.21771   0.16666   0.75000   0.00000  Uiso   1.00
O531   O     0.12843   0.10559   0.75000   0.00000  Uiso   1.00
O532   O     0.20488   0.10558   0.75000   0.00000  Uiso   1.00
O533   O     0.14742   0.16668   0.67319   0.00000  Uiso   1.00
O534   O     0.22387   0.16667   0.67319   0.00000  Uiso   1.00
C535   C     0.16659   0.08667   0.75006   0.00000  Uiso   1.00
C536   C     0.19331   0.16648   0.64790   0.00000  Uiso   1.00
C537   C     0.25828   0.12381   0.50959   0.00000  Uiso   1.00
H538   H     0.27693   0.13062   0.58137   0.00000  Uiso   1.00
H539   H     0.25952   0.09488   0.91363   0.00000  Uiso   1.00
H540   H     0.29054   0.10636   0.98837   0.00000  Uiso   1.00
C541   C     0.20934   0.16054   0.58970   0.00000  Uiso   1.00
C542   C     0.07745   0.17719   0.94075   0.00000  Uiso   1.00
C543   C     0.06432   0.18193   0.99647   0.00000  Uiso   1.00
C544   C     0.09738   0.17338   0.52206   0.00000  Uiso   1.00
C545   C     0.14357   0.15756   0.99225   0.00000  Uiso   1.00
C546   C     0.15344   0.14629   0.93770   0.00000  Uiso   1.00
C547   C     0.18033   0.15252   0.51470   0.00000  Uiso   1.00
C548   C     0.22265   0.12998   0.98620   0.00000  Uiso   1.00
C549   C     0.22828   0.11340   0.93530   0.00000  Uiso   1.00
C550   C     0.19411   0.12142   0.91125   0.00000  Uiso   1.00
C551   C     0.17649   0.17016   0.56442   0.00000  Uiso   1.00
C552   C     0.25117   0.13836   0.56189   0.00000  Uiso   1.00
C553   C     0.12265   0.16087   0.91086   0.00000  Uiso   1.00
H554   H     0.14687   0.19031   0.58560   0.00000  Uiso   1.00
H555   H     0.05286   0.18746   0.92087   0.00000  Uiso   1.00
H556   H     0.08547   0.17835   0.56529   0.00000  Uiso   1.00
H557   H     0.02918   0.19404   0.51959   0.00000  Uiso   1.00
H558   H     0.19959   0.10746   0.87201   0.00000  Uiso   1.00
C559   C     0.21046   0.31207   0.73213   0.00000  Uiso   1.00
H560   H     0.24447   0.29576   0.71727   0.00000  Uiso   1.00
C561   C     0.21040   0.02146   0.73191   0.00000  Uiso   1.00
H562   H     0.24439   0.03791   0.71689   0.00000  Uiso   1.00
C563   C     0.16656   0.04252   0.75036   0.00000  Uiso   1.00
C564   C     0.12282   0.02128   0.76939   0.00000  Uiso   1.00
H565   H     0.08887   0.03761   0.78476   0.00000  Uiso   1.00
C566   C     0.12286   0.31188   0.76934   0.00000  Uiso   1.00
H567   H     0.08888   0.29541   0.78437   0.00000  Uiso   1.00
C568   C     0.16668   0.29082   0.75061   0.00000  Uiso   1.00
C569   C     0.31671   0.13594   0.72418   0.00000  Uiso   1.00
H570   H     0.30446   0.11155   0.70331   0.00000  Uiso   1.00
C571   C     0.03130   0.13579   0.72386   0.00000  Uiso   1.00
N572   N     0.04760   0.16668   0.75001   0.00000  Uiso   1.00
C573   C     0.01618   0.19726   0.77631   0.00000  Uiso   1.00
H574   H     0.02799   0.22173   0.79741   0.00000  Uiso   1.00
C575   C     0.30163   0.19725   0.77627   0.00000  Uiso   1.00
H576   H     0.27734   0.22175   0.79733   0.00000  Uiso   1.00
N577   N     0.28573   0.16665   0.75001   0.00000  Uiso   1.00
N578   N     0.06216   0.10274   0.69602   0.00000  Uiso   1.00
O579   O     0.09297   0.10947   0.64798   0.00000  Uiso   1.00
O580   O     0.04982   0.06451   0.71059   0.00000  Uiso   1.00
O581   O     0.46179   0.22775   0.75001   0.00000  Uiso   1.00
O582   O     0.53823   0.22774   0.75001   0.00000  Uiso   1.00
C583   C     0.50002   0.24667   0.75022   0.00000  Uiso   1.00
O584   O     0.44280   0.16666   0.82681   0.00000  Uiso   1.00
O585   O     0.51924   0.16665   0.82681   0.00000  Uiso   1.00
C586   C     0.47337   0.16438   0.85200   0.00000  Uiso   1.00
Zn587  Zn    0.44896   0.16667   0.75000   0.00000  Uiso   1.00
Zn588  Zn    0.55104   0.16666   0.75000   0.00000  Uiso   1.00
O589   O     0.46177   0.10559   0.75000   0.00000  Uiso   1.00
O590   O     0.53821   0.10558   0.75000   0.00000  Uiso   1.00
O591   O     0.48076   0.16668   0.67319   0.00000  Uiso   1.00
O592   O     0.55720   0.16667   0.67319   0.00000  Uiso   1.00
C593   C     0.49992   0.08667   0.75006   0.00000  Uiso   1.00
C594   C     0.52664   0.16648   0.64790   0.00000  Uiso   1.00
C595   C     0.59161   0.12381   0.50959   0.00000  Uiso   1.00
H596   H     0.61026   0.13062   0.58137   0.00000  Uiso   1.00
H597   H     0.59286   0.09488   0.91363   0.00000  Uiso   1.00
H598   H     0.62387   0.10636   0.98837   0.00000  Uiso   1.00
C599   C     0.54267   0.16054   0.58970   0.00000  Uiso   1.00
C600   C     0.41078   0.17719   0.94075   0.00000  Uiso   1.00
C601   C     0.39765   0.18193   0.99647   0.00000  Uiso   1.00
C602   C     0.43072   0.17338   0.52206   0.00000  Uiso   1.00
C603   C     0.47691   0.15756   0.99225   0.00000  Uiso   1.00
C604   C     0.48677   0.14629   0.93770   0.00000  Uiso   1.00
C605   C     0.51366   0.15252   0.51470   0.00000  Uiso   1.00
C606   C     0.55598   0.12998   0.98620   0.00000  Uiso   1.00
C607   C     0.56162   0.11340   0.93530   0.00000  Uiso   1.00
C608   C     0.52744   0.12142   0.91125   0.00000  Uiso   1.00
C609   C     0.50983   0.17016   0.56442   0.00000  Uiso   1.00
C610   C     0.58451   0.13836   0.56189   0.00000  Uiso   1.00
C611   C     0.45599   0.16087   0.91086   0.00000  Uiso   1.00
H612   H     0.48020   0.19031   0.58560   0.00000  Uiso   1.00
H613   H     0.38620   0.18746   0.92087   0.00000  Uiso   1.00
H614   H     0.41880   0.17835   0.56529   0.00000  Uiso   1.00
H615   H     0.36251   0.19404   0.51959   0.00000  Uiso   1.00
H616   H     0.53292   0.10746   0.87201   0.00000  Uiso   1.00
C617   C     0.54380   0.31207   0.73213   0.00000  Uiso   1.00
H618   H     0.57781   0.29576   0.71727   0.00000  Uiso   1.00
C619   C     0.54373   0.02146   0.73191   0.00000  Uiso   1.00
H620   H     0.57772   0.03791   0.71689   0.00000  Uiso   1.00
C621   C     0.49989   0.04252   0.75036   0.00000  Uiso   1.00
C622   C     0.45615   0.02128   0.76939   0.00000  Uiso   1.00
H623   H     0.42220   0.03761   0.78476   0.00000  Uiso   1.00
C624   C     0.45619   0.31188   0.76934   0.00000  Uiso   1.00
H625   H     0.42222   0.29541   0.78437   0.00000  Uiso   1.00
C626   C     0.50002   0.29082   0.75061   0.00000  Uiso   1.00
C627   C     0.65004   0.13594   0.72418   0.00000  Uiso   1.00
H628   H     0.63779   0.11155   0.70331   0.00000  Uiso   1.00
C629   C     0.36463   0.13579   0.72386   0.00000  Uiso   1.00
N630   N     0.38093   0.16668   0.75001   0.00000  Uiso   1.00
C631   C     0.34951   0.19726   0.77631   0.00000  Uiso   1.00
H632   H     0.36133   0.22173   0.79741   0.00000  Uiso   1.00
C633   C     0.63497   0.19725   0.77627   0.00000  Uiso   1.00
H634   H     0.61067   0.22175   0.79733   0.00000  Uiso   1.00
N635   N     0.61906   0.16665   0.75001   0.00000  Uiso   1.00
N636   N     0.39549   0.10274   0.69602   0.00000  Uiso   1.00
O637   O     0.42630   0.10947   0.64798   0.00000  Uiso   1.00
O638   O     0.38315   0.06451   0.71059   0.00000  Uiso   1.00
O639   O     0.79512   0.22775   0.75001   0.00000  Uiso   1.00
O640   O     0.87157   0.22774   0.75001   0.00000  Uiso   1.00
C641   C     0.83336   0.24667   0.75022   0.00000  Uiso   1.00
O642   O     0.77613   0.16666   0.82681   0.00000  Uiso   1.00
O643   O     0.85258   0.16665   0.82681   0.00000  Uiso   1.00
C644   C     0.80671   0.16438   0.85200   0.00000  Uiso   1.00
Zn645  Zn    0.78229   0.16667   0.75000   0.00000  Uiso   1.00
Zn646  Zn    0.88438   0.16666   0.75000   0.00000  Uiso   1.00
O647   O     0.79510   0.10559   0.75000   0.00000  Uiso   1.00
O648   O     0.87154   0.10558   0.75000   0.00000  Uiso   1.00
O649   O     0.81409   0.16668   0.67319   0.00000  Uiso   1.00
O650   O     0.89053   0.16667   0.67319   0.00000  Uiso   1.00
C651   C     0.83326   0.08667   0.75006   0.00000  Uiso   1.00
C652   C     0.85998   0.16648   0.64790   0.00000  Uiso   1.00
C653   C     0.92495   0.12381   0.50959   0.00000  Uiso   1.00
H654   H     0.94360   0.13062   0.58137   0.00000  Uiso   1.00
H655   H     0.92619   0.09488   0.91363   0.00000  Uiso   1.00
H656   H     0.95721   0.10636   0.98837   0.00000  Uiso   1.00
C657   C     0.87601   0.16054   0.58970   0.00000  Uiso   1.00
C658   C     0.74411   0.17719   0.94075   0.00000  Uiso   1.00
C659   C     0.73099   0.18193   0.99647   0.00000  Uiso   1.00
C660   C     0.76405   0.17338   0.52206   0.00000  Uiso   1.00
C661   C     0.81024   0.15756   0.99225   0.00000  Uiso   1.00
C662   C     0.82011   0.14629   0.93770   0.00000  Uiso   1.00
C663   C     0.84700   0.15252   0.51470   0.00000  Uiso   1.00
C664   C     0.88932   0.12998   0.98620   0.00000  Uiso   1.00
C665   C     0.89495   0.11340   0.93530   0.00000  Uiso   1.00
C666   C     0.86078   0.12142   0.91125   0.00000  Uiso   1.00
C667   C     0.84316   0.17016   0.56442   0.00000  Uiso   1.00
C668   C     0.91784   0.13836   0.56189   0.00000  Uiso   1.00
C669   C     0.78932   0.16087   0.91086   0.00000  Uiso   1.00
H670   H     0.81353   0.19031   0.58560   0.00000  Uiso   1.00
H671   H     0.71953   0.18746   0.92087   0.00000  Uiso   1.00
H672   H     0.75214   0.17835   0.56529   0.00000  Uiso   1.00
H673   H     0.69585   0.19404   0.51959   0.00000  Uiso   1.00
H674   H     0.86626   0.10746   0.87201   0.00000  Uiso   1.00
C675   C     0.87713   0.31207   0.73213   0.00000  Uiso   1.00
H676   H     0.91114   0.29576   0.71727   0.00000  Uiso   1.00
C677   C     0.87707   0.02146   0.73191   0.00000  Uiso   1.00
H678   H     0.91105   0.03791   0.71689   0.00000  Uiso   1.00
C679   C     0.83323   0.04252   0.75036   0.00000  Uiso   1.00
C680   C     0.78949   0.02128   0.76939   0.00000  Uiso   1.00
H681   H     0.75554   0.03761   0.78476   0.00000  Uiso   1.00
C682   C     0.78953   0.31188   0.76934   0.00000  Uiso   1.00
H683   H     0.75555   0.29541   0.78437   0.00000  Uiso   1.00
C684   C     0.83335   0.29082   0.75061   0.00000  Uiso   1.00
C685   C     0.98337   0.13594   0.72418   0.00000  Uiso   1.00
H686   H     0.97113   0.11155   0.70331   0.00000  Uiso   1.00
C687   C     0.69797   0.13579   0.72386   0.00000  Uiso   1.00
N688   N     0.71426   0.16668   0.75001   0.00000  Uiso   1.00
C689   C     0.68285   0.19726   0.77631   0.00000  Uiso   1.00
H690   H     0.69466   0.22173   0.79741   0.00000  Uiso   1.00
C691   C     0.96830   0.19725   0.77627   0.00000  Uiso   1.00
H692   H     0.94400   0.22175   0.79733   0.00000  Uiso   1.00
N693   N     0.95239   0.16665   0.75001   0.00000  Uiso   1.00
N694   N     0.72883   0.10274   0.69602   0.00000  Uiso   1.00
O695   O     0.75963   0.10947   0.64798   0.00000  Uiso   1.00
O696   O     0.71648   0.06451   0.71059   0.00000  Uiso   1.00
O697   O     0.12846   0.56108   0.75001   0.00000  Uiso   1.00
O698   O     0.20490   0.56107   0.75001   0.00000  Uiso   1.00
C699   C     0.16669   0.58000   0.75022   0.00000  Uiso   1.00
O700   O     0.10947   0.50000   0.82681   0.00000  Uiso   1.00
O701   O     0.18591   0.49999   0.82681   0.00000  Uiso   1.00
C702   C     0.14004   0.49771   0.85200   0.00000  Uiso   1.00
Zn703  Zn    0.11562   0.50001   0.75000   0.00000  Uiso   1.00
Zn704  Zn    0.21771   0.49999   0.75000   0.00000  Uiso   1.00
O705   O     0.12843   0.43893   0.75000   0.00000  Uiso   1.00
O706   O     0.20488   0.43892   0.75000   0.00000  Uiso   1.00
O707   O     0.14742   0.50001   0.67319   0.00000  Uiso   1.00
O708   O     0.22387   0.50000   0.67319   0.00000  Uiso   1.00
C709   C     0.16659   0.42000   0.75006   0.00000  Uiso   1.00
C710   C     0.19331   0.49982   0.64790   0.00000  Uiso   1.00
C711   C     0.25828   0.45714   0.50959   0.00000  Uiso   1.00
H712   H     0.27693   0.46395   0.58137   0.00000  Uiso   1.00
H713   H     0.25952   0.42821   0.91363   0.00000  Uiso   1.00
H714   H     0.29054   0.43970   0.98837   0.00000  Uiso   1.00
C715   C     0.20934   0.49387   0.58970   0.00000  Uiso   1.00
C716   C     0.07745   0.51052   0.94075   0.00000  Uiso   1.00
C717   C     0.06432   0.51526   0.99647   0.00000  Uiso   1.00
C718   C     0.09738   0.50672   0.52206   0.00000  Uiso   1.00
C719   C     0.14357   0.49090   0.99225   0.00000  Uiso   1.00
C720   C     0.15344   0.47963   0.93770   0.00000  Uiso   1.00
C721   C     0.18033   0.48585   0.51470   0.00000  Uiso   1.00
C722   C     0.22265   0.46332   0.98620   0.00000  Uiso   1.00
C723   C     0.22828   0.44673   0.93530   0.00000  Uiso   1.00
C724   C     0.19411   0.45475   0.91125   0.00000  Uiso   1.00
C725   C     0.17649   0.50349   0.56442   0.00000  Uiso   1.00
C726   C     0.25117   0.47169   0.56189   0.00000  Uiso   1.00
C727   C     0.12265   0.49420   0.91086   0.00000  Uiso   1.00
H728   H     0.14687   0.52364   0.58560   0.00000  Uiso   1.00
H729   H     0.05286   0.52080   0.92087   0.00000  Uiso   1.00
H730   H     0.08547   0.51169   0.56529   0.00000  Uiso   1.00
H731   H     0.02918   0.52737   0.51959   0.00000  Uiso   1.00
H732   H     0.19959   0.44079   0.87201   0.00000  Uiso   1.00
C733   C     0.21046   0.64540   0.73213   0.00000  Uiso   1.00
H734   H     0.24447   0.62909   0.71727   0.00000  Uiso   1.00
C735   C     0.21040   0.35479   0.73191   0.00000  Uiso   1.00
H736   H     0.24439   0.37125   0.71689   0.00000  Uiso   1.00
C737   C     0.16656   0.37585   0.75036   0.00000  Uiso   1.00
C738   C     0.12282   0.35461   0.76939   0.00000  Uiso   1.00
H739   H     0.08887   0.37095   0.78476   0.00000  Uiso   1.00
C740   C     0.12286   0.64522   0.76934   0.00000  Uiso   1.00
H741   H     0.08888   0.62875   0.78437   0.00000  Uiso   1.00
C742   C     0.16668   0.62416   0.75061   0.00000  Uiso   1.00
C743   C     0.31671   0.46927   0.72418   0.00000  Uiso   1.00
H744   H     0.30446   0.44488   0.70331   0.00000  Uiso   1.00
C745   C     0.03130   0.46913   0.72386   0.00000  Uiso   1.00
N746   N     0.04760   0.50001   0.75001   0.00000  Uiso   1.00
C747   C     0.01618   0.53059   0.77631   0.00000  Uiso   1.00
H748   H     0.02799   0.55506   0.79741   0.00000  Uiso   1.00
C749   C     0.30163   0.53058   0.77627   0.00000  Uiso   1.00
H750   H     0.27734   0.55508   0.79733   0.00000  Uiso   1.00
N751   N     0.28573   0.49998   0.75001   0.00000  Uiso   1.00
N752   N     0.06216   0.43608   0.69602   0.00000  Uiso   1.00
O753   O     0.09297   0.44280   0.64798   0.00000  Uiso   1.00
O754   O     0.04982   0.39784   0.71059   0.00000  Uiso   1.00
O755   O     0.46179   0.56108   0.75001   0.00000  Uiso   1.00
O756   O     0.53823   0.56107   0.75001   0.00000  Uiso   1.00
C757   C     0.50002   0.58000   0.75022   0.00000  Uiso   1.00
O758   O     0.44280   0.50000   0.82681   0.00000  Uiso   1.00
O759   O     0.51924   0.49999   0.82681   0.00000  Uiso   1.00
C760   C     0.47337   0.49771   0.85200   0.00000  Uiso   1.00
Zn761  Zn    0.44896   0.50001   0.75000   0.00000  Uiso   1.00
Zn762  Zn    0.55104   0.49999   0.75000   0.00000  Uiso   1.00
O763   O     0.46177   0.43893   0.75000   0.00000  Uiso   1.00
O764   O     0.53821   0.43892   0.75000   0.00000  Uiso   1.00
O765   O     0.48076   0.50001   0.67319   0.00000  Uiso   1.00
O766   O     0.55720   0.50000   0.67319   0.00000  Uiso   1.00
C767   C     0.49992   0.42000   0.75006   0.00000  Uiso   1.00
C768   C     0.52664   0.49982   0.64790   0.00000  Uiso   1.00
C769   C     0.59161   0.45714   0.50959   0.00000  Uiso   1.00
H770   H     0.61026   0.46395   0.58137   0.00000  Uiso   1.00
H771   H     0.59286   0.42821   0.91363   0.00000  Uiso   1.00
H772   H     0.62387   0.43970   0.98837   0.00000  Uiso   1.00
C773   C     0.54267   0.49387   0.58970   0.00000  Uiso   1.00
C774   C     0.41078   0.51052   0.94075   0.00000  Uiso   1.00
C775   C     0.39765   0.51526   0.99647   0.00000  Uiso   1.00
C776   C     0.43072   0.50672   0.52206   0.00000  Uiso   1.00
C777   C     0.47691   0.49090   0.99225   0.00000  Uiso   1.00
C778   C     0.48677   0.47963   0.93770   0.00000  Uiso   1.00
C779   C     0.51366   0.48585   0.51470   0.00000  Uiso   1.00
C780   C     0.55598   0.46332   0.98620   0.00000  Uiso   1.00
C781   C     0.56162   0.44673   0.93530   0.00000  Uiso   1.00
C782   C     0.52744   0.45475   0.91125   0.00000  Uiso   1.00
C783   C     0.50983   0.50349   0.56442   0.00000  Uiso   1.00
C784   C     0.58451   0.47169   0.56189   0.00000  Uiso   1.00
C785   C     0.45599   0.49420   0.91086   0.00000  Uiso   1.00
H786   H     0.48020   0.52364   0.58560   0.00000  Uiso   1.00
H787   H     0.38620   0.52080   0.92087   0.00000  Uiso   1.00
H788   H     0.41880   0.51169   0.56529   0.00000  Uiso   1.00
H789   H     0.36251   0.52737   0.51959   0.00000  Uiso   1.00
H790   H     0.53292   0.44079   0.87201   0.00000  Uiso   1.00
C791   C     0.54380   0.64540   0.73213   0.00000  Uiso   1.00
H792   H     0.57781   0.62909   0.71727   0.00000  Uiso   1.00
C793   C     0.54373   0.35479   0.73191   0.00000  Uiso   1.00
H794   H     0.57772   0.37125   0.71689   0.00000  Uiso   1.00
C795   C     0.49989   0.37585   0.75036   0.00000  Uiso   1.00
C796   C     0.45615   0.35461   0.76939   0.00000  Uiso   1.00
H797   H     0.42220   0.37095   0.78476   0.00000  Uiso   1.00
C798   C     0.45619   0.64522   0.76934   0.00000  Uiso   1.00
H799   H     0.42222   0.62875   0.78437   0.00000  Uiso   1.00
C800   C     0.50002   0.62416   0.75061   0.00000  Uiso   1.00
C801   C     0.65004   0.46927   0.72418   0.00000  Uiso   1.00
H802   H     0.63779   0.44488   0.70331   0.00000  Uiso   1.00
C803   C     0.36463   0.46913   0.72386   0.00000  Uiso   1.00
N804   N     0.38093   0.50001   0.75001   0.00000  Uiso   1.00
C805   C     0.34951   0.53059   0.77631   0.00000  Uiso   1.00
H806   H     0.36133   0.55506   0.79741   0.00000  Uiso   1.00
C807   C     0.63497   0.53058   0.77627   0.00000  Uiso   1.00
H808   H     0.61067   0.55508   0.79733   0.00000  Uiso   1.00
N809   N     0.61906   0.49998   0.75001   0.00000  Uiso   1.00
N810   N     0.39549   0.43608   0.69602   0.00000  Uiso   1.00
O811   O     0.42630   0.44280   0.64798   0.00000  Uiso   1.00
O812   O     0.38315   0.39784   0.71059   0.00000  Uiso   1.00
O813   O     0.79512   0.56108   0.75001   0.00000  Uiso   1.00
O814   O     0.87157   0.56107   0.75001   0.00000  Uiso   1.00
C815   C     0.83336   0.58000   0.75022   0.00000  Uiso   1.00
O816   O     0.77613   0.50000   0.82681   0.00000  Uiso   1.00
O817   O     0.85258   0.49999   0.82681   0.00000  Uiso   1.00
C818   C     0.80671   0.49771   0.85200   0.00000  Uiso   1.00
Zn819  Zn    0.78229   0.50001   0.75000   0.00000  Uiso   1.00
Zn820  Zn    0.88438   0.49999   0.75000   0.00000  Uiso   1.00
O821   O     0.79510   0.43893   0.75000   0.00000  Uiso   1.00
O822   O     0.87154   0.43892   0.75000   0.00000  Uiso   1.00
O823   O     0.81409   0.50001   0.67319   0.00000  Uiso   1.00
O824   O     0.89053   0.50000   0.67319   0.00000  Uiso   1.00
C825   C     0.83326   0.42000   0.75006   0.00000  Uiso   1.00
C826   C     0.85998   0.49982   0.64790   0.00000  Uiso   1.00
C827   C     0.92495   0.45714   0.50959   0.00000  Uiso   1.00
H828   H     0.94360   0.46395   0.58137   0.00000  Uiso   1.00
H829   H     0.92619   0.42821   0.91363   0.00000  Uiso   1.00
H830   H     0.95721   0.43970   0.98837   0.00000  Uiso   1.00
C831   C     0.87601   0.49387   0.58970   0.00000  Uiso   1.00
C832   C     0.74411   0.51052   0.94075   0.00000  Uiso   1.00
C833   C     0.73099   0.51526   0.99647   0.00000  Uiso   1.00
C834   C     0.76405   0.50672   0.52206   0.00000  Uiso   1.00
C835   C     0.81024   0.49090   0.99225   0.00000  Uiso   1.00
C836   C     0.82011   0.47963   0.93770   0.00000  Uiso   1.00
C837   C     0.84700   0.48585   0.51470   0.00000  Uiso   1.00
C838   C     0.88932   0.46332   0.98620   0.00000  Uiso   1.00
C839   C     0.89495   0.44673   0.93530   0.00000  Uiso   1.00
C840   C     0.86078   0.45475   0.91125   0.00000  Uiso   1.00
C841   C     0.84316   0.50349   0.56442   0.00000  Uiso   1.00
C842   C     0.91784   0.47169   0.56189   0.00000  Uiso   1.00
C843   C     0.78932   0.49420   0.91086   0.00000  Uiso   1.00
H844   H     0.81353   0.52364   0.58560   0.00000  Uiso   1.00
H845   H     0.71953   0.52080   0.92087   0.00000  Uiso   1.00
H846   H     0.75214   0.51169   0.56529   0.00000  Uiso   1.00
H847   H     0.69585   0.52737   0.51959   0.00000  Uiso   1.00
H848   H     0.86626   0.44079   0.87201   0.00000  Uiso   1.00
C849   C     0.87713   0.64540   0.73213   0.00000  Uiso   1.00
H850   H     0.91114   0.62909   0.71727   0.00000  Uiso   1.00
C851   C     0.87707   0.35479   0.73191   0.00000  Uiso   1.00
H852   H     0.91105   0.37125   0.71689   0.00000  Uiso   1.00
C853   C     0.83323   0.37585   0.75036   0.00000  Uiso   1.00
C854   C     0.78949   0.35461   0.76939   0.00000  Uiso   1.00
H855   H     0.75554   0.37095   0.78476   0.00000  Uiso   1.00
C856   C     0.78953   0.64522   0.76934   0.00000  Uiso   1.00
H857   H     0.75555   0.62875   0.78437   0.00000  Uiso   1.00
C858   C     0.83335   0.62416   0.75061   0.00000  Uiso   1.00
C859   C     0.98337   0.46927   0.72418   0.00000  Uiso   1.00
H860   H     0.97113   0.44488   0.70331   0.00000  Uiso   1.00
C861   C     0.69797   0.46913   0.72386   0.00000  Uiso   1.00
N862   N     0.71426   0.50001   0.75001   0.00000  Uiso   1.00
C863   C     0.68285   0.53059   0.77631   0.00000  Uiso   1.00
H864   H     0.69466   0.55506   0.79741   0.00000  Uiso   1.00
C865   C     0.96830   0.53058   0.77627   0.00000  Uiso   1.00
H866   H     0.94400   0.55508   0.79733   0.00000  Uiso   1.00
N867   N     0.95239   0.49998   0.75001   0.00000  Uiso   1.00
N868   N     0.72883   0.43608   0.69602   0.00000  Uiso   1.00
O869   O     0.75963   0.44280   0.64798   0.00000  Uiso   1.00
O870   O     0.71648   0.39784   0.71059   0.00000  Uiso   1.00
O871   O     0.12846   0.89442   0.75001   0.00000  Uiso   1.00
O872   O     0.20490   0.89441   0.75001   0.00000  Uiso   1.00
C873   C     0.16669   0.91333   0.75022   0.00000  Uiso   1.00
O874   O     0.10947   0.83333   0.82681   0.00000  Uiso   1.00
O875   O     0.18591   0.83332   0.82681   0.00000  Uiso   1.00
C876   C     0.14004   0.83105   0.85200   0.00000  Uiso   1.00
Zn877  Zn    0.11562   0.83334   0.75000   0.00000  Uiso   1.00
Zn878  Zn    0.21771   0.83333   0.75000   0.00000  Uiso   1.00
O879   O     0.12843   0.77226   0.75000   0.00000  Uiso   1.00
O880   O     0.20488   0.77225   0.75000   0.00000  Uiso   1.00
O881   O     0.14742   0.83335   0.67319   0.00000  Uiso   1.00
O882   O     0.22387   0.83334   0.67319   0.00000  Uiso   1.00
C883   C     0.16659   0.75333   0.75006   0.00000  Uiso   1.00
C884   C     0.19331   0.83315   0.64790   0.00000  Uiso   1.00
C885   C     0.25828   0.79048   0.50959   0.00000  Uiso   1.00
H886   H     0.27693   0.79729   0.58137   0.00000  Uiso   1.00
H887   H     0.25952   0.76155   0.91363   0.00000  Uiso   1.00
H888   H     0.29054   0.77303   0.98837   0.00000  Uiso   1.00
C889   C     0.20934   0.82721   0.58970   0.00000  Uiso   1.00
C890   C     0.07745   0.84386   0.94075   0.00000  Uiso   1.00
C891   C     0.06432   0.84860   0.99647   0.00000  Uiso   1.00
C892   C     0.09738   0.84005   0.52206   0.00000  Uiso   1.00
C893   C     0.14357   0.82423   0.99225   0.00000  Uiso   1.00
C894   C     0.15344   0.81296   0.93770   0.00000  Uiso   1.00
C895   C     0.18033   0.81918   0.51470   0.00000  Uiso   1.00
C896   C     0.22265   0.79665   0.98620   0.00000  Uiso   1.00
C897   C     0.22828   0.78007   0.93530   0.00000  Uiso   1.00
C898   C     0.19411   0.78809   0.91125   0.00000  Uiso   1.00
C899   C     0.17649   0.83682   0.56442   0.00000  Uiso   1.00
C900   C     0.25117   0.80503   0.56189   0.00000  Uiso   1.00
C901   C     0.12265   0.82754   0.91086   0.00000  Uiso   1.00
H902   H     0.14687   0.85698   0.58560   0.00000  Uiso   1.00
H903   H     0.05286   0.85413   0.92087   0.00000  Uiso   1.00
H904   H     0.08547   0.84502   0.56529   0.00000  Uiso   1.00
H905   H     0.02918   0.86070   0.51959   0.00000  Uiso   1.00
H906   H     0.19959   0.77412   0.87201   0.00000  Uiso   1.00
C907   C     0.21046   0.97874   0.73213   0.00000  Uiso   1.00
H908   H     0.24447   0.96242   0.71727   0.00000  Uiso   1.00
C909   C     0.21040   0.68812   0.73191   0.00000  Uiso   1.00
H910   H     0.24439   0.70458   0.71689   0.00000  Uiso   1.00
C911   C     0.16656   0.70919   0.75036   0.00000  Uiso   1.00
C912   C     0.12282   0.68795   0.76939   0.00000  Uiso   1.00
H913   H     0.08887   0.70428   0.78476   0.00000  Uiso   1.00
C914   C     0.12286   0.97855   0.76934   0.00000  Uiso   1.00
H915   H     0.08888   0.96208   0.78437   0.00000  Uiso   1.00
C916   C     0.16668   0.95749   0.75061   0.00000  Uiso   1.00
C917   C     0.31671   0.80260   0.72418   0.00000  Uiso   1.00
H918   H     0.30446   0.77821   0.70331   0.00000  Uiso   1.00
C919   C     0.03130   0.80246   0.72386   0.00000  Uiso   1.00
N920   N     0.04760   0.83334   0.75001   0.00000  Uiso   1.00
C921   C     0.01618   0.86392   0.77631   0.00000  Uiso   1.00
H922   H     0.02799   0.88840   0.79741   0.00000  Uiso   1.00
C923   C     0.30163   0.86392   0.77627   0.00000  Uiso   1.00
H924   H     0.27734   0.88841   0.79733   0.00000  Uiso   1.00
N925   N     0.28573   0.83331   0.75001   0.00000  Uiso   1.00
N926   N     0.06216   0.76941   0.69602   0.00000  Uiso   1.00
O927   O     0.09297   0.77614   0.64798   0.00000  Uiso   1.00
O928   O     0.04982   0.73117   0.71059   0.00000  Uiso   1.00
O929   O     0.46179   0.89442   0.75001   0.00000  Uiso   1.00
O930   O     0.53823   0.89441   0.75001   0.00000  Uiso   1.00
C931   C     0.50002   0.91333   0.75022   0.00000  Uiso   1.00
O932   O     0.44280   0.83333   0.82681   0.00000  Uiso   1.00
O933   O     0.51924   0.83332   0.82681   0.00000  Uiso   1.00
C934   C     0.47337   0.83105   0.85200   0.00000  Uiso   1.00
Zn935  Zn    0.44896   0.83334   0.75000   0.00000  Uiso   1.00
Zn936  Zn    0.55104   0.83333   0.75000   0.00000  Uiso   1.00
O937   O     0.46177   0.77226   0.75000   0.00000  Uiso   1.00
O938   O     0.53821   0.77225   0.75000   0.00000  Uiso   1.00
O939   O     0.48076   0.83335   0.67319   0.00000  Uiso   1.00
O940   O     0.55720   0.83334   0.67319   0.00000  Uiso   1.00
C941   C     0.49992   0.75333   0.75006   0.00000  Uiso   1.00
C942   C     0.52664   0.83315   0.64790   0.00000  Uiso   1.00
C943   C     0.59161   0.79048   0.50959   0.00000  Uiso   1.00
H944   H     0.61026   0.79729   0.58137   0.00000  Uiso   1.00
H945   H     0.59286   0.76155   0.91363   0.00000  Uiso   1.00
H946   H     0.62387   0.77303   0.98837   0.00000  Uiso   1.00
C947   C     0.54267   0.82721   0.58970   0.00000  Uiso   1.00
C948   C     0.41078   0.84386   0.94075   0.00000  Uiso   1.00
C949   C     0.39765   0.84860   0.99647   0.00000  Uiso   1.00
C950   C     0.43072   0.84005   0.52206   0.00000  Uiso   1.00
C951   C     0.47691   0.82423   0.99225   0.00000  Uiso   1.00
C952   C     0.48677   0.81296   0.93770   0.00000  Uiso   1.00
C953   C     0.51366   0.81918   0.51470   0.00000  Uiso   1.00
C954   C     0.55598   0.79665   0.98620   0.00000  Uiso   1.00
C955   C     0.56162   0.78007   0.93530   0.00000  Uiso   1.00
C956   C     0.52744   0.78809   0.91125   0.00000  Uiso   1.00
C957   C     0.50983   0.83682   0.56442   0.00000  Uiso   1.00
C958   C     0.58451   0.80503   0.56189   0.00000  Uiso   1.00
C959   C     0.45599   0.82754   0.91086   0.00000  Uiso   1.00
H960   H     0.48020   0.85698   0.58560   0.00000  Uiso   1.00
H961   H     0.38620   0.85413   0.92087   0.00000  Uiso   1.00
H962   H     0.41880   0.84502   0.56529   0.00000  Uiso   1.00
H963   H     0.36251   0.86070   0.51959   0.00000  Uiso   1.00
H964   H     0.53292   0.77412   0.87201   0.00000  Uiso   1.00
C965   C     0.54380   0.97874   0.73213   0.00000  Uiso   1.00
H966   H     0.57781   0.96242   0.71727   0.00000  Uiso   1.00
C967   C     0.54373   0.68812   0.73191   0.00000  Uiso   1.00
H968   H     0.57772   0.70458   0.71689   0.00000  Uiso   1.00
C969   C     0.49989   0.70919   0.75036   0.00000  Uiso   1.00
C970   C     0.45615   0.68795   0.76939   0.00000  Uiso   1.00
H971   H     0.42220   0.70428   0.78476   0.00000  Uiso   1.00
C972   C     0.45619   0.97855   0.76934   0.00000  Uiso   1.00
H973   H     0.42222   0.96208   0.78437   0.00000  Uiso   1.00
C974   C     0.50002   0.95749   0.75061   0.00000  Uiso   1.00
C975   C     0.65004   0.80260   0.72418   0.00000  Uiso   1.00
H976   H     0.63779   0.77821   0.70331   0.00000  Uiso   1.00
C977   C     0.36463   0.80246   0.72386   0.00000  Uiso   1.00
N978   N     0.38093   0.83334   0.75001   0.00000  Uiso   1.00
C979   C     0.34951   0.86392   0.77631   0.00000  Uiso   1.00
H980   H     0.36133   0.88840   0.79741   0.00000  Uiso   1.00
C981   C     0.63497   0.86392   0.77627   0.00000  Uiso   1.00
H982   H     0.61067   0.88841   0.79733   0.00000  Uiso   1.00
N983   N     0.61906   0.83331   0.75001   0.00000  Uiso   1.00
N984   N     0.39549   0.76941   0.69602   0.00000  Uiso   1.00
O985   O     0.42630   0.77614   0.64798   0.00000  Uiso   1.00
O986   O     0.38315   0.73117   0.71059   0.00000  Uiso   1.00
O987   O     0.79512   0.89442   0.75001   0.00000  Uiso   1.00
O988   O     0.87157   0.89441   0.75001   0.00000  Uiso   1.00
C989   C     0.83336   0.91333   0.75022   0.00000  Uiso   1.00
O990   O     0.77613   0.83333   0.82681   0.00000  Uiso   1.00
O991   O     0.85258   0.83332   0.82681   0.00000  Uiso   1.00
C992   C     0.80671   0.83105   0.85200   0.00000  Uiso   1.00
Zn993  Zn    0.78229   0.83334   0.75000   0.00000  Uiso   1.00
Zn994  Zn    0.88438   0.83333   0.75000   0.00000  Uiso   1.00
O995   O     0.79510   0.77226   0.75000   0.00000  Uiso   1.00
O996   O     0.87154   0.77225   0.75000   0.00000  Uiso   1.00
O997   O     0.81409   0.83335   0.67319   0.00000  Uiso   1.00
O998   O     0.89053   0.83334   0.67319   0.00000  Uiso   1.00
C999   C     0.83326   0.75333   0.75006   0.00000  Uiso   1.00
C1000  C     0.85998   0.83315   0.64790   0.00000  Uiso   1.00
C1001  C     0.92495   0.79048   0.50959   0.00000  Uiso   1.00
H1002  H     0.94360   0.79729   0.58137   0.00000  Uiso   1.00
H1003  H     0.92619   0.76155   0.91363   0.00000  Uiso   1.00
H1004  H     0.95721   0.77303   0.98837   0.00000  Uiso   1.00
C1005  C     0.87601   0.82721   0.58970   0.00000  Uiso   1.00
C1006  C     0.74411   0.84386   0.94075   0.00000  Uiso   1.00
C1007  C     0.73099   0.84860   0.99647   0.00000  Uiso   1.00
C1008  C     0.76405   0.84005   0.52206   0.00000  Uiso   1.00
C1009  C     0.81024   0.82423   0.99225   0.00000  Uiso   1.00
C1010  C     0.82011   0.81296   0.93770   0.00000  Uiso   1.00
C1011  C     0.84700   0.81918   0.51470   0.00000  Uiso   1.00
C1012  C     0.88932   0.79665   0.98620   0.00000  Uiso   1.00
C1013  C     0.89495   0.78007   0.93530   0.00000  Uiso   1.00
C1014  C     0.86078   0.78809   0.91125   0.00000  Uiso   1.00
C1015  C     0.84316   0.83682   0.56442   0.00000  Uiso   1.00
C1016  C     0.91784   0.80503   0.56189   0.00000  Uiso   1.00
C1017  C     0.78932   0.82754   0.91086   0.00000  Uiso   1.00
H1018  H     0.81353   0.85698   0.58560   0.00000  Uiso   1.00
H1019  H     0.71953   0.85413   0.92087   0.00000  Uiso   1.00
H1020  H     0.75214   0.84502   0.56529   0.00000  Uiso   1.00
H1021  H     0.69585   0.86070   0.51959   0.00000  Uiso   1.00
H1022  H     0.86626   0.77412   0.87201   0.00000  Uiso   1.00
C1023  C     0.87713   0.97874   0.73213   0.00000  Uiso   1.00
H1024  H     0.91114   0.96242   0.71727   0.00000  Uiso   1.00
C1025  C     0.87707   0.68812   0.73191   0.00000  Uiso   1.00
H1026  H     0.91105   0.70458   0.71689   0.00000  Uiso   1.00
C1027  C     0.83323   0.70919   0.75036   0.00000  Uiso   1.00
C1028  C     0.78949   0.68795   0.76939   0.00000  Uiso   1.00
H1029  H     0.75554   0.70428   0.78476   0.00000  Uiso   1.00
C1030  C     0.78953   0.97855   0.76934   0.00000  Uiso   1.00
H1031  H     0.75555   0.96208   0.78437   0.00000  Uiso   1.00
C1032  C     0.83335   0.95749   0.75061   0.00000  Uiso   1.00
C1033  C     0.98337   0.80260   0.72418   0.00000  Uiso   1.00
H1034  H     0.97113   0.77821   0.70331   0.00000  Uiso   1.00
C1035  C     0.69797   0.80246   0.72386   0.00000  Uiso   1.00
N1036  N     0.71426   0.83334   0.75001   0.00000  Uiso   1.00
C1037  C     0.68285   0.86392   0.77631   0.00000  Uiso   1.00
H1038  H     0.69466   0.88840   0.79741   0.00000  Uiso   1.00
C1039  C     0.96830   0.86392   0.77627   0.00000  Uiso   1.00
H1040  H     0.94400   0.88841   0.79733   0.00000  Uiso   1.00
N1041  N     0.95239   0.83331   0.75001   0.00000  Uiso   1.00
N1042  N     0.72883   0.76941   0.69602   0.00000  Uiso   1.00
O1043  O     0.75963   0.77614   0.64798   0.00000  Uiso   1.00
O1044  O     0.71648   0.73117   0.71059   0.00000  Uiso   1.00
loop_
_geom_bond_atom_site_label_1
_geom_bond_atom_site_label_2
_geom_bond_distance
_geom_bond_site_symmetry_2
_ccdc_geom_bond_type
O1     Zn7     1.994   .     S
O1     C3      1.284   .     A
O2     C3      1.285   .     A
O2     Zn8     1.998   .     S
C3     C46     1.417   .     S
O4     Zn7     1.963   .     S
O4     C6      1.293   .     A
O5     Zn8     1.914   .     S
O5     C6      1.295   .     A
C6     C31     1.459   .     S
Zn7    O11     1.914   .     S
Zn7    O9      1.998   .     S
Zn7    N50     2.014   .     S
Zn8    O12     1.963   .     S
Zn8    N55     2.014   .     S
Zn8    O10     1.994   .     S
O9     C13     1.285   .     A
O10    C13     1.283   .     A
O11    C14     1.293   .     A
O12    C14     1.292   .     A
C13    C41     1.416   .     S
C14    C19     1.450   .     S
C15    C30     1.395   .     A
C15    H540    1.084   1_554 S
C15    C548    1.405   1_554 S
H16    C30     1.083   .     S
H17    C27     1.084   .     S
H18    C537    1.084   .     S
C19    C30     1.400   .     A
C19    C29     1.388   .     A
C20    H33     1.083   .     S
C20    C21     1.388   .     A
C20    C31     1.403   .     A
C21    C544    1.392   .     S
C21    H557    1.083   .     S
C22    H34     1.079   .     S
C22    C543    1.392   1_554 S
C22    C545    1.419   1_554 S
C23    C24     1.407   .     A
C23    C544    1.419   .     S
C23    C547    1.413   .     S
C24    C31     1.411   .     A
C24    C28     1.415   .     A
C25    C29     1.389   .     A
C25    C545    1.413   1_554 S
C25    C548    1.420   1_554 S
C26    C27     1.392   .     A
C26    C537    1.405   .     S
C26    C547    1.420   .     S
C27    C28     1.388   .     A
C28    H36     1.082   .     S
C29    H32     1.079   .     S
H35    C543    1.083   1_554 S
C37    H38     1.084   .     S
C37    C46     1.396   .     A
C37    C213    1.371   .     S
C39    H40     1.084   .     S
C39    C41     1.397   .     A
C39    C385    1.371   1_545 S
C41    C42     1.396   .     A
C42    H43     1.083   .     S
C42    C392    1.371   1_545 S
C44    H45     1.084   .     S
C44    C46     1.397   .     A
C44    C216    1.371   .     S
C47    H48     1.082   .     S
C47    N55     1.360   .     A
C47    C107    1.416   .     S
C49    N56     1.427   .     S
C49    N50     1.378   .     A
C49    C163    1.416   1_455 S
N50    C51     1.366   .     A
C51    H52     1.082   .     S
C51    C169    1.418   1_455 S
C53    H54     1.082   .     S
C53    N55     1.368   .     A
C53    C109    1.418   .     S
N56    O57     1.300   .     A
N56    O58     1.301   .     A
O59    Zn65    1.994   .     S
O59    C61     1.284   .     A
O60    C61     1.285   .     A
O60    Zn66    1.998   .     S
C61    C104    1.417   .     S
O62    Zn65    1.963   .     S
O62    C64     1.293   .     A
O63    Zn66    1.914   .     S
O63    C64     1.295   .     A
C64    C89     1.459   .     S
Zn65   O69     1.914   .     S
Zn65   O67     1.998   .     S
Zn65   N108    2.014   .     S
Zn66   O70     1.963   .     S
Zn66   N113    2.014   .     S
Zn66   O68     1.994   .     S
O67    C71     1.285   .     A
O68    C71     1.283   .     A
O69    C72     1.293   .     A
O70    C72     1.292   .     A
C71    C99     1.416   .     S
C72    C77     1.450   .     S
C73    C88     1.395   .     A
C73    H598    1.084   1_554 S
C73    C606    1.405   1_554 S
H74    C88     1.083   .     S
H75    C85     1.084   .     S
H76    C595    1.084   .     S
C77    C88     1.400   .     A
C77    C87     1.388   .     A
C78    H91     1.083   .     S
C78    C79     1.388   .     A
C78    C89     1.403   .     A
C79    C602    1.392   .     S
C79    H615    1.083   .     S
C80    H92     1.079   .     S
C80    C601    1.392   1_554 S
C80    C603    1.419   1_554 S
C81    C82     1.407   .     A
C81    C602    1.419   .     S
C81    C605    1.413   .     S
C82    C89     1.411   .     A
C82    C86     1.415   .     A
C83    C87     1.389   .     A
C83    C603    1.413   1_554 S
C83    C606    1.420   1_554 S
C84    C85     1.392   .     A
C84    C595    1.405   .     S
C84    C605    1.420   .     S
C85    C86     1.388   .     A
C86    H94     1.082   .     S
C87    H90     1.079   .     S
H93    C601    1.083   1_554 S
C95    H96     1.084   .     S
C95    C104    1.396   .     A
C95    C271    1.371   .     S
C97    H98     1.084   .     S
C97    C99     1.397   .     A
C97    C443    1.371   1_545 S
C99    C100    1.396   .     A
C100   H101    1.083   .     S
C100   C450    1.371   1_545 S
C102   H103    1.084   .     S
C102   C104    1.397   .     A
C102   C274    1.371   .     S
C105   H106    1.082   .     S
C105   N113    1.360   .     A
C105   C165    1.416   .     S
C107   N114    1.427   .     S
C107   N108    1.378   .     A
N108   C109    1.366   .     A
C109   H110    1.082   .     S
C111   H112    1.082   .     S
C111   N113    1.368   .     A
C111   C167    1.418   .     S
N114   O115    1.300   .     A
N114   O116    1.301   .     A
O117   Zn123   1.994   .     S
O117   C119    1.284   .     A
O118   C119    1.285   .     A
O118   Zn124   1.998   .     S
C119   C162    1.417   .     S
O120   Zn123   1.963   .     S
O120   C122    1.293   .     A
O121   Zn124   1.914   .     S
O121   C122    1.295   .     A
C122   C147    1.459   .     S
Zn123  O127    1.914   .     S
Zn123  O125    1.998   .     S
Zn123  N166    2.014   .     S
Zn124  O128    1.963   .     S
Zn124  N171    2.014   .     S
Zn124  O126    1.994   .     S
O125   C129    1.285   .     A
O126   C129    1.283   .     A
O127   C130    1.293   .     A
O128   C130    1.292   .     A
C129   C157    1.416   .     S
C130   C135    1.450   .     S
C131   C146    1.395   .     A
C131   H656    1.084   1_554 S
C131   C664    1.405   1_554 S
H132   C146    1.083   .     S
H133   C143    1.084   .     S
H134   C653    1.084   .     S
C135   C146    1.400   .     A
C135   C145    1.388   .     A
C136   H149    1.083   .     S
C136   C137    1.388   .     A
C136   C147    1.403   .     A
C137   C660    1.392   .     S
C137   H673    1.083   .     S
C138   H150    1.079   .     S
C138   C659    1.392   1_554 S
C138   C661    1.419   1_554 S
C139   C140    1.407   .     A
C139   C660    1.419   .     S
C139   C663    1.413   .     S
C140   C147    1.411   .     A
C140   C144    1.415   .     A
C141   C145    1.389   .     A
C141   C661    1.413   1_554 S
C141   C664    1.420   1_554 S
C142   C143    1.392   .     A
C142   C653    1.405   .     S
C142   C663    1.420   .     S
C143   C144    1.388   .     A
C144   H152    1.082   .     S
C145   H148    1.079   .     S
H151   C659    1.083   1_554 S
C153   H154    1.084   .     S
C153   C162    1.396   .     A
C153   C329    1.371   .     S
C155   H156    1.084   .     S
C155   C157    1.397   .     A
C155   C501    1.371   1_545 S
C157   C158    1.396   .     A
C158   H159    1.083   .     S
C158   C508    1.371   1_545 S
C160   H161    1.084   .     S
C160   C162    1.397   .     A
C160   C332    1.371   .     S
C163   H164    1.082   .     S
C163   N171    1.360   .     A
C163   C49     1.416   1_655 S
C165   N172    1.427   .     S
C165   N166    1.378   .     A
N166   C167    1.366   .     A
C167   H168    1.082   .     S
C169   H170    1.082   .     S
C169   N171    1.368   .     A
C169   C51     1.418   1_655 S
N172   O173    1.300   .     A
N172   O174    1.301   .     A
O175   Zn181   1.994   .     S
O175   C177    1.284   .     A
O176   C177    1.285   .     A
O176   Zn182   1.998   .     S
C177   C220    1.417   .     S
O178   Zn181   1.963   .     S
O178   C180    1.293   .     A
O179   Zn182   1.914   .     S
O179   C180    1.295   .     A
C180   C205    1.459   .     S
Zn181  O185    1.914   .     S
Zn181  O183    1.998   .     S
Zn181  N224    2.014   .     S
Zn182  O186    1.963   .     S
Zn182  N229    2.014   .     S
Zn182  O184    1.994   .     S
O183   C187    1.285   .     A
O184   C187    1.283   .     A
O185   C188    1.293   .     A
O186   C188    1.292   .     A
C187   C215    1.416   .     S
C188   C193    1.450   .     S
C189   C204    1.395   .     A
C189   H714    1.084   1_554 S
C189   C722    1.405   1_554 S
H190   C204    1.083   .     S
H191   C201    1.084   .     S
H192   C711    1.084   .     S
C193   C204    1.400   .     A
C193   C203    1.388   .     A
C194   H207    1.083   .     S
C194   C195    1.388   .     A
C194   C205    1.403   .     A
C195   C718    1.392   .     S
C195   H731    1.083   .     S
C196   H208    1.079   .     S
C196   C717    1.392   1_554 S
C196   C719    1.419   1_554 S
C197   C198    1.407   .     A
C197   C718    1.419   .     S
C197   C721    1.413   .     S
C198   C205    1.411   .     A
C198   C202    1.415   .     A
C199   C203    1.389   .     A
C199   C719    1.413   1_554 S
C199   C722    1.420   1_554 S
C200   C201    1.392   .     A
C200   C711    1.405   .     S
C200   C721    1.420   .     S
C201   C202    1.388   .     A
C202   H210    1.082   .     S
C203   H206    1.079   .     S
H209   C717    1.083   1_554 S
C211   H212    1.084   .     S
C211   C220    1.396   .     A
C211   C387    1.371   .     S
C213   H214    1.084   .     S
C213   C215    1.397   .     A
C215   C216    1.396   .     A
C216   H217    1.083   .     S
C218   H219    1.084   .     S
C218   C220    1.397   .     A
C218   C390    1.371   .     S
C221   H222    1.082   .     S
C221   N229    1.360   .     A
C221   C281    1.416   .     S
C223   N230    1.427   .     S
C223   N224    1.378   .     A
C223   C337    1.416   1_455 S
N224   C225    1.366   .     A
C225   H226    1.082   .     S
C225   C343    1.418   1_455 S
C227   H228    1.082   .     S
C227   N229    1.368   .     A
C227   C283    1.418   .     S
N230   O231    1.300   .     A
N230   O232    1.301   .     A
O233   Zn239   1.994   .     S
O233   C235    1.284   .     A
O234   C235    1.285   .     A
O234   Zn240   1.998   .     S
C235   C278    1.417   .     S
O236   Zn239   1.963   .     S
O236   C238    1.293   .     A
O237   Zn240   1.914   .     S
O237   C238    1.295   .     A
C238   C263    1.459   .     S
Zn239  O243    1.914   .     S
Zn239  O241    1.998   .     S
Zn239  N282    2.014   .     S
Zn240  O244    1.963   .     S
Zn240  N287    2.014   .     S
Zn240  O242    1.994   .     S
O241   C245    1.285   .     A
O242   C245    1.283   .     A
O243   C246    1.293   .     A
O244   C246    1.292   .     A
C245   C273    1.416   .     S
C246   C251    1.450   .     S
C247   C262    1.395   .     A
C247   H772    1.084   1_554 S
C247   C780    1.405   1_554 S
H248   C262    1.083   .     S
H249   C259    1.084   .     S
H250   C769    1.084   .     S
C251   C262    1.400   .     A
C251   C261    1.388   .     A
C252   H265    1.083   .     S
C252   C253    1.388   .     A
C252   C263    1.403   .     A
C253   C776    1.392   .     S
C253   H789    1.083   .     S
C254   H266    1.079   .     S
C254   C775    1.392   1_554 S
C254   C777    1.419   1_554 S
C255   C256    1.407   .     A
C255   C776    1.419   .     S
C255   C779    1.413   .     S
C256   C263    1.411   .     A
C256   C260    1.415   .     A
C257   C261    1.389   .     A
C257   C777    1.413   1_554 S
C257   C780    1.420   1_554 S
C258   C259    1.392   .     A
C258   C769    1.405   .     S
C258   C779    1.420   .     S
C259   C260    1.388   .     A
C260   H268    1.082   .     S
C261   H264    1.079   .     S
H267   C775    1.083   1_554 S
C269   H270    1.084   .     S
C269   C278    1.396   .     A
C269   C445    1.371   .     S
C271   H272    1.084   .     S
C271   C273    1.397   .     A
C273   C274    1.396   .     A
C274   H275    1.083   .     S
C276   H277    1.084   .     S
C276   C278    1.397   .     A
C276   C448    1.371   .     S
C279   H280    1.082   .     S
C279   N287    1.360   .     A
C279   C339    1.416   .     S
C281   N288    1.427   .     S
C281   N282    1.378   .     A
N282   C283    1.366   .     A
C283   H284    1.082   .     S
C285   H286    1.082   .     S
C285   N287    1.368   .     A
C285   C341    1.418   .     S
N288   O289    1.300   .     A
N288   O290    1.301   .     A
O291   Zn297   1.994   .     S
O291   C293    1.284   .     A
O292   C293    1.285   .     A
O292   Zn298   1.998   .     S
C293   C336    1.417   .     S
O294   Zn297   1.963   .     S
O294   C296    1.293   .     A
O295   Zn298   1.914   .     S
O295   C296    1.295   .     A
C296   C321    1.459   .     S
Zn297  O301    1.914   .     S
Zn297  O299    1.998   .     S
Zn297  N340    2.014   .     S
Zn298  O302    1.963   .     S
Zn298  N345    2.014   .     S
Zn298  O300    1.994   .     S
O299   C303    1.285   .     A
O300   C303    1.283   .     A
O301   C304    1.293   .     A
O302   C304    1.292   .     A
C303   C331    1.416   .     S
C304   C309    1.450   .     S
C305   C320    1.395   .     A
C305   H830    1.084   1_554 S
C305   C838    1.405   1_554 S
H306   C320    1.083   .     S
H307   C317    1.084   .     S
H308   C827    1.084   .     S
C309   C320    1.400   .     A
C309   C319    1.388   .     A
C310   H323    1.083   .     S
C310   C311    1.388   .     A
C310   C321    1.403   .     A
C311   C834    1.392   .     S
C311   H847    1.083   .     S
C312   H324    1.079   .     S
C312   C833    1.392   1_554 S
C312   C835    1.419   1_554 S
C313   C314    1.407   .     A
C313   C834    1.419   .     S
C313   C837    1.413   .     S
C314   C321    1.411   .     A
C314   C318    1.415   .     A
C315   C319    1.389   .     A
C315   C835    1.413   1_554 S
C315   C838    1.420   1_554 S
C316   C317    1.392   .     A
C316   C827    1.405   .     S
C316   C837    1.420   .     S
C317   C318    1.388   .     A
C318   H326    1.082   .     S
C319   H322    1.079   .     S
H325   C833    1.083   1_554 S
C327   H328    1.084   .     S
C327   C336    1.396   .     A
C327   C503    1.371   .     S
C329   H330    1.084   .     S
C329   C331    1.397   .     A
C331   C332    1.396   .     A
C332   H333    1.083   .     S
C334   H335    1.084   .     S
C334   C336    1.397   .     A
C334   C506    1.371   .     S
C337   H338    1.082   .     S
C337   N345    1.360   .     A
C337   C223    1.416   1_655 S
C339   N346    1.427   .     S
C339   N340    1.378   .     A
N340   C341    1.366   .     A
C341   H342    1.082   .     S
C343   H344    1.082   .     S
C343   N345    1.368   .     A
C343   C225    1.418   1_655 S
N346   O347    1.300   .     A
N346   O348    1.301   .     A
O349   Zn355   1.994   .     S
O349   C351    1.284   .     A
O350   C351    1.285   .     A
O350   Zn356   1.998   .     S
C351   C394    1.417   .     S
O352   Zn355   1.963   .     S
O352   C354    1.293   .     A
O353   Zn356   1.914   .     S
O353   C354    1.295   .     A
C354   C379    1.459   .     S
Zn355  O359    1.914   .     S
Zn355  O357    1.998   .     S
Zn355  N398    2.014   .     S
Zn356  O360    1.963   .     S
Zn356  N403    2.014   .     S
Zn356  O358    1.994   .     S
O357   C361    1.285   .     A
O358   C361    1.283   .     A
O359   C362    1.293   .     A
O360   C362    1.292   .     A
C361   C389    1.416   .     S
C362   C367    1.450   .     S
C363   C378    1.395   .     A
C363   H888    1.084   1_554 S
C363   C896    1.405   1_554 S
H364   C378    1.083   .     S
H365   C375    1.084   .     S
H366   C885    1.084   .     S
C367   C378    1.400   .     A
C367   C377    1.388   .     A
C368   H381    1.083   .     S
C368   C369    1.388   .     A
C368   C379    1.403   .     A
C369   C892    1.392   .     S
C369   H905    1.083   .     S
C370   H382    1.079   .     S
C370   C891    1.392   1_554 S
C370   C893    1.419   1_554 S
C371   C372    1.407   .     A
C371   C892    1.419   .     S
C371   C895    1.413   .     S
C372   C379    1.411   .     A
C372   C376    1.415   .     A
C373   C377    1.389   .     A
C373   C893    1.413   1_554 S
C373   C896    1.420   1_554 S
C374   C375    1.392   .     A
C374   C885    1.405   .     S
C374   C895    1.420   .     S
C375   C376    1.388   .     A
C376   H384    1.082   .     S
C377   H380    1.079   .     S
H383   C891    1.083   1_554 S
C385   H386    1.084   .     S
C385   C394    1.396   .     A
C385   C39     1.371   1_565 S
C387   H388    1.084   .     S
C387   C389    1.397   .     A
C389   C390    1.396   .     A
C390   H391    1.083   .     S
C392   H393    1.084   .     S
C392   C394    1.397   .     A
C392   C42     1.371   1_565 S
C395   H396    1.082   .     S
C395   N403    1.360   .     A
C395   C455    1.416   .     S
C397   N404    1.427   .     S
C397   N398    1.378   .     A
C397   C511    1.416   1_455 S
N398   C399    1.366   .     A
C399   H400    1.082   .     S
C399   C517    1.418   1_455 S
C401   H402    1.082   .     S
C401   N403    1.368   .     A
C401   C457    1.418   .     S
N404   O405    1.300   .     A
N404   O406    1.301   .     A
O407   Zn413   1.994   .     S
O407   C409    1.284   .     A
O408   C409    1.285   .     A
O408   Zn414   1.998   .     S
C409   C452    1.417   .     S
O410   Zn413   1.963   .     S
O410   C412    1.293   .     A
O411   Zn414   1.914   .     S
O411   C412    1.295   .     A
C412   C437    1.459   .     S
Zn413  O417    1.914   .     S
Zn413  O415    1.998   .     S
Zn413  N456    2.014   .     S
Zn414  O418    1.963   .     S
Zn414  N461    2.014   .     S
Zn414  O416    1.994   .     S
O415   C419    1.285   .     A
O416   C419    1.283   .     A
O417   C420    1.293   .     A
O418   C420    1.292   .     A
C419   C447    1.416   .     S
C420   C425    1.450   .     S
C421   C436    1.395   .     A
C421   H946    1.084   1_554 S
C421   C954    1.405   1_554 S
H422   C436    1.083   .     S
H423   C433    1.084   .     S
H424   C943    1.084   .     S
C425   C436    1.400   .     A
C425   C435    1.388   .     A
C426   H439    1.083   .     S
C426   C427    1.388   .     A
C426   C437    1.403   .     A
C427   C950    1.392   .     S
C427   H963    1.083   .     S
C428   H440    1.079   .     S
C428   C949    1.392   1_554 S
C428   C951    1.419   1_554 S
C429   C430    1.407   .     A
C429   C950    1.419   .     S
C429   C953    1.413   .     S
C430   C437    1.411   .     A
C430   C434    1.415   .     A
C431   C435    1.389   .     A
C431   C951    1.413   1_554 S
C431   C954    1.420   1_554 S
C432   C433    1.392   .     A
C432   C943    1.405   .     S
C432   C953    1.420   .     S
C433   C434    1.388   .     A
C434   H442    1.082   .     S
C435   H438    1.079   .     S
H441   C949    1.083   1_554 S
C443   H444    1.084   .     S
C443   C452    1.396   .     A
C443   C97     1.371   1_565 S
C445   H446    1.084   .     S
C445   C447    1.397   .     A
C447   C448    1.396   .     A
C448   H449    1.083   .     S
C450   H451    1.084   .     S
C450   C452    1.397   .     A
C450   C100    1.371   1_565 S
C453   H454    1.082   .     S
C453   N461    1.360   .     A
C453   C513    1.416   .     S
C455   N462    1.427   .     S
C455   N456    1.378   .     A
N456   C457    1.366   .     A
C457   H458    1.082   .     S
C459   H460    1.082   .     S
C459   N461    1.368   .     A
C459   C515    1.418   .     S
N462   O463    1.300   .     A
N462   O464    1.301   .     A
O465   Zn471   1.994   .     S
O465   C467    1.284   .     A
O466   C467    1.285   .     A
O466   Zn472   1.998   .     S
C467   C510    1.417   .     S
O468   Zn471   1.963   .     S
O468   C470    1.293   .     A
O469   Zn472   1.914   .     S
O469   C470    1.295   .     A
C470   C495    1.459   .     S
Zn471  O475    1.914   .     S
Zn471  O473    1.998   .     S
Zn471  N514    2.014   .     S
Zn472  O476    1.963   .     S
Zn472  N519    2.014   .     S
Zn472  O474    1.994   .     S
O473   C477    1.285   .     A
O474   C477    1.283   .     A
O475   C478    1.293   .     A
O476   C478    1.292   .     A
C477   C505    1.416   .     S
C478   C483    1.450   .     S
C479   C494    1.395   .     A
C479   H1004   1.084   1_554 S
C479   C1012   1.405   1_554 S
H480   C494    1.083   .     S
H481   C491    1.084   .     S
H482   C1001   1.084   .     S
C483   C494    1.400   .     A
C483   C493    1.388   .     A
C484   H497    1.083   .     S
C484   C485    1.388   .     A
C484   C495    1.403   .     A
C485   C1008   1.392   .     S
C485   H1021   1.083   .     S
C486   H498    1.079   .     S
C486   C1007   1.392   1_554 S
C486   C1009   1.419   1_554 S
C487   C488    1.407   .     A
C487   C1008   1.419   .     S
C487   C1011   1.413   .     S
C488   C495    1.411   .     A
C488   C492    1.415   .     A
C489   C493    1.389   .     A
C489   C1009   1.413   1_554 S
C489   C1012   1.420   1_554 S
C490   C491    1.392   .     A
C490   C1001   1.405   .     S
C490   C1011   1.420   .     S
C491   C492    1.388   .     A
C492   H500    1.082   .     S
C493   H496    1.079   .     S
H499   C1007   1.083   1_554 S
C501   H502    1.084   .     S
C501   C510    1.396   .     A
C501   C155    1.371   1_565 S
C503   H504    1.084   .     S
C503   C505    1.397   .     A
C505   C506    1.396   .     A
C506   H507    1.083   .     S
C508   H509    1.084   .     S
C508   C510    1.397   .     A
C508   C158    1.371   1_565 S
C511   H512    1.082   .     S
C511   N519    1.360   .     A
C511   C397    1.416   1_655 S
C513   N520    1.427   .     S
C513   N514    1.378   .     A
N514   C515    1.366   .     A
C515   H516    1.082   .     S
C517   H518    1.082   .     S
C517   N519    1.368   .     A
C517   C399    1.418   1_655 S
N520   O521    1.300   .     A
N520   O522    1.301   .     A
O523   Zn529   1.994   .     S
O523   C525    1.284   .     A
O524   C525    1.285   .     A
O524   Zn530   1.998   .     S
C525   C568    1.417   .     S
O526   Zn529   1.963   .     S
O526   C528    1.293   .     A
O527   Zn530   1.914   .     S
O527   C528    1.295   .     A
C528   C553    1.459   .     S
Zn529  O533    1.914   .     S
Zn529  O531    1.998   .     S
Zn529  N572    2.014   .     S
Zn530  O534    1.963   .     S
Zn530  N577    2.014   .     S
Zn530  O532    1.994   .     S
O531   C535    1.285   .     A
O532   C535    1.283   .     A
O533   C536    1.293   .     A
O534   C536    1.292   .     A
C535   C563    1.416   .     S
C536   C541    1.450   .     S
C537   C552    1.395   .     A
H538   C552    1.083   .     S
H539   C549    1.084   .     S
H540   C15     1.084   1_556 S
C541   C552    1.400   .     A
C541   C551    1.388   .     A
C542   H555    1.083   .     S
C542   C543    1.388   .     A
C542   C553    1.403   .     A
C543   C22     1.392   1_556 S
C543   H35     1.083   1_556 S
C544   H556    1.079   .     S
C545   C546    1.407   .     A
C545   C22     1.419   1_556 S
C545   C25     1.413   1_556 S
C546   C553    1.411   .     A
C546   C550    1.415   .     A
C547   C551    1.389   .     A
C548   C549    1.392   .     A
C548   C15     1.405   1_556 S
C548   C25     1.420   1_556 S
C549   C550    1.388   .     A
C550   H558    1.082   .     S
C551   H554    1.079   .     S
C559   H560    1.084   .     S
C559   C568    1.396   .     A
C559   C735    1.371   .     S
C561   H562    1.084   .     S
C561   C563    1.397   .     A
C561   C907    1.371   1_545 S
C563   C564    1.396   .     A
C564   H565    1.083   .     S
C564   C914    1.371   1_545 S
C566   H567    1.084   .     S
C566   C568    1.397   .     A
C566   C738    1.371   .     S
C569   H570    1.082   .     S
C569   N577    1.360   .     A
C569   C629    1.416   .     S
C571   N578    1.427   .     S
C571   N572    1.378   .     A
C571   C685    1.416   1_455 S
N572   C573    1.366   .     A
C573   H574    1.082   .     S
C573   C691    1.418   1_455 S
C575   H576    1.082   .     S
C575   N577    1.368   .     A
C575   C631    1.418   .     S
N578   O579    1.300   .     A
N578   O580    1.301   .     A
O581   Zn587   1.994   .     S
O581   C583    1.284   .     A
O582   C583    1.285   .     A
O582   Zn588   1.998   .     S
C583   C626    1.417   .     S
O584   Zn587   1.963   .     S
O584   C586    1.293   .     A
O585   Zn588   1.914   .     S
O585   C586    1.295   .     A
C586   C611    1.459   .     S
Zn587  O591    1.914   .     S
Zn587  O589    1.998   .     S
Zn587  N630    2.014   .     S
Zn588  O592    1.963   .     S
Zn588  N635    2.014   .     S
Zn588  O590    1.994   .     S
O589   C593    1.285   .     A
O590   C593    1.283   .     A
O591   C594    1.293   .     A
O592   C594    1.292   .     A
C593   C621    1.416   .     S
C594   C599    1.450   .     S
C595   C610    1.395   .     A
H596   C610    1.083   .     S
H597   C607    1.084   .     S
H598   C73     1.084   1_556 S
C599   C610    1.400   .     A
C599   C609    1.388   .     A
C600   H613    1.083   .     S
C600   C601    1.388   .     A
C600   C611    1.403   .     A
C601   C80     1.392   1_556 S
C601   H93     1.083   1_556 S
C602   H614    1.079   .     S
C603   C604    1.407   .     A
C603   C80     1.419   1_556 S
C603   C83     1.413   1_556 S
C604   C611    1.411   .     A
C604   C608    1.415   .     A
C605   C609    1.389   .     A
C606   C607    1.392   .     A
C606   C73     1.405   1_556 S
C606   C83     1.420   1_556 S
C607   C608    1.388   .     A
C608   H616    1.082   .     S
C609   H612    1.079   .     S
C617   H618    1.084   .     S
C617   C626    1.396   .     A
C617   C793    1.371   .     S
C619   H620    1.084   .     S
C619   C621    1.397   .     A
C619   C965    1.371   1_545 S
C621   C622    1.396   .     A
C622   H623    1.083   .     S
C622   C972    1.371   1_545 S
C624   H625    1.084   .     S
C624   C626    1.397   .     A
C624   C796    1.371   .     S
C627   H628    1.082   .     S
C627   N635    1.360   .     A
C627   C687    1.416   .     S
C629   N636    1.427   .     S
C629   N630    1.378   .     A
N630   C631    1.366   .     A
C631   H632    1.082   .     S
C633   H634    1.082   .     S
C633   N635    1.368   .     A
C633   C689    1.418   .     S
N636   O637    1.300   .     A
N636   O638    1.301   .     A
O639   Zn645   1.994   .     S
O639   C641    1.284   .     A
O640   C641    1.285   .     A
O640   Zn646   1.998   .     S
C641   C684    1.417   .     S
O642   Zn645   1.963   .     S
O642   C644    1.293   .     A
O643   Zn646   1.914   .     S
O643   C644    1.295   .     A
C644   C669    1.459   .     S
Zn645  O649    1.914   .     S
Zn645  O647    1.998   .     S
Zn645  N688    2.014   .     S
Zn646  O650    1.963   .     S
Zn646  N693    2.014   .     S
Zn646  O648    1.994   .     S
O647   C651    1.285   .     A
O648   C651    1.283   .     A
O649   C652    1.293   .     A
O650   C652    1.292   .     A
C651   C679    1.416   .     S
C652   C657    1.450   .     S
C653   C668    1.395   .     A
H654   C668    1.083   .     S
H655   C665    1.084   .     S
H656   C131    1.084   1_556 S
C657   C668    1.400   .     A
C657   C667    1.388   .     A
C658   H671    1.083   .     S
C658   C659    1.388   .     A
C658   C669    1.403   .     A
C659   C138    1.392   1_556 S
C659   H151    1.083   1_556 S
C660   H672    1.079   .     S
C661   C662    1.407   .     A
C661   C138    1.419   1_556 S
C661   C141    1.413   1_556 S
C662   C669    1.411   .     A
C662   C666    1.415   .     A
C663   C667    1.389   .     A
C664   C665    1.392   .     A
C664   C131    1.405   1_556 S
C664   C141    1.420   1_556 S
C665   C666    1.388   .     A
C666   H674    1.082   .     S
C667   H670    1.079   .     S
C675   H676    1.084   .     S
C675   C684    1.396   .     A
C675   C851    1.371   .     S
C677   H678    1.084   .     S
C677   C679    1.397   .     A
C677   C1023   1.371   1_545 S
C679   C680    1.396   .     A
C680   H681    1.083   .     S
C680   C1030   1.371   1_545 S
C682   H683    1.084   .     S
C682   C684    1.397   .     A
C682   C854    1.371   .     S
C685   H686    1.082   .     S
C685   N693    1.360   .     A
C685   C571    1.416   1_655 S
C687   N694    1.427   .     S
C687   N688    1.378   .     A
N688   C689    1.366   .     A
C689   H690    1.082   .     S
C691   H692    1.082   .     S
C691   N693    1.368   .     A
C691   C573    1.418   1_655 S
N694   O695    1.300   .     A
N694   O696    1.301   .     A
O697   Zn703   1.994   .     S
O697   C699    1.284   .     A
O698   C699    1.285   .     A
O698   Zn704   1.998   .     S
C699   C742    1.417   .     S
O700   Zn703   1.963   .     S
O700   C702    1.293   .     A
O701   Zn704   1.914   .     S
O701   C702    1.295   .     A
C702   C727    1.459   .     S
Zn703  O707    1.914   .     S
Zn703  O705    1.998   .     S
Zn703  N746    2.014   .     S
Zn704  O708    1.963   .     S
Zn704  N751    2.014   .     S
Zn704  O706    1.994   .     S
O705   C709    1.285   .     A
O706   C709    1.283   .     A
O707   C710    1.293   .     A
O708   C710    1.292   .     A
C709   C737    1.416   .     S
C710   C715    1.450   .     S
C711   C726    1.395   .     A
H712   C726    1.083   .     S
H713   C723    1.084   .     S
H714   C189    1.084   1_556 S
C715   C726    1.400   .     A
C715   C725    1.388   .     A
C716   H729    1.083   .     S
C716   C717    1.388   .     A
C716   C727    1.403   .     A
C717   C196    1.392   1_556 S
C717   H209    1.083   1_556 S
C718   H730    1.079   .     S
C719   C720    1.407   .     A
C719   C196    1.419   1_556 S
C719   C199    1.413   1_556 S
C720   C727    1.411   .     A
C720   C724    1.415   .     A
C721   C725    1.389   .     A
C722   C723    1.392   .     A
C722   C189    1.405   1_556 S
C722   C199    1.420   1_556 S
C723   C724    1.388   .     A
C724   H732    1.082   .     S
C725   H728    1.079   .     S
C733   H734    1.084   .     S
C733   C742    1.396   .     A
C733   C909    1.371   .     S
C735   H736    1.084   .     S
C735   C737    1.397   .     A
C737   C738    1.396   .     A
C738   H739    1.083   .     S
C740   H741    1.084   .     S
C740   C742    1.397   .     A
C740   C912    1.371   .     S
C743   H744    1.082   .     S
C743   N751    1.360   .     A
C743   C803    1.416   .     S
C745   N752    1.427   .     S
C745   N746    1.378   .     A
C745   C859    1.416   1_455 S
N746   C747    1.366   .     A
C747   H748    1.082   .     S
C747   C865    1.418   1_455 S
C749   H750    1.082   .     S
C749   N751    1.368   .     A
C749   C805    1.418   .     S
N752   O753    1.300   .     A
N752   O754    1.301   .     A
O755   Zn761   1.994   .     S
O755   C757    1.284   .     A
O756   C757    1.285   .     A
O756   Zn762   1.998   .     S
C757   C800    1.417   .     S
O758   Zn761   1.963   .     S
O758   C760    1.293   .     A
O759   Zn762   1.914   .     S
O759   C760    1.295   .     A
C760   C785    1.459   .     S
Zn761  O765    1.914   .     S
Zn761  O763    1.998   .     S
Zn761  N804    2.014   .     S
Zn762  O766    1.963   .     S
Zn762  N809    2.014   .     S
Zn762  O764    1.994   .     S
O763   C767    1.285   .     A
O764   C767    1.283   .     A
O765   C768    1.293   .     A
O766   C768    1.292   .     A
C767   C795    1.416   .     S
C768   C773    1.450   .     S
C769   C784    1.395   .     A
H770   C784    1.083   .     S
H771   C781    1.084   .     S
H772   C247    1.084   1_556 S
C773   C784    1.400   .     A
C773   C783    1.388   .     A
C774   H787    1.083   .     S
C774   C775    1.388   .     A
C774   C785    1.403   .     A
C775   C254    1.392   1_556 S
C775   H267    1.083   1_556 S
C776   H788    1.079   .     S
C777   C778    1.407   .     A
C777   C254    1.419   1_556 S
C777   C257    1.413   1_556 S
C778   C785    1.411   .     A
C778   C782    1.415   .     A
C779   C783    1.389   .     A
C780   C781    1.392   .     A
C780   C247    1.405   1_556 S
C780   C257    1.420   1_556 S
C781   C782    1.388   .     A
C782   H790    1.082   .     S
C783   H786    1.079   .     S
C791   H792    1.084   .     S
C791   C800    1.396   .     A
C791   C967    1.371   .     S
C793   H794    1.084   .     S
C793   C795    1.397   .     A
C795   C796    1.396   .     A
C796   H797    1.083   .     S
C798   H799    1.084   .     S
C798   C800    1.397   .     A
C798   C970    1.371   .     S
C801   H802    1.082   .     S
C801   N809    1.360   .     A
C801   C861    1.416   .     S
C803   N810    1.427   .     S
C803   N804    1.378   .     A
N804   C805    1.366   .     A
C805   H806    1.082   .     S
C807   H808    1.082   .     S
C807   N809    1.368   .     A
C807   C863    1.418   .     S
N810   O811    1.300   .     A
N810   O812    1.301   .     A
O813   Zn819   1.994   .     S
O813   C815    1.284   .     A
O814   C815    1.285   .     A
O814   Zn820   1.998   .     S
C815   C858    1.417   .     S
O816   Zn819   1.963   .     S
O816   C818    1.293   .     A
O817   Zn820   1.914   .     S
O817   C818    1.295   .     A
C818   C843    1.459   .     S
Zn819  O823    1.914   .     S
Zn819  O821    1.998   .     S
Zn819  N862    2.014   .     S
Zn820  O824    1.963   .     S
Zn820  N867    2.014   .     S
Zn820  O822    1.994   .     S
O821   C825    1.285   .     A
O822   C825    1.283   .     A
O823   C826    1.293   .     A
O824   C826    1.292   .     A
C825   C853    1.416   .     S
C826   C831    1.450   .     S
C827   C842    1.395   .     A
H828   C842    1.083   .     S
H829   C839    1.084   .     S
H830   C305    1.084   1_556 S
C831   C842    1.400   .     A
C831   C841    1.388   .     A
C832   H845    1.083   .     S
C832   C833    1.388   .     A
C832   C843    1.403   .     A
C833   C312    1.392   1_556 S
C833   H325    1.083   1_556 S
C834   H846    1.079   .     S
C835   C836    1.407   .     A
C835   C312    1.419   1_556 S
C835   C315    1.413   1_556 S
C836   C843    1.411   .     A
C836   C840    1.415   .     A
C837   C841    1.389   .     A
C838   C839    1.392   .     A
C838   C305    1.405   1_556 S
C838   C315    1.420   1_556 S
C839   C840    1.388   .     A
C840   H848    1.082   .     S
C841   H844    1.079   .     S
C849   H850    1.084   .     S
C849   C858    1.396   .     A
C849   C1025   1.371   .     S
C851   H852    1.084   .     S
C851   C853    1.397   .     A
C853   C854    1.396   .     A
C854   H855    1.083   .     S
C856   H857    1.084   .     S
C856   C858    1.397   .     A
C856   C1028   1.371   .     S
C859   H860    1.082   .     S
C859   N867    1.360   .     A
C859   C745    1.416   1_655 S
C861   N868    1.427   .     S
C861   N862    1.378   .     A
N862   C863    1.366   .     A
C863   H864    1.082   .     S
C865   H866    1.082   .     S
C865   N867    1.368   .     A
C865   C747    1.418   1_655 S
N868   O869    1.300   .     A
N868   O870    1.301   .     A
O871   Zn877   1.994   .     S
O871   C873    1.284   .     A
O872   C873    1.285   .     A
O872   Zn878   1.998   .     S
C873   C916    1.417   .     S
O874   Zn877   1.963   .     S
O874   C876    1.293   .     A
O875   Zn878   1.914   .     S
O875   C876    1.295   .     A
C876   C901    1.459   .     S
Zn877  O881    1.914   .     S
Zn877  O879    1.998   .     S
Zn877  N920    2.014   .     S
Zn878  O882    1.963   .     S
Zn878  N925    2.014   .     S
Zn878  O880    1.994   .     S
O879   C883    1.285   .     A
O880   C883    1.283   .     A
O881   C884    1.293   .     A
O882   C884    1.292   .     A
C883   C911    1.416   .     S
C884   C889    1.450   .     S
C885   C900    1.395   .     A
H886   C900    1.083   .     S
H887   C897    1.084   .     S
H888   C363    1.084   1_556 S
C889   C900    1.400   .     A
C889   C899    1.388   .     A
C890   H903    1.083   .     S
C890   C891    1.388   .     A
C890   C901    1.403   .     A
C891   C370    1.392   1_556 S
C891   H383    1.083   1_556 S
C892   H904    1.079   .     S
C893   C894    1.407   .     A
C893   C370    1.419   1_556 S
C893   C373    1.413   1_556 S
C894   C901    1.411   .     A
C894   C898    1.415   .     A
C895   C899    1.389   .     A
C896   C897    1.392   .     A
C896   C363    1.405   1_556 S
C896   C373    1.420   1_556 S
C897   C898    1.388   .     A
C898   H906    1.082   .     S
C899   H902    1.079   .     S
C907   H908    1.084   .     S
C907   C916    1.396   .     A
C907   C561    1.371   1_565 S
C909   H910    1.084   .     S
C909   C911    1.397   .     A
C911   C912    1.396   .     A
C912   H913    1.083   .     S
C914   H915    1.084   .     S
C914   C916    1.397   .     A
C914   C564    1.371   1_565 S
C917   H918    1.082   .     S
C917   N925    1.360   .     A
C917   C977    1.416   .     S
C919   N926    1.427   .     S
C919   N920    1.378   .     A
C919   C1033   1.416   1_455 S
N920   C921    1.366   .     A
C921   H922    1.082   .     S
C921   C1039   1.418   1_455 S
C923   H924    1.082   .     S
C923   N925    1.368   .     A
C923   C979    1.418   .     S
N926   O927    1.300   .     A
N926   O928    1.301   .     A
O929   Zn935   1.994   .     S
O929   C931    1.284   .     A
O930   C931    1.285   .     A
O930   Zn936   1.998   .     S
C931   C974    1.417   .     S
O932   Zn935   1.963   .     S
O932   C934    1.293   .     A
O933   Zn936   1.914   .     S
O933   C934    1.295   .     A
C934   C959    1.459   .     S
Zn935  O939    1.914   .     S
Zn935  O937    1.998   .     S
Zn935  N978    2.014   .     S
Zn936  O940    1.963   .     S
Zn936  N983    2.014   .     S
Zn936  O938    1.994   .     S
O937   C941    1.285   .     A
O938   C941    1.283   .     A
O939   C942    1.293   .     A
O940   C942    1.292   .     A
C941   C969    1.416   .     S
C942   C947    1.450   .     S
C943   C958    1.395   .     A
H944   C958    1.083   .     S
H945   C955    1.084   .     S
H946   C421    1.084   1_556 S
C947   C958    1.400   .     A
C947   C957    1.388   .     A
C948   H961    1.083   .     S
C948   C949    1.388   .     A
C948   C959    1.403   .     A
C949   C428    1.392   1_556 S
C949   H441    1.083   1_556 S
C950   H962    1.079   .     S
C951   C952    1.407   .     A
C951   C428    1.419   1_556 S
C951   C431    1.413   1_556 S
C952   C959    1.411   .     A
C952   C956    1.415   .     A
C953   C957    1.389   .     A
C954   C955    1.392   .     A
C954   C421    1.405   1_556 S
C954   C431    1.420   1_556 S
C955   C956    1.388   .     A
C956   H964    1.082   .     S
C957   H960    1.079   .     S
C965   H966    1.084   .     S
C965   C974    1.396   .     A
C965   C619    1.371   1_565 S
C967   H968    1.084   .     S
C967   C969    1.397   .     A
C969   C970    1.396   .     A
C970   H971    1.083   .     S
C972   H973    1.084   .     S
C972   C974    1.397   .     A
C972   C622    1.371   1_565 S
C975   H976    1.082   .     S
C975   N983    1.360   .     A
C975   C1035   1.416   .     S
C977   N984    1.427   .     S
C977   N978    1.378   .     A
N978   C979    1.366   .     A
C979   H980    1.082   .     S
C981   H982    1.082   .     S
C981   N983    1.368   .     A
C981   C1037   1.418   .     S
N984   O985    1.300   .     A
N984   O986    1.301   .     A
O987   Zn993   1.994   .     S
O987   C989    1.284   .     A
O988   C989    1.285   .     A
O988   Zn994   1.998   .     S
C989   C1032   1.417   .     S
O990   Zn993   1.963   .     S
O990   C992    1.293   .     A
O991   Zn994   1.914   .     S
O991   C992    1.295   .     A
C992   C1017   1.459   .     S
Zn993  O997    1.914   .     S
Zn993  O995    1.998   .     S
Zn993  N1036   2.014   .     S
Zn994  O998    1.963   .     S
Zn994  N1041   2.014   .     S
Zn994  O996    1.994   .     S
O995   C999    1.285   .     A
O996   C999    1.283   .     A
O997   C1000   1.293   .     A
O998   C1000   1.292   .     A
C999   C1027   1.416   .     S
C1000  C1005   1.450   .     S
C1001  C1016   1.395   .     A
H1002  C1016   1.083   .     S
H1003  C1013   1.084   .     S
H1004  C479    1.084   1_556 S
C1005  C1016   1.400   .     A
C1005  C1015   1.388   .     A
C1006  H1019   1.083   .     S
C1006  C1007   1.388   .     A
C1006  C1017   1.403   .     A
C1007  C486    1.392   1_556 S
C1007  H499    1.083   1_556 S
C1008  H1020   1.079   .     S
C1009  C1010   1.407   .     A
C1009  C486    1.419   1_556 S
C1009  C489    1.413   1_556 S
C1010  C1017   1.411   .     A
C1010  C1014   1.415   .     A
C1011  C1015   1.389   .     A
C1012  C1013   1.392   .     A
C1012  C479    1.405   1_556 S
C1012  C489    1.420   1_556 S
C1013  C1014   1.388   .     A
C1014  H1022   1.082   .     S
C1015  H1018   1.079   .     S
C1023  H1024   1.084   .     S
C1023  C1032   1.396   .     A
C1023  C677    1.371   1_565 S
C1025  H1026   1.084   .     S
C1025  C1027   1.397   .     A
C1027  C1028   1.396   .     A
C1028  H1029   1.083   .     S
C1030  H1031   1.084   .     S
C1030  C1032   1.397   .     A
C1030  C680    1.371   1_565 S
C1033  H1034   1.082   .     S
C1033  N1041   1.360   .     A
C1033  C919    1.416   1_655 S
C1035  N1042   1.427   .     S
C1035  N1036   1.378   .     A
N1036  C1037   1.366   .     A
C1037  H1038   1.082   .     S
C1039  H1040   1.082   .     S
C1039  N1041   1.368   .     A
C1039  C921    1.418   1_655 S
N1042  O1043   1.300   .     A
N1042  O1044   1.301   .     A
