data_str_m3_o1_o5_pcu_sym.52
_audit_creation_date              2020-01-03
_audit_creation_method            'Materials Studio'
_symmetry_space_group_name_H-M    'P1'
_symmetry_Int_Tables_number       1
_symmetry_cell_setting            triclinic
loop_
_symmetry_equiv_pos_as_xyz
  x,y,z
_cell_length_a                    32.3890
_cell_length_b                    29.7139
_cell_length_c                    26.7383
_cell_angle_alpha                 90.0711
_cell_angle_beta                  91.4659
_cell_angle_gamma                 90.5638
loop_
_atom_site_label
_atom_site_type_symbol
_atom_site_fract_x
_atom_site_fract_y
_atom_site_fract_z
_atom_site_U_iso_or_equiv
_atom_site_adp_type
_atom_site_occupancy
O1     O     0.10559   0.20487   0.16666   0.00000  Uiso   1.00
O2     O     0.22774   0.12846   0.16667   0.00000  Uiso   1.00
O3     O     0.22774   0.20487   0.16667   0.00000  Uiso   1.00
O4     O     0.10559   0.12846   0.16666   0.00000  Uiso   1.00
C5     C     0.08683   0.16643   0.17092   0.00000  Uiso   1.00
C6     C     0.24650   0.16690   0.16241   0.00000  Uiso   1.00
O7     O     0.16667   0.20488   0.09511   0.00000  Uiso   1.00
O8     O     0.16666   0.12845   0.23822   0.00000  Uiso   1.00
O9     O     0.16666   0.20488   0.23822   0.00000  Uiso   1.00
O10    O     0.16667   0.12845   0.09511   0.00000  Uiso   1.00
C11    C     0.16654   0.16665   0.07293   0.00000  Uiso   1.00
C12    C     0.16680   0.16669   0.26040   0.00000  Uiso   1.00
Zn13   Zn    0.16667   0.21771   0.16667   0.00000  Uiso   1.00
Zn14   Zn    0.16667   0.11563   0.16667   0.00000  Uiso   1.00
C15    C     0.16662   0.16664   0.02180   0.00000  Uiso   1.00
C16    C     0.16671   0.16669   0.31153   0.00000  Uiso   1.00
C17    C     0.02023   0.12502   0.16968   0.00000  Uiso   1.00
C18    C     0.31310   0.20831   0.16365   0.00000  Uiso   1.00
C19    C     0.31205   0.12603   0.15653   0.00000  Uiso   1.00
C20    C     0.02128   0.20731   0.17679   0.00000  Uiso   1.00
C21    C     0.29102   0.16732   0.15826   0.00000  Uiso   1.00
C22    C     0.04231   0.16601   0.17507   0.00000  Uiso   1.00
C23    C     0.18609   0.02423   0.20446   0.00000  Uiso   1.00
C24    C     0.14723   0.30910   0.12888   0.00000  Uiso   1.00
C25    C     0.14752   0.02366   0.12864   0.00000  Uiso   1.00
C26    C     0.18581   0.30967   0.20470   0.00000  Uiso   1.00
N27    N     0.16667   0.28573   0.16667   0.00000  Uiso   1.00
N28    N     0.16667   0.04760   0.16667   0.00000  Uiso   1.00
C29    C     0.03856   0.08175   0.18157   0.00000  Uiso   1.00
N30    N     0.05298   0.04730   0.19140   0.00000  Uiso   1.00
C31    C     0.29477   0.25159   0.15175   0.00000  Uiso   1.00
N32    N     0.28036   0.28603   0.14192   0.00000  Uiso   1.00
C33    C     0.29234   0.08499   0.13760   0.00000  Uiso   1.00
N34    N     0.27665   0.05248   0.12222   0.00000  Uiso   1.00
C35    C     0.04099   0.24834   0.19573   0.00000  Uiso   1.00
N36    N     0.05668   0.28085   0.21111   0.00000  Uiso   1.00
N37    N     0.20805   0.04805   0.24336   0.00000  Uiso   1.00
O38    O     0.19297   0.04971   0.28790   0.00000  Uiso   1.00
O39    O     0.24635   0.05976   0.23718   0.00000  Uiso   1.00
N40    N     0.12522   0.28528   0.09003   0.00000  Uiso   1.00
O41    O     0.14038   0.28338   0.04554   0.00000  Uiso   1.00
O42    O     0.08680   0.27399   0.09610   0.00000  Uiso   1.00
N43    N     0.12818   0.04683   0.08768   0.00000  Uiso   1.00
O44    O     0.09124   0.06278   0.09194   0.00000  Uiso   1.00
O45    O     0.14455   0.04558   0.04382   0.00000  Uiso   1.00
N46    N     0.20516   0.28650   0.24564   0.00000  Uiso   1.00
O47    O     0.24218   0.27075   0.24145   0.00000  Uiso   1.00
O48    O     0.18870   0.28757   0.28945   0.00000  Uiso   1.00
O49    O     0.43892   0.20487   0.16666   0.00000  Uiso   1.00
O50    O     0.56108   0.12846   0.16667   0.00000  Uiso   1.00
O51    O     0.56108   0.20487   0.16667   0.00000  Uiso   1.00
O52    O     0.43892   0.12846   0.16666   0.00000  Uiso   1.00
C53    C     0.42017   0.16643   0.17092   0.00000  Uiso   1.00
C54    C     0.57983   0.16690   0.16241   0.00000  Uiso   1.00
O55    O     0.50000   0.20488   0.09511   0.00000  Uiso   1.00
O56    O     0.50000   0.12845   0.23822   0.00000  Uiso   1.00
O57    O     0.50000   0.20488   0.23822   0.00000  Uiso   1.00
O58    O     0.50000   0.12845   0.09511   0.00000  Uiso   1.00
C59    C     0.49987   0.16665   0.07293   0.00000  Uiso   1.00
C60    C     0.50013   0.16669   0.26040   0.00000  Uiso   1.00
Zn61   Zn    0.50000   0.21771   0.16667   0.00000  Uiso   1.00
Zn62   Zn    0.50000   0.11563   0.16667   0.00000  Uiso   1.00
C63    C     0.49995   0.16664   0.02180   0.00000  Uiso   1.00
C64    C     0.50005   0.16669   0.31153   0.00000  Uiso   1.00
C65    C     0.35357   0.12502   0.16968   0.00000  Uiso   1.00
C66    C     0.64643   0.20831   0.16365   0.00000  Uiso   1.00
C67    C     0.64538   0.12603   0.15653   0.00000  Uiso   1.00
C68    C     0.35461   0.20731   0.17679   0.00000  Uiso   1.00
C69    C     0.62436   0.16732   0.15826   0.00000  Uiso   1.00
C70    C     0.37564   0.16601   0.17507   0.00000  Uiso   1.00
C71    C     0.51943   0.02423   0.20446   0.00000  Uiso   1.00
C72    C     0.48056   0.30910   0.12888   0.00000  Uiso   1.00
C73    C     0.48085   0.02366   0.12864   0.00000  Uiso   1.00
C74    C     0.51915   0.30967   0.20470   0.00000  Uiso   1.00
N75    N     0.50000   0.28573   0.16667   0.00000  Uiso   1.00
N76    N     0.50000   0.04760   0.16667   0.00000  Uiso   1.00
C77    C     0.37189   0.08175   0.18157   0.00000  Uiso   1.00
N78    N     0.38631   0.04730   0.19140   0.00000  Uiso   1.00
C79    C     0.62811   0.25159   0.15175   0.00000  Uiso   1.00
N80    N     0.61369   0.28603   0.14192   0.00000  Uiso   1.00
C81    C     0.62567   0.08499   0.13760   0.00000  Uiso   1.00
N82    N     0.60999   0.05248   0.12222   0.00000  Uiso   1.00
C83    C     0.37433   0.24834   0.19573   0.00000  Uiso   1.00
N84    N     0.39001   0.28085   0.21111   0.00000  Uiso   1.00
N85    N     0.54139   0.04805   0.24336   0.00000  Uiso   1.00
O86    O     0.52631   0.04971   0.28790   0.00000  Uiso   1.00
O87    O     0.57968   0.05976   0.23718   0.00000  Uiso   1.00
N88    N     0.45856   0.28528   0.09003   0.00000  Uiso   1.00
O89    O     0.47372   0.28338   0.04554   0.00000  Uiso   1.00
O90    O     0.42013   0.27399   0.09610   0.00000  Uiso   1.00
N91    N     0.46151   0.04683   0.08768   0.00000  Uiso   1.00
O92    O     0.42457   0.06278   0.09194   0.00000  Uiso   1.00
O93    O     0.47788   0.04558   0.04382   0.00000  Uiso   1.00
N94    N     0.53850   0.28650   0.24564   0.00000  Uiso   1.00
O95    O     0.57552   0.27075   0.24145   0.00000  Uiso   1.00
O96    O     0.52204   0.28757   0.28945   0.00000  Uiso   1.00
O97    O     0.77226   0.20487   0.16666   0.00000  Uiso   1.00
O98    O     0.89441   0.12846   0.16667   0.00000  Uiso   1.00
O99    O     0.89441   0.20487   0.16667   0.00000  Uiso   1.00
O100   O     0.77226   0.12846   0.16666   0.00000  Uiso   1.00
C101   C     0.75350   0.16643   0.17092   0.00000  Uiso   1.00
C102   C     0.91317   0.16690   0.16241   0.00000  Uiso   1.00
O103   O     0.83334   0.20488   0.09511   0.00000  Uiso   1.00
O104   O     0.83333   0.12845   0.23822   0.00000  Uiso   1.00
O105   O     0.83333   0.20488   0.23822   0.00000  Uiso   1.00
O106   O     0.83334   0.12845   0.09511   0.00000  Uiso   1.00
C107   C     0.83320   0.16665   0.07293   0.00000  Uiso   1.00
C108   C     0.83346   0.16669   0.26040   0.00000  Uiso   1.00
Zn109  Zn    0.83333   0.21771   0.16667   0.00000  Uiso   1.00
Zn110  Zn    0.83333   0.11563   0.16667   0.00000  Uiso   1.00
C111   C     0.83329   0.16664   0.02180   0.00000  Uiso   1.00
C112   C     0.83338   0.16669   0.31153   0.00000  Uiso   1.00
C113   C     0.68690   0.12502   0.16968   0.00000  Uiso   1.00
C114   C     0.97976   0.20831   0.16365   0.00000  Uiso   1.00
C115   C     0.97872   0.12603   0.15653   0.00000  Uiso   1.00
C116   C     0.68795   0.20731   0.17679   0.00000  Uiso   1.00
C117   C     0.95769   0.16732   0.15826   0.00000  Uiso   1.00
C118   C     0.70898   0.16601   0.17507   0.00000  Uiso   1.00
C119   C     0.85276   0.02423   0.20446   0.00000  Uiso   1.00
C120   C     0.81390   0.30910   0.12888   0.00000  Uiso   1.00
C121   C     0.81418   0.02366   0.12864   0.00000  Uiso   1.00
C122   C     0.85248   0.30967   0.20470   0.00000  Uiso   1.00
N123   N     0.83333   0.28573   0.16667   0.00000  Uiso   1.00
N124   N     0.83333   0.04760   0.16667   0.00000  Uiso   1.00
C125   C     0.70523   0.08175   0.18157   0.00000  Uiso   1.00
N126   N     0.71964   0.04730   0.19140   0.00000  Uiso   1.00
C127   C     0.96144   0.25159   0.15175   0.00000  Uiso   1.00
N128   N     0.94702   0.28603   0.14192   0.00000  Uiso   1.00
C129   C     0.95900   0.08499   0.13760   0.00000  Uiso   1.00
N130   N     0.94332   0.05248   0.12222   0.00000  Uiso   1.00
C131   C     0.70766   0.24834   0.19573   0.00000  Uiso   1.00
N132   N     0.72334   0.28085   0.21111   0.00000  Uiso   1.00
N133   N     0.87472   0.04805   0.24336   0.00000  Uiso   1.00
O134   O     0.85964   0.04971   0.28790   0.00000  Uiso   1.00
O135   O     0.91302   0.05976   0.23718   0.00000  Uiso   1.00
N136   N     0.79189   0.28528   0.09003   0.00000  Uiso   1.00
O137   O     0.80705   0.28338   0.04554   0.00000  Uiso   1.00
O138   O     0.75346   0.27399   0.09610   0.00000  Uiso   1.00
N139   N     0.79484   0.04683   0.08768   0.00000  Uiso   1.00
O140   O     0.75790   0.06278   0.09194   0.00000  Uiso   1.00
O141   O     0.81122   0.04558   0.04382   0.00000  Uiso   1.00
N142   N     0.87183   0.28650   0.24564   0.00000  Uiso   1.00
O143   O     0.90885   0.27075   0.24145   0.00000  Uiso   1.00
O144   O     0.85537   0.28757   0.28945   0.00000  Uiso   1.00
O145   O     0.10559   0.53821   0.16666   0.00000  Uiso   1.00
O146   O     0.22774   0.46179   0.16667   0.00000  Uiso   1.00
O147   O     0.22774   0.53821   0.16667   0.00000  Uiso   1.00
O148   O     0.10559   0.46179   0.16666   0.00000  Uiso   1.00
C149   C     0.08683   0.49977   0.17092   0.00000  Uiso   1.00
C150   C     0.24650   0.50023   0.16241   0.00000  Uiso   1.00
O151   O     0.16667   0.53821   0.09511   0.00000  Uiso   1.00
O152   O     0.16666   0.46179   0.23822   0.00000  Uiso   1.00
O153   O     0.16666   0.53821   0.23822   0.00000  Uiso   1.00
O154   O     0.16667   0.46179   0.09511   0.00000  Uiso   1.00
C155   C     0.16654   0.49998   0.07293   0.00000  Uiso   1.00
C156   C     0.16680   0.50002   0.26040   0.00000  Uiso   1.00
Zn157  Zn    0.16667   0.55104   0.16667   0.00000  Uiso   1.00
Zn158  Zn    0.16667   0.44896   0.16667   0.00000  Uiso   1.00
C159   C     0.16662   0.49997   0.02180   0.00000  Uiso   1.00
C160   C     0.16671   0.50003   0.31153   0.00000  Uiso   1.00
C161   C     0.02023   0.45836   0.16968   0.00000  Uiso   1.00
C162   C     0.31310   0.54164   0.16365   0.00000  Uiso   1.00
C163   C     0.31205   0.45936   0.15653   0.00000  Uiso   1.00
C164   C     0.02128   0.54064   0.17679   0.00000  Uiso   1.00
C165   C     0.29102   0.50066   0.15826   0.00000  Uiso   1.00
C166   C     0.04231   0.49934   0.17507   0.00000  Uiso   1.00
C167   C     0.18609   0.35756   0.20446   0.00000  Uiso   1.00
C168   C     0.14723   0.64243   0.12888   0.00000  Uiso   1.00
C169   C     0.14752   0.35700   0.12864   0.00000  Uiso   1.00
C170   C     0.18581   0.64300   0.20470   0.00000  Uiso   1.00
N171   N     0.16667   0.61907   0.16667   0.00000  Uiso   1.00
N172   N     0.16667   0.38093   0.16667   0.00000  Uiso   1.00
C173   C     0.03856   0.41508   0.18157   0.00000  Uiso   1.00
N174   N     0.05298   0.38063   0.19140   0.00000  Uiso   1.00
C175   C     0.29477   0.58492   0.15175   0.00000  Uiso   1.00
N176   N     0.28036   0.61937   0.14192   0.00000  Uiso   1.00
C177   C     0.29234   0.41832   0.13760   0.00000  Uiso   1.00
N178   N     0.27665   0.38581   0.12222   0.00000  Uiso   1.00
C179   C     0.04099   0.58168   0.19573   0.00000  Uiso   1.00
N180   N     0.05668   0.61419   0.21111   0.00000  Uiso   1.00
N181   N     0.20805   0.38138   0.24336   0.00000  Uiso   1.00
O182   O     0.19297   0.38305   0.28790   0.00000  Uiso   1.00
O183   O     0.24635   0.39310   0.23718   0.00000  Uiso   1.00
N184   N     0.12522   0.61861   0.09003   0.00000  Uiso   1.00
O185   O     0.14038   0.61671   0.04554   0.00000  Uiso   1.00
O186   O     0.08680   0.60732   0.09610   0.00000  Uiso   1.00
N187   N     0.12818   0.38016   0.08768   0.00000  Uiso   1.00
O188   O     0.09124   0.39612   0.09194   0.00000  Uiso   1.00
O189   O     0.14455   0.37891   0.04382   0.00000  Uiso   1.00
N190   N     0.20516   0.61983   0.24564   0.00000  Uiso   1.00
O191   O     0.24218   0.60408   0.24145   0.00000  Uiso   1.00
O192   O     0.18870   0.62091   0.28945   0.00000  Uiso   1.00
O193   O     0.43892   0.53821   0.16666   0.00000  Uiso   1.00
O194   O     0.56108   0.46179   0.16667   0.00000  Uiso   1.00
O195   O     0.56108   0.53821   0.16667   0.00000  Uiso   1.00
O196   O     0.43892   0.46179   0.16666   0.00000  Uiso   1.00
C197   C     0.42017   0.49977   0.17092   0.00000  Uiso   1.00
C198   C     0.57983   0.50023   0.16241   0.00000  Uiso   1.00
O199   O     0.50000   0.53821   0.09511   0.00000  Uiso   1.00
O200   O     0.50000   0.46179   0.23822   0.00000  Uiso   1.00
O201   O     0.50000   0.53821   0.23822   0.00000  Uiso   1.00
O202   O     0.50000   0.46179   0.09511   0.00000  Uiso   1.00
C203   C     0.49987   0.49998   0.07293   0.00000  Uiso   1.00
C204   C     0.50013   0.50002   0.26040   0.00000  Uiso   1.00
Zn205  Zn    0.50000   0.55104   0.16667   0.00000  Uiso   1.00
Zn206  Zn    0.50000   0.44896   0.16667   0.00000  Uiso   1.00
C207   C     0.49995   0.49997   0.02180   0.00000  Uiso   1.00
C208   C     0.50005   0.50003   0.31153   0.00000  Uiso   1.00
C209   C     0.35357   0.45836   0.16968   0.00000  Uiso   1.00
C210   C     0.64643   0.54164   0.16365   0.00000  Uiso   1.00
C211   C     0.64538   0.45936   0.15653   0.00000  Uiso   1.00
C212   C     0.35461   0.54064   0.17679   0.00000  Uiso   1.00
C213   C     0.62436   0.50066   0.15826   0.00000  Uiso   1.00
C214   C     0.37564   0.49934   0.17507   0.00000  Uiso   1.00
C215   C     0.51943   0.35756   0.20446   0.00000  Uiso   1.00
C216   C     0.48056   0.64243   0.12888   0.00000  Uiso   1.00
C217   C     0.48085   0.35700   0.12864   0.00000  Uiso   1.00
C218   C     0.51915   0.64300   0.20470   0.00000  Uiso   1.00
N219   N     0.50000   0.61907   0.16667   0.00000  Uiso   1.00
N220   N     0.50000   0.38093   0.16667   0.00000  Uiso   1.00
C221   C     0.37189   0.41508   0.18157   0.00000  Uiso   1.00
N222   N     0.38631   0.38063   0.19140   0.00000  Uiso   1.00
C223   C     0.62811   0.58492   0.15175   0.00000  Uiso   1.00
N224   N     0.61369   0.61937   0.14192   0.00000  Uiso   1.00
C225   C     0.62567   0.41832   0.13760   0.00000  Uiso   1.00
N226   N     0.60999   0.38581   0.12222   0.00000  Uiso   1.00
C227   C     0.37433   0.58168   0.19573   0.00000  Uiso   1.00
N228   N     0.39001   0.61419   0.21111   0.00000  Uiso   1.00
N229   N     0.54139   0.38138   0.24336   0.00000  Uiso   1.00
O230   O     0.52631   0.38305   0.28790   0.00000  Uiso   1.00
O231   O     0.57968   0.39310   0.23718   0.00000  Uiso   1.00
N232   N     0.45856   0.61861   0.09003   0.00000  Uiso   1.00
O233   O     0.47372   0.61671   0.04554   0.00000  Uiso   1.00
O234   O     0.42013   0.60732   0.09610   0.00000  Uiso   1.00
N235   N     0.46151   0.38016   0.08768   0.00000  Uiso   1.00
O236   O     0.42457   0.39612   0.09194   0.00000  Uiso   1.00
O237   O     0.47788   0.37891   0.04382   0.00000  Uiso   1.00
N238   N     0.53850   0.61983   0.24564   0.00000  Uiso   1.00
O239   O     0.57552   0.60408   0.24145   0.00000  Uiso   1.00
O240   O     0.52204   0.62091   0.28945   0.00000  Uiso   1.00
O241   O     0.77226   0.53821   0.16666   0.00000  Uiso   1.00
O242   O     0.89441   0.46179   0.16667   0.00000  Uiso   1.00
O243   O     0.89441   0.53821   0.16667   0.00000  Uiso   1.00
O244   O     0.77226   0.46179   0.16666   0.00000  Uiso   1.00
C245   C     0.75350   0.49977   0.17092   0.00000  Uiso   1.00
C246   C     0.91317   0.50023   0.16241   0.00000  Uiso   1.00
O247   O     0.83334   0.53821   0.09511   0.00000  Uiso   1.00
O248   O     0.83333   0.46179   0.23822   0.00000  Uiso   1.00
O249   O     0.83333   0.53821   0.23822   0.00000  Uiso   1.00
O250   O     0.83334   0.46179   0.09511   0.00000  Uiso   1.00
C251   C     0.83320   0.49998   0.07293   0.00000  Uiso   1.00
C252   C     0.83346   0.50002   0.26040   0.00000  Uiso   1.00
Zn253  Zn    0.83333   0.55104   0.16667   0.00000  Uiso   1.00
Zn254  Zn    0.83333   0.44896   0.16667   0.00000  Uiso   1.00
C255   C     0.83329   0.49997   0.02180   0.00000  Uiso   1.00
C256   C     0.83338   0.50003   0.31153   0.00000  Uiso   1.00
C257   C     0.68690   0.45836   0.16968   0.00000  Uiso   1.00
C258   C     0.97976   0.54164   0.16365   0.00000  Uiso   1.00
C259   C     0.97872   0.45936   0.15653   0.00000  Uiso   1.00
C260   C     0.68795   0.54064   0.17679   0.00000  Uiso   1.00
C261   C     0.95769   0.50066   0.15826   0.00000  Uiso   1.00
C262   C     0.70898   0.49934   0.17507   0.00000  Uiso   1.00
C263   C     0.85276   0.35756   0.20446   0.00000  Uiso   1.00
C264   C     0.81390   0.64243   0.12888   0.00000  Uiso   1.00
C265   C     0.81418   0.35700   0.12864   0.00000  Uiso   1.00
C266   C     0.85248   0.64300   0.20470   0.00000  Uiso   1.00
N267   N     0.83333   0.61907   0.16667   0.00000  Uiso   1.00
N268   N     0.83333   0.38093   0.16667   0.00000  Uiso   1.00
C269   C     0.70523   0.41508   0.18157   0.00000  Uiso   1.00
N270   N     0.71964   0.38063   0.19140   0.00000  Uiso   1.00
C271   C     0.96144   0.58492   0.15175   0.00000  Uiso   1.00
N272   N     0.94702   0.61937   0.14192   0.00000  Uiso   1.00
C273   C     0.95900   0.41832   0.13760   0.00000  Uiso   1.00
N274   N     0.94332   0.38581   0.12222   0.00000  Uiso   1.00
C275   C     0.70766   0.58168   0.19573   0.00000  Uiso   1.00
N276   N     0.72334   0.61419   0.21111   0.00000  Uiso   1.00
N277   N     0.87472   0.38138   0.24336   0.00000  Uiso   1.00
O278   O     0.85964   0.38305   0.28790   0.00000  Uiso   1.00
O279   O     0.91302   0.39310   0.23718   0.00000  Uiso   1.00
N280   N     0.79189   0.61861   0.09003   0.00000  Uiso   1.00
O281   O     0.80705   0.61671   0.04554   0.00000  Uiso   1.00
O282   O     0.75346   0.60732   0.09610   0.00000  Uiso   1.00
N283   N     0.79484   0.38016   0.08768   0.00000  Uiso   1.00
O284   O     0.75790   0.39612   0.09194   0.00000  Uiso   1.00
O285   O     0.81122   0.37891   0.04382   0.00000  Uiso   1.00
N286   N     0.87183   0.61983   0.24564   0.00000  Uiso   1.00
O287   O     0.90885   0.60408   0.24145   0.00000  Uiso   1.00
O288   O     0.85537   0.62091   0.28945   0.00000  Uiso   1.00
O289   O     0.10559   0.87154   0.16666   0.00000  Uiso   1.00
O290   O     0.22774   0.79513   0.16667   0.00000  Uiso   1.00
O291   O     0.22774   0.87154   0.16667   0.00000  Uiso   1.00
O292   O     0.10559   0.79513   0.16666   0.00000  Uiso   1.00
C293   C     0.08683   0.83310   0.17092   0.00000  Uiso   1.00
C294   C     0.24650   0.83357   0.16241   0.00000  Uiso   1.00
O295   O     0.16667   0.87155   0.09511   0.00000  Uiso   1.00
O296   O     0.16666   0.79512   0.23822   0.00000  Uiso   1.00
O297   O     0.16666   0.87155   0.23822   0.00000  Uiso   1.00
O298   O     0.16667   0.79512   0.09511   0.00000  Uiso   1.00
C299   C     0.16654   0.83331   0.07293   0.00000  Uiso   1.00
C300   C     0.16680   0.83335   0.26040   0.00000  Uiso   1.00
Zn301  Zn    0.16667   0.88437   0.16667   0.00000  Uiso   1.00
Zn302  Zn    0.16667   0.78229   0.16667   0.00000  Uiso   1.00
C303   C     0.16662   0.83331   0.02180   0.00000  Uiso   1.00
C304   C     0.16671   0.83336   0.31153   0.00000  Uiso   1.00
C305   C     0.02023   0.79169   0.16968   0.00000  Uiso   1.00
C306   C     0.31310   0.87498   0.16365   0.00000  Uiso   1.00
C307   C     0.31205   0.79269   0.15653   0.00000  Uiso   1.00
C308   C     0.02128   0.87397   0.17679   0.00000  Uiso   1.00
C309   C     0.29102   0.83399   0.15826   0.00000  Uiso   1.00
C310   C     0.04231   0.83268   0.17507   0.00000  Uiso   1.00
C311   C     0.18609   0.69090   0.20446   0.00000  Uiso   1.00
C312   C     0.14723   0.97577   0.12888   0.00000  Uiso   1.00
C313   C     0.14752   0.69033   0.12864   0.00000  Uiso   1.00
C314   C     0.18581   0.97633   0.20470   0.00000  Uiso   1.00
N315   N     0.16667   0.95240   0.16667   0.00000  Uiso   1.00
N316   N     0.16667   0.71427   0.16667   0.00000  Uiso   1.00
C317   C     0.03856   0.74841   0.18157   0.00000  Uiso   1.00
N318   N     0.05298   0.71396   0.19140   0.00000  Uiso   1.00
C319   C     0.29477   0.91825   0.15175   0.00000  Uiso   1.00
N320   N     0.28036   0.95270   0.14192   0.00000  Uiso   1.00
C321   C     0.29234   0.75165   0.13760   0.00000  Uiso   1.00
N322   N     0.27665   0.71915   0.12222   0.00000  Uiso   1.00
C323   C     0.04099   0.91501   0.19573   0.00000  Uiso   1.00
N324   N     0.05668   0.94752   0.21111   0.00000  Uiso   1.00
N325   N     0.20805   0.71472   0.24336   0.00000  Uiso   1.00
O326   O     0.19297   0.71638   0.28790   0.00000  Uiso   1.00
O327   O     0.24635   0.72643   0.23718   0.00000  Uiso   1.00
N328   N     0.12522   0.95194   0.09003   0.00000  Uiso   1.00
O329   O     0.14038   0.95005   0.04554   0.00000  Uiso   1.00
O330   O     0.08680   0.94065   0.09610   0.00000  Uiso   1.00
N331   N     0.12818   0.71349   0.08768   0.00000  Uiso   1.00
O332   O     0.09124   0.72945   0.09194   0.00000  Uiso   1.00
O333   O     0.14455   0.71225   0.04382   0.00000  Uiso   1.00
N334   N     0.20516   0.95317   0.24564   0.00000  Uiso   1.00
O335   O     0.24218   0.93741   0.24145   0.00000  Uiso   1.00
O336   O     0.18870   0.95424   0.28945   0.00000  Uiso   1.00
O337   O     0.43892   0.87154   0.16666   0.00000  Uiso   1.00
O338   O     0.56108   0.79513   0.16667   0.00000  Uiso   1.00
O339   O     0.56108   0.87154   0.16667   0.00000  Uiso   1.00
O340   O     0.43892   0.79513   0.16666   0.00000  Uiso   1.00
C341   C     0.42017   0.83310   0.17092   0.00000  Uiso   1.00
C342   C     0.57983   0.83357   0.16241   0.00000  Uiso   1.00
O343   O     0.50000   0.87155   0.09511   0.00000  Uiso   1.00
O344   O     0.50000   0.79512   0.23822   0.00000  Uiso   1.00
O345   O     0.50000   0.87155   0.23822   0.00000  Uiso   1.00
O346   O     0.50000   0.79512   0.09511   0.00000  Uiso   1.00
C347   C     0.49987   0.83331   0.07293   0.00000  Uiso   1.00
C348   C     0.50013   0.83335   0.26040   0.00000  Uiso   1.00
Zn349  Zn    0.50000   0.88437   0.16667   0.00000  Uiso   1.00
Zn350  Zn    0.50000   0.78229   0.16667   0.00000  Uiso   1.00
C351   C     0.49995   0.83331   0.02180   0.00000  Uiso   1.00
C352   C     0.50005   0.83336   0.31153   0.00000  Uiso   1.00
C353   C     0.35357   0.79169   0.16968   0.00000  Uiso   1.00
C354   C     0.64643   0.87498   0.16365   0.00000  Uiso   1.00
C355   C     0.64538   0.79269   0.15653   0.00000  Uiso   1.00
C356   C     0.35461   0.87397   0.17679   0.00000  Uiso   1.00
C357   C     0.62436   0.83399   0.15826   0.00000  Uiso   1.00
C358   C     0.37564   0.83268   0.17507   0.00000  Uiso   1.00
C359   C     0.51943   0.69090   0.20446   0.00000  Uiso   1.00
C360   C     0.48056   0.97577   0.12888   0.00000  Uiso   1.00
C361   C     0.48085   0.69033   0.12864   0.00000  Uiso   1.00
C362   C     0.51915   0.97633   0.20470   0.00000  Uiso   1.00
N363   N     0.50000   0.95240   0.16667   0.00000  Uiso   1.00
N364   N     0.50000   0.71427   0.16667   0.00000  Uiso   1.00
C365   C     0.37189   0.74841   0.18157   0.00000  Uiso   1.00
N366   N     0.38631   0.71396   0.19140   0.00000  Uiso   1.00
C367   C     0.62811   0.91825   0.15175   0.00000  Uiso   1.00
N368   N     0.61369   0.95270   0.14192   0.00000  Uiso   1.00
C369   C     0.62567   0.75165   0.13760   0.00000  Uiso   1.00
N370   N     0.60999   0.71915   0.12222   0.00000  Uiso   1.00
C371   C     0.37433   0.91501   0.19573   0.00000  Uiso   1.00
N372   N     0.39001   0.94752   0.21111   0.00000  Uiso   1.00
N373   N     0.54139   0.71472   0.24336   0.00000  Uiso   1.00
O374   O     0.52631   0.71638   0.28790   0.00000  Uiso   1.00
O375   O     0.57968   0.72643   0.23718   0.00000  Uiso   1.00
N376   N     0.45856   0.95194   0.09003   0.00000  Uiso   1.00
O377   O     0.47372   0.95005   0.04554   0.00000  Uiso   1.00
O378   O     0.42013   0.94065   0.09610   0.00000  Uiso   1.00
N379   N     0.46151   0.71349   0.08768   0.00000  Uiso   1.00
O380   O     0.42457   0.72945   0.09194   0.00000  Uiso   1.00
O381   O     0.47788   0.71225   0.04382   0.00000  Uiso   1.00
N382   N     0.53850   0.95317   0.24564   0.00000  Uiso   1.00
O383   O     0.57552   0.93741   0.24145   0.00000  Uiso   1.00
O384   O     0.52204   0.95424   0.28945   0.00000  Uiso   1.00
O385   O     0.77226   0.87154   0.16666   0.00000  Uiso   1.00
O386   O     0.89441   0.79513   0.16667   0.00000  Uiso   1.00
O387   O     0.89441   0.87154   0.16667   0.00000  Uiso   1.00
O388   O     0.77226   0.79513   0.16666   0.00000  Uiso   1.00
C389   C     0.75350   0.83310   0.17092   0.00000  Uiso   1.00
C390   C     0.91317   0.83357   0.16241   0.00000  Uiso   1.00
O391   O     0.83334   0.87155   0.09511   0.00000  Uiso   1.00
O392   O     0.83333   0.79512   0.23822   0.00000  Uiso   1.00
O393   O     0.83333   0.87155   0.23822   0.00000  Uiso   1.00
O394   O     0.83334   0.79512   0.09511   0.00000  Uiso   1.00
C395   C     0.83320   0.83331   0.07293   0.00000  Uiso   1.00
C396   C     0.83346   0.83335   0.26040   0.00000  Uiso   1.00
Zn397  Zn    0.83333   0.88437   0.16667   0.00000  Uiso   1.00
Zn398  Zn    0.83333   0.78229   0.16667   0.00000  Uiso   1.00
C399   C     0.83329   0.83331   0.02180   0.00000  Uiso   1.00
C400   C     0.83338   0.83336   0.31153   0.00000  Uiso   1.00
C401   C     0.68690   0.79169   0.16968   0.00000  Uiso   1.00
C402   C     0.97976   0.87498   0.16365   0.00000  Uiso   1.00
C403   C     0.97872   0.79269   0.15653   0.00000  Uiso   1.00
C404   C     0.68795   0.87397   0.17679   0.00000  Uiso   1.00
C405   C     0.95769   0.83399   0.15826   0.00000  Uiso   1.00
C406   C     0.70898   0.83268   0.17507   0.00000  Uiso   1.00
C407   C     0.85276   0.69090   0.20446   0.00000  Uiso   1.00
C408   C     0.81390   0.97577   0.12888   0.00000  Uiso   1.00
C409   C     0.81418   0.69033   0.12864   0.00000  Uiso   1.00
C410   C     0.85248   0.97633   0.20470   0.00000  Uiso   1.00
N411   N     0.83333   0.95240   0.16667   0.00000  Uiso   1.00
N412   N     0.83333   0.71427   0.16667   0.00000  Uiso   1.00
C413   C     0.70523   0.74841   0.18157   0.00000  Uiso   1.00
N414   N     0.71964   0.71396   0.19140   0.00000  Uiso   1.00
C415   C     0.96144   0.91825   0.15175   0.00000  Uiso   1.00
N416   N     0.94702   0.95270   0.14192   0.00000  Uiso   1.00
C417   C     0.95900   0.75165   0.13760   0.00000  Uiso   1.00
N418   N     0.94332   0.71915   0.12222   0.00000  Uiso   1.00
C419   C     0.70766   0.91501   0.19573   0.00000  Uiso   1.00
N420   N     0.72334   0.94752   0.21111   0.00000  Uiso   1.00
N421   N     0.87472   0.71472   0.24336   0.00000  Uiso   1.00
O422   O     0.85964   0.71638   0.28790   0.00000  Uiso   1.00
O423   O     0.91302   0.72643   0.23718   0.00000  Uiso   1.00
N424   N     0.79189   0.95194   0.09003   0.00000  Uiso   1.00
O425   O     0.80705   0.95005   0.04554   0.00000  Uiso   1.00
O426   O     0.75346   0.94065   0.09610   0.00000  Uiso   1.00
N427   N     0.79484   0.71349   0.08768   0.00000  Uiso   1.00
O428   O     0.75790   0.72945   0.09194   0.00000  Uiso   1.00
O429   O     0.81122   0.71225   0.04382   0.00000  Uiso   1.00
N430   N     0.87183   0.95317   0.24564   0.00000  Uiso   1.00
O431   O     0.90885   0.93741   0.24145   0.00000  Uiso   1.00
O432   O     0.85537   0.95424   0.28945   0.00000  Uiso   1.00
O433   O     0.10559   0.20487   0.50000   0.00000  Uiso   1.00
O434   O     0.22774   0.12846   0.50000   0.00000  Uiso   1.00
O435   O     0.22774   0.20487   0.50000   0.00000  Uiso   1.00
O436   O     0.10559   0.12846   0.50000   0.00000  Uiso   1.00
C437   C     0.08683   0.16643   0.50425   0.00000  Uiso   1.00
C438   C     0.24650   0.16690   0.49575   0.00000  Uiso   1.00
O439   O     0.16667   0.20488   0.42845   0.00000  Uiso   1.00
O440   O     0.16666   0.12845   0.57155   0.00000  Uiso   1.00
O441   O     0.16666   0.20488   0.57155   0.00000  Uiso   1.00
O442   O     0.16667   0.12845   0.42845   0.00000  Uiso   1.00
C443   C     0.16654   0.16665   0.40627   0.00000  Uiso   1.00
C444   C     0.16680   0.16669   0.59373   0.00000  Uiso   1.00
Zn445  Zn    0.16667   0.21771   0.50000   0.00000  Uiso   1.00
Zn446  Zn    0.16667   0.11563   0.50000   0.00000  Uiso   1.00
C447   C     0.16662   0.16664   0.35514   0.00000  Uiso   1.00
C448   C     0.16671   0.16669   0.64486   0.00000  Uiso   1.00
C449   C     0.02023   0.12502   0.50301   0.00000  Uiso   1.00
C450   C     0.31310   0.20831   0.49698   0.00000  Uiso   1.00
C451   C     0.31205   0.12603   0.48987   0.00000  Uiso   1.00
C452   C     0.02128   0.20731   0.51013   0.00000  Uiso   1.00
C453   C     0.29102   0.16732   0.49159   0.00000  Uiso   1.00
C454   C     0.04231   0.16601   0.50840   0.00000  Uiso   1.00
C455   C     0.18609   0.02423   0.53779   0.00000  Uiso   1.00
C456   C     0.14723   0.30910   0.46222   0.00000  Uiso   1.00
C457   C     0.14752   0.02366   0.46197   0.00000  Uiso   1.00
C458   C     0.18581   0.30967   0.53803   0.00000  Uiso   1.00
N459   N     0.16667   0.28573   0.50000   0.00000  Uiso   1.00
N460   N     0.16667   0.04760   0.50000   0.00000  Uiso   1.00
C461   C     0.03856   0.08175   0.51490   0.00000  Uiso   1.00
N462   N     0.05298   0.04730   0.52473   0.00000  Uiso   1.00
C463   C     0.29477   0.25159   0.48509   0.00000  Uiso   1.00
N464   N     0.28036   0.28603   0.47525   0.00000  Uiso   1.00
C465   C     0.29234   0.08499   0.47093   0.00000  Uiso   1.00
N466   N     0.27665   0.05248   0.45556   0.00000  Uiso   1.00
C467   C     0.04099   0.24834   0.52906   0.00000  Uiso   1.00
N468   N     0.05668   0.28085   0.54444   0.00000  Uiso   1.00
N469   N     0.20805   0.04805   0.57669   0.00000  Uiso   1.00
O470   O     0.19297   0.04971   0.62124   0.00000  Uiso   1.00
O471   O     0.24635   0.05976   0.57051   0.00000  Uiso   1.00
N472   N     0.12522   0.28528   0.42336   0.00000  Uiso   1.00
O473   O     0.14038   0.28338   0.37887   0.00000  Uiso   1.00
O474   O     0.08680   0.27399   0.42943   0.00000  Uiso   1.00
N475   N     0.12818   0.04683   0.42102   0.00000  Uiso   1.00
O476   O     0.09124   0.06278   0.42527   0.00000  Uiso   1.00
O477   O     0.14455   0.04558   0.37716   0.00000  Uiso   1.00
N478   N     0.20516   0.28650   0.57897   0.00000  Uiso   1.00
O479   O     0.24218   0.27075   0.57478   0.00000  Uiso   1.00
O480   O     0.18870   0.28757   0.62279   0.00000  Uiso   1.00
O481   O     0.43892   0.20487   0.50000   0.00000  Uiso   1.00
O482   O     0.56108   0.12846   0.50000   0.00000  Uiso   1.00
O483   O     0.56108   0.20487   0.50000   0.00000  Uiso   1.00
O484   O     0.43892   0.12846   0.50000   0.00000  Uiso   1.00
C485   C     0.42017   0.16643   0.50425   0.00000  Uiso   1.00
C486   C     0.57983   0.16690   0.49575   0.00000  Uiso   1.00
O487   O     0.50000   0.20488   0.42845   0.00000  Uiso   1.00
O488   O     0.50000   0.12845   0.57155   0.00000  Uiso   1.00
O489   O     0.50000   0.20488   0.57155   0.00000  Uiso   1.00
O490   O     0.50000   0.12845   0.42845   0.00000  Uiso   1.00
C491   C     0.49987   0.16665   0.40627   0.00000  Uiso   1.00
C492   C     0.50013   0.16669   0.59373   0.00000  Uiso   1.00
Zn493  Zn    0.50000   0.21771   0.50000   0.00000  Uiso   1.00
Zn494  Zn    0.50000   0.11563   0.50000   0.00000  Uiso   1.00
C495   C     0.49995   0.16664   0.35514   0.00000  Uiso   1.00
C496   C     0.50005   0.16669   0.64486   0.00000  Uiso   1.00
C497   C     0.35357   0.12502   0.50301   0.00000  Uiso   1.00
C498   C     0.64643   0.20831   0.49698   0.00000  Uiso   1.00
C499   C     0.64538   0.12603   0.48987   0.00000  Uiso   1.00
C500   C     0.35461   0.20731   0.51013   0.00000  Uiso   1.00
C501   C     0.62436   0.16732   0.49159   0.00000  Uiso   1.00
C502   C     0.37564   0.16601   0.50840   0.00000  Uiso   1.00
C503   C     0.51943   0.02423   0.53779   0.00000  Uiso   1.00
C504   C     0.48056   0.30910   0.46222   0.00000  Uiso   1.00
C505   C     0.48085   0.02366   0.46197   0.00000  Uiso   1.00
C506   C     0.51915   0.30967   0.53803   0.00000  Uiso   1.00
N507   N     0.50000   0.28573   0.50000   0.00000  Uiso   1.00
N508   N     0.50000   0.04760   0.50000   0.00000  Uiso   1.00
C509   C     0.37189   0.08175   0.51490   0.00000  Uiso   1.00
N510   N     0.38631   0.04730   0.52473   0.00000  Uiso   1.00
C511   C     0.62811   0.25159   0.48509   0.00000  Uiso   1.00
N512   N     0.61369   0.28603   0.47525   0.00000  Uiso   1.00
C513   C     0.62567   0.08499   0.47093   0.00000  Uiso   1.00
N514   N     0.60999   0.05248   0.45556   0.00000  Uiso   1.00
C515   C     0.37433   0.24834   0.52906   0.00000  Uiso   1.00
N516   N     0.39001   0.28085   0.54444   0.00000  Uiso   1.00
N517   N     0.54139   0.04805   0.57669   0.00000  Uiso   1.00
O518   O     0.52631   0.04971   0.62124   0.00000  Uiso   1.00
O519   O     0.57968   0.05976   0.57051   0.00000  Uiso   1.00
N520   N     0.45856   0.28528   0.42336   0.00000  Uiso   1.00
O521   O     0.47372   0.28338   0.37887   0.00000  Uiso   1.00
O522   O     0.42013   0.27399   0.42943   0.00000  Uiso   1.00
N523   N     0.46151   0.04683   0.42102   0.00000  Uiso   1.00
O524   O     0.42457   0.06278   0.42527   0.00000  Uiso   1.00
O525   O     0.47788   0.04558   0.37716   0.00000  Uiso   1.00
N526   N     0.53850   0.28650   0.57897   0.00000  Uiso   1.00
O527   O     0.57552   0.27075   0.57478   0.00000  Uiso   1.00
O528   O     0.52204   0.28757   0.62279   0.00000  Uiso   1.00
O529   O     0.77226   0.20487   0.50000   0.00000  Uiso   1.00
O530   O     0.89441   0.12846   0.50000   0.00000  Uiso   1.00
O531   O     0.89441   0.20487   0.50000   0.00000  Uiso   1.00
O532   O     0.77226   0.12846   0.50000   0.00000  Uiso   1.00
C533   C     0.75350   0.16643   0.50425   0.00000  Uiso   1.00
C534   C     0.91317   0.16690   0.49575   0.00000  Uiso   1.00
O535   O     0.83334   0.20488   0.42845   0.00000  Uiso   1.00
O536   O     0.83333   0.12845   0.57155   0.00000  Uiso   1.00
O537   O     0.83333   0.20488   0.57155   0.00000  Uiso   1.00
O538   O     0.83334   0.12845   0.42845   0.00000  Uiso   1.00
C539   C     0.83320   0.16665   0.40627   0.00000  Uiso   1.00
C540   C     0.83346   0.16669   0.59373   0.00000  Uiso   1.00
Zn541  Zn    0.83333   0.21771   0.50000   0.00000  Uiso   1.00
Zn542  Zn    0.83333   0.11563   0.50000   0.00000  Uiso   1.00
C543   C     0.83329   0.16664   0.35514   0.00000  Uiso   1.00
C544   C     0.83338   0.16669   0.64486   0.00000  Uiso   1.00
C545   C     0.68690   0.12502   0.50301   0.00000  Uiso   1.00
C546   C     0.97976   0.20831   0.49698   0.00000  Uiso   1.00
C547   C     0.97872   0.12603   0.48987   0.00000  Uiso   1.00
C548   C     0.68795   0.20731   0.51013   0.00000  Uiso   1.00
C549   C     0.95769   0.16732   0.49159   0.00000  Uiso   1.00
C550   C     0.70898   0.16601   0.50840   0.00000  Uiso   1.00
C551   C     0.85276   0.02423   0.53779   0.00000  Uiso   1.00
C552   C     0.81390   0.30910   0.46222   0.00000  Uiso   1.00
C553   C     0.81418   0.02366   0.46197   0.00000  Uiso   1.00
C554   C     0.85248   0.30967   0.53803   0.00000  Uiso   1.00
N555   N     0.83333   0.28573   0.50000   0.00000  Uiso   1.00
N556   N     0.83333   0.04760   0.50000   0.00000  Uiso   1.00
C557   C     0.70523   0.08175   0.51490   0.00000  Uiso   1.00
N558   N     0.71964   0.04730   0.52473   0.00000  Uiso   1.00
C559   C     0.96144   0.25159   0.48509   0.00000  Uiso   1.00
N560   N     0.94702   0.28603   0.47525   0.00000  Uiso   1.00
C561   C     0.95900   0.08499   0.47093   0.00000  Uiso   1.00
N562   N     0.94332   0.05248   0.45556   0.00000  Uiso   1.00
C563   C     0.70766   0.24834   0.52906   0.00000  Uiso   1.00
N564   N     0.72334   0.28085   0.54444   0.00000  Uiso   1.00
N565   N     0.87472   0.04805   0.57669   0.00000  Uiso   1.00
O566   O     0.85964   0.04971   0.62124   0.00000  Uiso   1.00
O567   O     0.91302   0.05976   0.57051   0.00000  Uiso   1.00
N568   N     0.79189   0.28528   0.42336   0.00000  Uiso   1.00
O569   O     0.80705   0.28338   0.37887   0.00000  Uiso   1.00
O570   O     0.75346   0.27399   0.42943   0.00000  Uiso   1.00
N571   N     0.79484   0.04683   0.42102   0.00000  Uiso   1.00
O572   O     0.75790   0.06278   0.42527   0.00000  Uiso   1.00
O573   O     0.81122   0.04558   0.37716   0.00000  Uiso   1.00
N574   N     0.87183   0.28650   0.57897   0.00000  Uiso   1.00
O575   O     0.90885   0.27075   0.57478   0.00000  Uiso   1.00
O576   O     0.85537   0.28757   0.62279   0.00000  Uiso   1.00
O577   O     0.10559   0.53821   0.50000   0.00000  Uiso   1.00
O578   O     0.22774   0.46179   0.50000   0.00000  Uiso   1.00
O579   O     0.22774   0.53821   0.50000   0.00000  Uiso   1.00
O580   O     0.10559   0.46179   0.50000   0.00000  Uiso   1.00
C581   C     0.08683   0.49977   0.50425   0.00000  Uiso   1.00
C582   C     0.24650   0.50023   0.49575   0.00000  Uiso   1.00
O583   O     0.16667   0.53821   0.42845   0.00000  Uiso   1.00
O584   O     0.16666   0.46179   0.57155   0.00000  Uiso   1.00
O585   O     0.16666   0.53821   0.57155   0.00000  Uiso   1.00
O586   O     0.16667   0.46179   0.42845   0.00000  Uiso   1.00
C587   C     0.16654   0.49998   0.40627   0.00000  Uiso   1.00
C588   C     0.16680   0.50002   0.59373   0.00000  Uiso   1.00
Zn589  Zn    0.16667   0.55104   0.50000   0.00000  Uiso   1.00
Zn590  Zn    0.16667   0.44896   0.50000   0.00000  Uiso   1.00
C591   C     0.16662   0.49997   0.35514   0.00000  Uiso   1.00
C592   C     0.16671   0.50003   0.64486   0.00000  Uiso   1.00
C593   C     0.02023   0.45836   0.50301   0.00000  Uiso   1.00
C594   C     0.31310   0.54164   0.49698   0.00000  Uiso   1.00
C595   C     0.31205   0.45936   0.48987   0.00000  Uiso   1.00
C596   C     0.02128   0.54064   0.51013   0.00000  Uiso   1.00
C597   C     0.29102   0.50066   0.49159   0.00000  Uiso   1.00
C598   C     0.04231   0.49934   0.50840   0.00000  Uiso   1.00
C599   C     0.18609   0.35756   0.53779   0.00000  Uiso   1.00
C600   C     0.14723   0.64243   0.46222   0.00000  Uiso   1.00
C601   C     0.14752   0.35700   0.46197   0.00000  Uiso   1.00
C602   C     0.18581   0.64300   0.53803   0.00000  Uiso   1.00
N603   N     0.16667   0.61907   0.50000   0.00000  Uiso   1.00
N604   N     0.16667   0.38093   0.50000   0.00000  Uiso   1.00
C605   C     0.03856   0.41508   0.51490   0.00000  Uiso   1.00
N606   N     0.05298   0.38063   0.52473   0.00000  Uiso   1.00
C607   C     0.29477   0.58492   0.48509   0.00000  Uiso   1.00
N608   N     0.28036   0.61937   0.47525   0.00000  Uiso   1.00
C609   C     0.29234   0.41832   0.47093   0.00000  Uiso   1.00
N610   N     0.27665   0.38581   0.45556   0.00000  Uiso   1.00
C611   C     0.04099   0.58168   0.52906   0.00000  Uiso   1.00
N612   N     0.05668   0.61419   0.54444   0.00000  Uiso   1.00
N613   N     0.20805   0.38138   0.57669   0.00000  Uiso   1.00
O614   O     0.19297   0.38305   0.62124   0.00000  Uiso   1.00
O615   O     0.24635   0.39310   0.57051   0.00000  Uiso   1.00
N616   N     0.12522   0.61861   0.42336   0.00000  Uiso   1.00
O617   O     0.14038   0.61671   0.37887   0.00000  Uiso   1.00
O618   O     0.08680   0.60732   0.42943   0.00000  Uiso   1.00
N619   N     0.12818   0.38016   0.42102   0.00000  Uiso   1.00
O620   O     0.09124   0.39612   0.42527   0.00000  Uiso   1.00
O621   O     0.14455   0.37891   0.37716   0.00000  Uiso   1.00
N622   N     0.20516   0.61983   0.57897   0.00000  Uiso   1.00
O623   O     0.24218   0.60408   0.57478   0.00000  Uiso   1.00
O624   O     0.18870   0.62091   0.62279   0.00000  Uiso   1.00
O625   O     0.43892   0.53821   0.50000   0.00000  Uiso   1.00
O626   O     0.56108   0.46179   0.50000   0.00000  Uiso   1.00
O627   O     0.56108   0.53821   0.50000   0.00000  Uiso   1.00
O628   O     0.43892   0.46179   0.50000   0.00000  Uiso   1.00
C629   C     0.42017   0.49977   0.50425   0.00000  Uiso   1.00
C630   C     0.57983   0.50023   0.49575   0.00000  Uiso   1.00
O631   O     0.50000   0.53821   0.42845   0.00000  Uiso   1.00
O632   O     0.50000   0.46179   0.57155   0.00000  Uiso   1.00
O633   O     0.50000   0.53821   0.57155   0.00000  Uiso   1.00
O634   O     0.50000   0.46179   0.42845   0.00000  Uiso   1.00
C635   C     0.49987   0.49998   0.40627   0.00000  Uiso   1.00
C636   C     0.50013   0.50002   0.59373   0.00000  Uiso   1.00
Zn637  Zn    0.50000   0.55104   0.50000   0.00000  Uiso   1.00
Zn638  Zn    0.50000   0.44896   0.50000   0.00000  Uiso   1.00
C639   C     0.49995   0.49997   0.35514   0.00000  Uiso   1.00
C640   C     0.50005   0.50003   0.64486   0.00000  Uiso   1.00
C641   C     0.35357   0.45836   0.50301   0.00000  Uiso   1.00
C642   C     0.64643   0.54164   0.49698   0.00000  Uiso   1.00
C643   C     0.64538   0.45936   0.48987   0.00000  Uiso   1.00
C644   C     0.35461   0.54064   0.51013   0.00000  Uiso   1.00
C645   C     0.62436   0.50066   0.49159   0.00000  Uiso   1.00
C646   C     0.37564   0.49934   0.50840   0.00000  Uiso   1.00
C647   C     0.51943   0.35756   0.53779   0.00000  Uiso   1.00
C648   C     0.48056   0.64243   0.46222   0.00000  Uiso   1.00
C649   C     0.48085   0.35700   0.46197   0.00000  Uiso   1.00
C650   C     0.51915   0.64300   0.53803   0.00000  Uiso   1.00
N651   N     0.50000   0.61907   0.50000   0.00000  Uiso   1.00
N652   N     0.50000   0.38093   0.50000   0.00000  Uiso   1.00
C653   C     0.37189   0.41508   0.51490   0.00000  Uiso   1.00
N654   N     0.38631   0.38063   0.52473   0.00000  Uiso   1.00
C655   C     0.62811   0.58492   0.48509   0.00000  Uiso   1.00
N656   N     0.61369   0.61937   0.47525   0.00000  Uiso   1.00
C657   C     0.62567   0.41832   0.47093   0.00000  Uiso   1.00
N658   N     0.60999   0.38581   0.45556   0.00000  Uiso   1.00
C659   C     0.37433   0.58168   0.52906   0.00000  Uiso   1.00
N660   N     0.39001   0.61419   0.54444   0.00000  Uiso   1.00
N661   N     0.54139   0.38138   0.57669   0.00000  Uiso   1.00
O662   O     0.52631   0.38305   0.62124   0.00000  Uiso   1.00
O663   O     0.57968   0.39310   0.57051   0.00000  Uiso   1.00
N664   N     0.45856   0.61861   0.42336   0.00000  Uiso   1.00
O665   O     0.47372   0.61671   0.37887   0.00000  Uiso   1.00
O666   O     0.42013   0.60732   0.42943   0.00000  Uiso   1.00
N667   N     0.46151   0.38016   0.42102   0.00000  Uiso   1.00
O668   O     0.42457   0.39612   0.42527   0.00000  Uiso   1.00
O669   O     0.47788   0.37891   0.37716   0.00000  Uiso   1.00
N670   N     0.53850   0.61983   0.57897   0.00000  Uiso   1.00
O671   O     0.57552   0.60408   0.57478   0.00000  Uiso   1.00
O672   O     0.52204   0.62091   0.62279   0.00000  Uiso   1.00
O673   O     0.77226   0.53821   0.50000   0.00000  Uiso   1.00
O674   O     0.89441   0.46179   0.50000   0.00000  Uiso   1.00
O675   O     0.89441   0.53821   0.50000   0.00000  Uiso   1.00
O676   O     0.77226   0.46179   0.50000   0.00000  Uiso   1.00
C677   C     0.75350   0.49977   0.50425   0.00000  Uiso   1.00
C678   C     0.91317   0.50023   0.49575   0.00000  Uiso   1.00
O679   O     0.83334   0.53821   0.42845   0.00000  Uiso   1.00
O680   O     0.83333   0.46179   0.57155   0.00000  Uiso   1.00
O681   O     0.83333   0.53821   0.57155   0.00000  Uiso   1.00
O682   O     0.83334   0.46179   0.42845   0.00000  Uiso   1.00
C683   C     0.83320   0.49998   0.40627   0.00000  Uiso   1.00
C684   C     0.83346   0.50002   0.59373   0.00000  Uiso   1.00
Zn685  Zn    0.83333   0.55104   0.50000   0.00000  Uiso   1.00
Zn686  Zn    0.83333   0.44896   0.50000   0.00000  Uiso   1.00
C687   C     0.83329   0.49997   0.35514   0.00000  Uiso   1.00
C688   C     0.83338   0.50003   0.64486   0.00000  Uiso   1.00
C689   C     0.68690   0.45836   0.50301   0.00000  Uiso   1.00
C690   C     0.97976   0.54164   0.49698   0.00000  Uiso   1.00
C691   C     0.97872   0.45936   0.48987   0.00000  Uiso   1.00
C692   C     0.68795   0.54064   0.51013   0.00000  Uiso   1.00
C693   C     0.95769   0.50066   0.49159   0.00000  Uiso   1.00
C694   C     0.70898   0.49934   0.50840   0.00000  Uiso   1.00
C695   C     0.85276   0.35756   0.53779   0.00000  Uiso   1.00
C696   C     0.81390   0.64243   0.46222   0.00000  Uiso   1.00
C697   C     0.81418   0.35700   0.46197   0.00000  Uiso   1.00
C698   C     0.85248   0.64300   0.53803   0.00000  Uiso   1.00
N699   N     0.83333   0.61907   0.50000   0.00000  Uiso   1.00
N700   N     0.83333   0.38093   0.50000   0.00000  Uiso   1.00
C701   C     0.70523   0.41508   0.51490   0.00000  Uiso   1.00
N702   N     0.71964   0.38063   0.52473   0.00000  Uiso   1.00
C703   C     0.96144   0.58492   0.48509   0.00000  Uiso   1.00
N704   N     0.94702   0.61937   0.47525   0.00000  Uiso   1.00
C705   C     0.95900   0.41832   0.47093   0.00000  Uiso   1.00
N706   N     0.94332   0.38581   0.45556   0.00000  Uiso   1.00
C707   C     0.70766   0.58168   0.52906   0.00000  Uiso   1.00
N708   N     0.72334   0.61419   0.54444   0.00000  Uiso   1.00
N709   N     0.87472   0.38138   0.57669   0.00000  Uiso   1.00
O710   O     0.85964   0.38305   0.62124   0.00000  Uiso   1.00
O711   O     0.91302   0.39310   0.57051   0.00000  Uiso   1.00
N712   N     0.79189   0.61861   0.42336   0.00000  Uiso   1.00
O713   O     0.80705   0.61671   0.37887   0.00000  Uiso   1.00
O714   O     0.75346   0.60732   0.42943   0.00000  Uiso   1.00
N715   N     0.79484   0.38016   0.42102   0.00000  Uiso   1.00
O716   O     0.75790   0.39612   0.42527   0.00000  Uiso   1.00
O717   O     0.81122   0.37891   0.37716   0.00000  Uiso   1.00
N718   N     0.87183   0.61983   0.57897   0.00000  Uiso   1.00
O719   O     0.90885   0.60408   0.57478   0.00000  Uiso   1.00
O720   O     0.85537   0.62091   0.62279   0.00000  Uiso   1.00
O721   O     0.10559   0.87154   0.50000   0.00000  Uiso   1.00
O722   O     0.22774   0.79513   0.50000   0.00000  Uiso   1.00
O723   O     0.22774   0.87154   0.50000   0.00000  Uiso   1.00
O724   O     0.10559   0.79513   0.50000   0.00000  Uiso   1.00
C725   C     0.08683   0.83310   0.50425   0.00000  Uiso   1.00
C726   C     0.24650   0.83357   0.49575   0.00000  Uiso   1.00
O727   O     0.16667   0.87155   0.42845   0.00000  Uiso   1.00
O728   O     0.16666   0.79512   0.57155   0.00000  Uiso   1.00
O729   O     0.16666   0.87155   0.57155   0.00000  Uiso   1.00
O730   O     0.16667   0.79512   0.42845   0.00000  Uiso   1.00
C731   C     0.16654   0.83331   0.40627   0.00000  Uiso   1.00
C732   C     0.16680   0.83335   0.59373   0.00000  Uiso   1.00
Zn733  Zn    0.16667   0.88437   0.50000   0.00000  Uiso   1.00
Zn734  Zn    0.16667   0.78229   0.50000   0.00000  Uiso   1.00
C735   C     0.16662   0.83331   0.35514   0.00000  Uiso   1.00
C736   C     0.16671   0.83336   0.64486   0.00000  Uiso   1.00
C737   C     0.02023   0.79169   0.50301   0.00000  Uiso   1.00
C738   C     0.31310   0.87498   0.49698   0.00000  Uiso   1.00
C739   C     0.31205   0.79269   0.48987   0.00000  Uiso   1.00
C740   C     0.02128   0.87397   0.51013   0.00000  Uiso   1.00
C741   C     0.29102   0.83399   0.49159   0.00000  Uiso   1.00
C742   C     0.04231   0.83268   0.50840   0.00000  Uiso   1.00
C743   C     0.18609   0.69090   0.53779   0.00000  Uiso   1.00
C744   C     0.14723   0.97577   0.46222   0.00000  Uiso   1.00
C745   C     0.14752   0.69033   0.46197   0.00000  Uiso   1.00
C746   C     0.18581   0.97633   0.53803   0.00000  Uiso   1.00
N747   N     0.16667   0.95240   0.50000   0.00000  Uiso   1.00
N748   N     0.16667   0.71427   0.50000   0.00000  Uiso   1.00
C749   C     0.03856   0.74841   0.51490   0.00000  Uiso   1.00
N750   N     0.05298   0.71396   0.52473   0.00000  Uiso   1.00
C751   C     0.29477   0.91825   0.48509   0.00000  Uiso   1.00
N752   N     0.28036   0.95270   0.47525   0.00000  Uiso   1.00
C753   C     0.29234   0.75165   0.47093   0.00000  Uiso   1.00
N754   N     0.27665   0.71915   0.45556   0.00000  Uiso   1.00
C755   C     0.04099   0.91501   0.52906   0.00000  Uiso   1.00
N756   N     0.05668   0.94752   0.54444   0.00000  Uiso   1.00
N757   N     0.20805   0.71472   0.57669   0.00000  Uiso   1.00
O758   O     0.19297   0.71638   0.62124   0.00000  Uiso   1.00
O759   O     0.24635   0.72643   0.57051   0.00000  Uiso   1.00
N760   N     0.12522   0.95194   0.42336   0.00000  Uiso   1.00
O761   O     0.14038   0.95005   0.37887   0.00000  Uiso   1.00
O762   O     0.08680   0.94065   0.42943   0.00000  Uiso   1.00
N763   N     0.12818   0.71349   0.42102   0.00000  Uiso   1.00
O764   O     0.09124   0.72945   0.42527   0.00000  Uiso   1.00
O765   O     0.14455   0.71225   0.37716   0.00000  Uiso   1.00
N766   N     0.20516   0.95317   0.57897   0.00000  Uiso   1.00
O767   O     0.24218   0.93741   0.57478   0.00000  Uiso   1.00
O768   O     0.18870   0.95424   0.62279   0.00000  Uiso   1.00
O769   O     0.43892   0.87154   0.50000   0.00000  Uiso   1.00
O770   O     0.56108   0.79513   0.50000   0.00000  Uiso   1.00
O771   O     0.56108   0.87154   0.50000   0.00000  Uiso   1.00
O772   O     0.43892   0.79513   0.50000   0.00000  Uiso   1.00
C773   C     0.42017   0.83310   0.50425   0.00000  Uiso   1.00
C774   C     0.57983   0.83357   0.49575   0.00000  Uiso   1.00
O775   O     0.50000   0.87155   0.42845   0.00000  Uiso   1.00
O776   O     0.50000   0.79512   0.57155   0.00000  Uiso   1.00
O777   O     0.50000   0.87155   0.57155   0.00000  Uiso   1.00
O778   O     0.50000   0.79512   0.42845   0.00000  Uiso   1.00
C779   C     0.49987   0.83331   0.40627   0.00000  Uiso   1.00
C780   C     0.50013   0.83335   0.59373   0.00000  Uiso   1.00
Zn781  Zn    0.50000   0.88437   0.50000   0.00000  Uiso   1.00
Zn782  Zn    0.50000   0.78229   0.50000   0.00000  Uiso   1.00
C783   C     0.49995   0.83331   0.35514   0.00000  Uiso   1.00
C784   C     0.50005   0.83336   0.64486   0.00000  Uiso   1.00
C785   C     0.35357   0.79169   0.50301   0.00000  Uiso   1.00
C786   C     0.64643   0.87498   0.49698   0.00000  Uiso   1.00
C787   C     0.64538   0.79269   0.48987   0.00000  Uiso   1.00
C788   C     0.35461   0.87397   0.51013   0.00000  Uiso   1.00
C789   C     0.62436   0.83399   0.49159   0.00000  Uiso   1.00
C790   C     0.37564   0.83268   0.50840   0.00000  Uiso   1.00
C791   C     0.51943   0.69090   0.53779   0.00000  Uiso   1.00
C792   C     0.48056   0.97577   0.46222   0.00000  Uiso   1.00
C793   C     0.48085   0.69033   0.46197   0.00000  Uiso   1.00
C794   C     0.51915   0.97633   0.53803   0.00000  Uiso   1.00
N795   N     0.50000   0.95240   0.50000   0.00000  Uiso   1.00
N796   N     0.50000   0.71427   0.50000   0.00000  Uiso   1.00
C797   C     0.37189   0.74841   0.51490   0.00000  Uiso   1.00
N798   N     0.38631   0.71396   0.52473   0.00000  Uiso   1.00
C799   C     0.62811   0.91825   0.48509   0.00000  Uiso   1.00
N800   N     0.61369   0.95270   0.47525   0.00000  Uiso   1.00
C801   C     0.62567   0.75165   0.47093   0.00000  Uiso   1.00
N802   N     0.60999   0.71915   0.45556   0.00000  Uiso   1.00
C803   C     0.37433   0.91501   0.52906   0.00000  Uiso   1.00
N804   N     0.39001   0.94752   0.54444   0.00000  Uiso   1.00
N805   N     0.54139   0.71472   0.57669   0.00000  Uiso   1.00
O806   O     0.52631   0.71638   0.62124   0.00000  Uiso   1.00
O807   O     0.57968   0.72643   0.57051   0.00000  Uiso   1.00
N808   N     0.45856   0.95194   0.42336   0.00000  Uiso   1.00
O809   O     0.47372   0.95005   0.37887   0.00000  Uiso   1.00
O810   O     0.42013   0.94065   0.42943   0.00000  Uiso   1.00
N811   N     0.46151   0.71349   0.42102   0.00000  Uiso   1.00
O812   O     0.42457   0.72945   0.42527   0.00000  Uiso   1.00
O813   O     0.47788   0.71225   0.37716   0.00000  Uiso   1.00
N814   N     0.53850   0.95317   0.57897   0.00000  Uiso   1.00
O815   O     0.57552   0.93741   0.57478   0.00000  Uiso   1.00
O816   O     0.52204   0.95424   0.62279   0.00000  Uiso   1.00
O817   O     0.77226   0.87154   0.50000   0.00000  Uiso   1.00
O818   O     0.89441   0.79513   0.50000   0.00000  Uiso   1.00
O819   O     0.89441   0.87154   0.50000   0.00000  Uiso   1.00
O820   O     0.77226   0.79513   0.50000   0.00000  Uiso   1.00
C821   C     0.75350   0.83310   0.50425   0.00000  Uiso   1.00
C822   C     0.91317   0.83357   0.49575   0.00000  Uiso   1.00
O823   O     0.83334   0.87155   0.42845   0.00000  Uiso   1.00
O824   O     0.83333   0.79512   0.57155   0.00000  Uiso   1.00
O825   O     0.83333   0.87155   0.57155   0.00000  Uiso   1.00
O826   O     0.83334   0.79512   0.42845   0.00000  Uiso   1.00
C827   C     0.83320   0.83331   0.40627   0.00000  Uiso   1.00
C828   C     0.83346   0.83335   0.59373   0.00000  Uiso   1.00
Zn829  Zn    0.83333   0.88437   0.50000   0.00000  Uiso   1.00
Zn830  Zn    0.83333   0.78229   0.50000   0.00000  Uiso   1.00
C831   C     0.83329   0.83331   0.35514   0.00000  Uiso   1.00
C832   C     0.83338   0.83336   0.64486   0.00000  Uiso   1.00
C833   C     0.68690   0.79169   0.50301   0.00000  Uiso   1.00
C834   C     0.97976   0.87498   0.49698   0.00000  Uiso   1.00
C835   C     0.97872   0.79269   0.48987   0.00000  Uiso   1.00
C836   C     0.68795   0.87397   0.51013   0.00000  Uiso   1.00
C837   C     0.95769   0.83399   0.49159   0.00000  Uiso   1.00
C838   C     0.70898   0.83268   0.50840   0.00000  Uiso   1.00
C839   C     0.85276   0.69090   0.53779   0.00000  Uiso   1.00
C840   C     0.81390   0.97577   0.46222   0.00000  Uiso   1.00
C841   C     0.81418   0.69033   0.46197   0.00000  Uiso   1.00
C842   C     0.85248   0.97633   0.53803   0.00000  Uiso   1.00
N843   N     0.83333   0.95240   0.50000   0.00000  Uiso   1.00
N844   N     0.83333   0.71427   0.50000   0.00000  Uiso   1.00
C845   C     0.70523   0.74841   0.51490   0.00000  Uiso   1.00
N846   N     0.71964   0.71396   0.52473   0.00000  Uiso   1.00
C847   C     0.96144   0.91825   0.48509   0.00000  Uiso   1.00
N848   N     0.94702   0.95270   0.47525   0.00000  Uiso   1.00
C849   C     0.95900   0.75165   0.47093   0.00000  Uiso   1.00
N850   N     0.94332   0.71915   0.45556   0.00000  Uiso   1.00
C851   C     0.70766   0.91501   0.52906   0.00000  Uiso   1.00
N852   N     0.72334   0.94752   0.54444   0.00000  Uiso   1.00
N853   N     0.87472   0.71472   0.57669   0.00000  Uiso   1.00
O854   O     0.85964   0.71638   0.62124   0.00000  Uiso   1.00
O855   O     0.91302   0.72643   0.57051   0.00000  Uiso   1.00
N856   N     0.79189   0.95194   0.42336   0.00000  Uiso   1.00
O857   O     0.80705   0.95005   0.37887   0.00000  Uiso   1.00
O858   O     0.75346   0.94065   0.42943   0.00000  Uiso   1.00
N859   N     0.79484   0.71349   0.42102   0.00000  Uiso   1.00
O860   O     0.75790   0.72945   0.42527   0.00000  Uiso   1.00
O861   O     0.81122   0.71225   0.37716   0.00000  Uiso   1.00
N862   N     0.87183   0.95317   0.57897   0.00000  Uiso   1.00
O863   O     0.90885   0.93741   0.57478   0.00000  Uiso   1.00
O864   O     0.85537   0.95424   0.62279   0.00000  Uiso   1.00
O865   O     0.10559   0.20487   0.83333   0.00000  Uiso   1.00
O866   O     0.22774   0.12846   0.83334   0.00000  Uiso   1.00
O867   O     0.22774   0.20487   0.83334   0.00000  Uiso   1.00
O868   O     0.10559   0.12846   0.83333   0.00000  Uiso   1.00
C869   C     0.08683   0.16643   0.83759   0.00000  Uiso   1.00
C870   C     0.24650   0.16690   0.82908   0.00000  Uiso   1.00
O871   O     0.16667   0.20488   0.76178   0.00000  Uiso   1.00
O872   O     0.16666   0.12845   0.90489   0.00000  Uiso   1.00
O873   O     0.16666   0.20488   0.90489   0.00000  Uiso   1.00
O874   O     0.16667   0.12845   0.76178   0.00000  Uiso   1.00
C875   C     0.16654   0.16665   0.73960   0.00000  Uiso   1.00
C876   C     0.16680   0.16669   0.92707   0.00000  Uiso   1.00
Zn877  Zn    0.16667   0.21771   0.83333   0.00000  Uiso   1.00
Zn878  Zn    0.16667   0.11563   0.83333   0.00000  Uiso   1.00
C879   C     0.16662   0.16664   0.68847   0.00000  Uiso   1.00
C880   C     0.16671   0.16669   0.97820   0.00000  Uiso   1.00
C881   C     0.02023   0.12502   0.83634   0.00000  Uiso   1.00
C882   C     0.31310   0.20831   0.83032   0.00000  Uiso   1.00
C883   C     0.31205   0.12603   0.82320   0.00000  Uiso   1.00
C884   C     0.02128   0.20731   0.84346   0.00000  Uiso   1.00
C885   C     0.29102   0.16732   0.82492   0.00000  Uiso   1.00
C886   C     0.04231   0.16601   0.84174   0.00000  Uiso   1.00
C887   C     0.18609   0.02423   0.87113   0.00000  Uiso   1.00
C888   C     0.14723   0.30910   0.79555   0.00000  Uiso   1.00
C889   C     0.14752   0.02366   0.79531   0.00000  Uiso   1.00
C890   C     0.18581   0.30967   0.87136   0.00000  Uiso   1.00
N891   N     0.16667   0.28573   0.83333   0.00000  Uiso   1.00
N892   N     0.16667   0.04760   0.83333   0.00000  Uiso   1.00
C893   C     0.03856   0.08175   0.84824   0.00000  Uiso   1.00
N894   N     0.05298   0.04730   0.85807   0.00000  Uiso   1.00
C895   C     0.29477   0.25159   0.81842   0.00000  Uiso   1.00
N896   N     0.28036   0.28603   0.80858   0.00000  Uiso   1.00
C897   C     0.29234   0.08499   0.80427   0.00000  Uiso   1.00
N898   N     0.27665   0.05248   0.78889   0.00000  Uiso   1.00
C899   C     0.04099   0.24834   0.86240   0.00000  Uiso   1.00
N900   N     0.05668   0.28085   0.87777   0.00000  Uiso   1.00
N901   N     0.20805   0.04805   0.91002   0.00000  Uiso   1.00
O902   O     0.19297   0.04971   0.95457   0.00000  Uiso   1.00
O903   O     0.24635   0.05976   0.90385   0.00000  Uiso   1.00
N904   N     0.12522   0.28528   0.75670   0.00000  Uiso   1.00
O905   O     0.14038   0.28338   0.71220   0.00000  Uiso   1.00
O906   O     0.08680   0.27399   0.76277   0.00000  Uiso   1.00
N907   N     0.12818   0.04683   0.75435   0.00000  Uiso   1.00
O908   O     0.09124   0.06278   0.75860   0.00000  Uiso   1.00
O909   O     0.14455   0.04558   0.71049   0.00000  Uiso   1.00
N910   N     0.20516   0.28650   0.91230   0.00000  Uiso   1.00
O911   O     0.24218   0.27075   0.90812   0.00000  Uiso   1.00
O912   O     0.18870   0.28757   0.95612   0.00000  Uiso   1.00
O913   O     0.43892   0.20487   0.83333   0.00000  Uiso   1.00
O914   O     0.56108   0.12846   0.83334   0.00000  Uiso   1.00
O915   O     0.56108   0.20487   0.83334   0.00000  Uiso   1.00
O916   O     0.43892   0.12846   0.83333   0.00000  Uiso   1.00
C917   C     0.42017   0.16643   0.83759   0.00000  Uiso   1.00
C918   C     0.57983   0.16690   0.82908   0.00000  Uiso   1.00
O919   O     0.50000   0.20488   0.76178   0.00000  Uiso   1.00
O920   O     0.50000   0.12845   0.90489   0.00000  Uiso   1.00
O921   O     0.50000   0.20488   0.90489   0.00000  Uiso   1.00
O922   O     0.50000   0.12845   0.76178   0.00000  Uiso   1.00
C923   C     0.49987   0.16665   0.73960   0.00000  Uiso   1.00
C924   C     0.50013   0.16669   0.92707   0.00000  Uiso   1.00
Zn925  Zn    0.50000   0.21771   0.83333   0.00000  Uiso   1.00
Zn926  Zn    0.50000   0.11563   0.83333   0.00000  Uiso   1.00
C927   C     0.49995   0.16664   0.68847   0.00000  Uiso   1.00
C928   C     0.50005   0.16669   0.97820   0.00000  Uiso   1.00
C929   C     0.35357   0.12502   0.83634   0.00000  Uiso   1.00
C930   C     0.64643   0.20831   0.83032   0.00000  Uiso   1.00
C931   C     0.64538   0.12603   0.82320   0.00000  Uiso   1.00
C932   C     0.35461   0.20731   0.84346   0.00000  Uiso   1.00
C933   C     0.62436   0.16732   0.82492   0.00000  Uiso   1.00
C934   C     0.37564   0.16601   0.84174   0.00000  Uiso   1.00
C935   C     0.51943   0.02423   0.87113   0.00000  Uiso   1.00
C936   C     0.48056   0.30910   0.79555   0.00000  Uiso   1.00
C937   C     0.48085   0.02366   0.79531   0.00000  Uiso   1.00
C938   C     0.51915   0.30967   0.87136   0.00000  Uiso   1.00
N939   N     0.50000   0.28573   0.83333   0.00000  Uiso   1.00
N940   N     0.50000   0.04760   0.83333   0.00000  Uiso   1.00
C941   C     0.37189   0.08175   0.84824   0.00000  Uiso   1.00
N942   N     0.38631   0.04730   0.85807   0.00000  Uiso   1.00
C943   C     0.62811   0.25159   0.81842   0.00000  Uiso   1.00
N944   N     0.61369   0.28603   0.80858   0.00000  Uiso   1.00
C945   C     0.62567   0.08499   0.80427   0.00000  Uiso   1.00
N946   N     0.60999   0.05248   0.78889   0.00000  Uiso   1.00
C947   C     0.37433   0.24834   0.86240   0.00000  Uiso   1.00
N948   N     0.39001   0.28085   0.87777   0.00000  Uiso   1.00
N949   N     0.54139   0.04805   0.91002   0.00000  Uiso   1.00
O950   O     0.52631   0.04971   0.95457   0.00000  Uiso   1.00
O951   O     0.57968   0.05976   0.90385   0.00000  Uiso   1.00
N952   N     0.45856   0.28528   0.75670   0.00000  Uiso   1.00
O953   O     0.47372   0.28338   0.71220   0.00000  Uiso   1.00
O954   O     0.42013   0.27399   0.76277   0.00000  Uiso   1.00
N955   N     0.46151   0.04683   0.75435   0.00000  Uiso   1.00
O956   O     0.42457   0.06278   0.75860   0.00000  Uiso   1.00
O957   O     0.47788   0.04558   0.71049   0.00000  Uiso   1.00
N958   N     0.53850   0.28650   0.91230   0.00000  Uiso   1.00
O959   O     0.57552   0.27075   0.90812   0.00000  Uiso   1.00
O960   O     0.52204   0.28757   0.95612   0.00000  Uiso   1.00
O961   O     0.77226   0.20487   0.83333   0.00000  Uiso   1.00
O962   O     0.89441   0.12846   0.83334   0.00000  Uiso   1.00
O963   O     0.89441   0.20487   0.83334   0.00000  Uiso   1.00
O964   O     0.77226   0.12846   0.83333   0.00000  Uiso   1.00
C965   C     0.75350   0.16643   0.83759   0.00000  Uiso   1.00
C966   C     0.91317   0.16690   0.82908   0.00000  Uiso   1.00
O967   O     0.83334   0.20488   0.76178   0.00000  Uiso   1.00
O968   O     0.83333   0.12845   0.90489   0.00000  Uiso   1.00
O969   O     0.83333   0.20488   0.90489   0.00000  Uiso   1.00
O970   O     0.83334   0.12845   0.76178   0.00000  Uiso   1.00
C971   C     0.83320   0.16665   0.73960   0.00000  Uiso   1.00
C972   C     0.83346   0.16669   0.92707   0.00000  Uiso   1.00
Zn973  Zn    0.83333   0.21771   0.83333   0.00000  Uiso   1.00
Zn974  Zn    0.83333   0.11563   0.83333   0.00000  Uiso   1.00
C975   C     0.83329   0.16664   0.68847   0.00000  Uiso   1.00
C976   C     0.83338   0.16669   0.97820   0.00000  Uiso   1.00
C977   C     0.68690   0.12502   0.83634   0.00000  Uiso   1.00
C978   C     0.97976   0.20831   0.83032   0.00000  Uiso   1.00
C979   C     0.97872   0.12603   0.82320   0.00000  Uiso   1.00
C980   C     0.68795   0.20731   0.84346   0.00000  Uiso   1.00
C981   C     0.95769   0.16732   0.82492   0.00000  Uiso   1.00
C982   C     0.70898   0.16601   0.84174   0.00000  Uiso   1.00
C983   C     0.85276   0.02423   0.87113   0.00000  Uiso   1.00
C984   C     0.81390   0.30910   0.79555   0.00000  Uiso   1.00
C985   C     0.81418   0.02366   0.79531   0.00000  Uiso   1.00
C986   C     0.85248   0.30967   0.87136   0.00000  Uiso   1.00
N987   N     0.83333   0.28573   0.83333   0.00000  Uiso   1.00
N988   N     0.83333   0.04760   0.83333   0.00000  Uiso   1.00
C989   C     0.70523   0.08175   0.84824   0.00000  Uiso   1.00
N990   N     0.71964   0.04730   0.85807   0.00000  Uiso   1.00
C991   C     0.96144   0.25159   0.81842   0.00000  Uiso   1.00
N992   N     0.94702   0.28603   0.80858   0.00000  Uiso   1.00
C993   C     0.95900   0.08499   0.80427   0.00000  Uiso   1.00
N994   N     0.94332   0.05248   0.78889   0.00000  Uiso   1.00
C995   C     0.70766   0.24834   0.86240   0.00000  Uiso   1.00
N996   N     0.72334   0.28085   0.87777   0.00000  Uiso   1.00
N997   N     0.87472   0.04805   0.91002   0.00000  Uiso   1.00
O998   O     0.85964   0.04971   0.95457   0.00000  Uiso   1.00
O999   O     0.91302   0.05976   0.90385   0.00000  Uiso   1.00
N1000  N     0.79189   0.28528   0.75670   0.00000  Uiso   1.00
O1001  O     0.80705   0.28338   0.71220   0.00000  Uiso   1.00
O1002  O     0.75346   0.27399   0.76277   0.00000  Uiso   1.00
N1003  N     0.79484   0.04683   0.75435   0.00000  Uiso   1.00
O1004  O     0.75790   0.06278   0.75860   0.00000  Uiso   1.00
O1005  O     0.81122   0.04558   0.71049   0.00000  Uiso   1.00
N1006  N     0.87183   0.28650   0.91230   0.00000  Uiso   1.00
O1007  O     0.90885   0.27075   0.90812   0.00000  Uiso   1.00
O1008  O     0.85537   0.28757   0.95612   0.00000  Uiso   1.00
O1009  O     0.10559   0.53821   0.83333   0.00000  Uiso   1.00
O1010  O     0.22774   0.46179   0.83334   0.00000  Uiso   1.00
O1011  O     0.22774   0.53821   0.83334   0.00000  Uiso   1.00
O1012  O     0.10559   0.46179   0.83333   0.00000  Uiso   1.00
C1013  C     0.08683   0.49977   0.83759   0.00000  Uiso   1.00
C1014  C     0.24650   0.50023   0.82908   0.00000  Uiso   1.00
O1015  O     0.16667   0.53821   0.76178   0.00000  Uiso   1.00
O1016  O     0.16666   0.46179   0.90489   0.00000  Uiso   1.00
O1017  O     0.16666   0.53821   0.90489   0.00000  Uiso   1.00
O1018  O     0.16667   0.46179   0.76178   0.00000  Uiso   1.00
C1019  C     0.16654   0.49998   0.73960   0.00000  Uiso   1.00
C1020  C     0.16680   0.50002   0.92707   0.00000  Uiso   1.00
Zn1021 Zn    0.16667   0.55104   0.83333   0.00000  Uiso   1.00
Zn1022 Zn    0.16667   0.44896   0.83333   0.00000  Uiso   1.00
C1023  C     0.16662   0.49997   0.68847   0.00000  Uiso   1.00
C1024  C     0.16671   0.50003   0.97820   0.00000  Uiso   1.00
C1025  C     0.02023   0.45836   0.83634   0.00000  Uiso   1.00
C1026  C     0.31310   0.54164   0.83032   0.00000  Uiso   1.00
C1027  C     0.31205   0.45936   0.82320   0.00000  Uiso   1.00
C1028  C     0.02128   0.54064   0.84346   0.00000  Uiso   1.00
C1029  C     0.29102   0.50066   0.82492   0.00000  Uiso   1.00
C1030  C     0.04231   0.49934   0.84174   0.00000  Uiso   1.00
C1031  C     0.18609   0.35756   0.87113   0.00000  Uiso   1.00
C1032  C     0.14723   0.64243   0.79555   0.00000  Uiso   1.00
C1033  C     0.14752   0.35700   0.79531   0.00000  Uiso   1.00
C1034  C     0.18581   0.64300   0.87136   0.00000  Uiso   1.00
N1035  N     0.16667   0.61907   0.83333   0.00000  Uiso   1.00
N1036  N     0.16667   0.38093   0.83333   0.00000  Uiso   1.00
C1037  C     0.03856   0.41508   0.84824   0.00000  Uiso   1.00
N1038  N     0.05298   0.38063   0.85807   0.00000  Uiso   1.00
C1039  C     0.29477   0.58492   0.81842   0.00000  Uiso   1.00
N1040  N     0.28036   0.61937   0.80858   0.00000  Uiso   1.00
C1041  C     0.29234   0.41832   0.80427   0.00000  Uiso   1.00
N1042  N     0.27665   0.38581   0.78889   0.00000  Uiso   1.00
C1043  C     0.04099   0.58168   0.86240   0.00000  Uiso   1.00
N1044  N     0.05668   0.61419   0.87777   0.00000  Uiso   1.00
N1045  N     0.20805   0.38138   0.91002   0.00000  Uiso   1.00
O1046  O     0.19297   0.38305   0.95457   0.00000  Uiso   1.00
O1047  O     0.24635   0.39310   0.90385   0.00000  Uiso   1.00
N1048  N     0.12522   0.61861   0.75670   0.00000  Uiso   1.00
O1049  O     0.14038   0.61671   0.71220   0.00000  Uiso   1.00
O1050  O     0.08680   0.60732   0.76277   0.00000  Uiso   1.00
N1051  N     0.12818   0.38016   0.75435   0.00000  Uiso   1.00
O1052  O     0.09124   0.39612   0.75860   0.00000  Uiso   1.00
O1053  O     0.14455   0.37891   0.71049   0.00000  Uiso   1.00
N1054  N     0.20516   0.61983   0.91230   0.00000  Uiso   1.00
O1055  O     0.24218   0.60408   0.90812   0.00000  Uiso   1.00
O1056  O     0.18870   0.62091   0.95612   0.00000  Uiso   1.00
O1057  O     0.43892   0.53821   0.83333   0.00000  Uiso   1.00
O1058  O     0.56108   0.46179   0.83334   0.00000  Uiso   1.00
O1059  O     0.56108   0.53821   0.83334   0.00000  Uiso   1.00
O1060  O     0.43892   0.46179   0.83333   0.00000  Uiso   1.00
C1061  C     0.42017   0.49977   0.83759   0.00000  Uiso   1.00
C1062  C     0.57983   0.50023   0.82908   0.00000  Uiso   1.00
O1063  O     0.50000   0.53821   0.76178   0.00000  Uiso   1.00
O1064  O     0.50000   0.46179   0.90489   0.00000  Uiso   1.00
O1065  O     0.50000   0.53821   0.90489   0.00000  Uiso   1.00
O1066  O     0.50000   0.46179   0.76178   0.00000  Uiso   1.00
C1067  C     0.49987   0.49998   0.73960   0.00000  Uiso   1.00
C1068  C     0.50013   0.50002   0.92707   0.00000  Uiso   1.00
Zn1069 Zn    0.50000   0.55104   0.83333   0.00000  Uiso   1.00
Zn1070 Zn    0.50000   0.44896   0.83333   0.00000  Uiso   1.00
C1071  C     0.49995   0.49997   0.68847   0.00000  Uiso   1.00
C1072  C     0.50005   0.50003   0.97820   0.00000  Uiso   1.00
C1073  C     0.35357   0.45836   0.83634   0.00000  Uiso   1.00
C1074  C     0.64643   0.54164   0.83032   0.00000  Uiso   1.00
C1075  C     0.64538   0.45936   0.82320   0.00000  Uiso   1.00
C1076  C     0.35461   0.54064   0.84346   0.00000  Uiso   1.00
C1077  C     0.62436   0.50066   0.82492   0.00000  Uiso   1.00
C1078  C     0.37564   0.49934   0.84174   0.00000  Uiso   1.00
C1079  C     0.51943   0.35756   0.87113   0.00000  Uiso   1.00
C1080  C     0.48056   0.64243   0.79555   0.00000  Uiso   1.00
C1081  C     0.48085   0.35700   0.79531   0.00000  Uiso   1.00
C1082  C     0.51915   0.64300   0.87136   0.00000  Uiso   1.00
N1083  N     0.50000   0.61907   0.83333   0.00000  Uiso   1.00
N1084  N     0.50000   0.38093   0.83333   0.00000  Uiso   1.00
C1085  C     0.37189   0.41508   0.84824   0.00000  Uiso   1.00
N1086  N     0.38631   0.38063   0.85807   0.00000  Uiso   1.00
C1087  C     0.62811   0.58492   0.81842   0.00000  Uiso   1.00
N1088  N     0.61369   0.61937   0.80858   0.00000  Uiso   1.00
C1089  C     0.62567   0.41832   0.80427   0.00000  Uiso   1.00
N1090  N     0.60999   0.38581   0.78889   0.00000  Uiso   1.00
C1091  C     0.37433   0.58168   0.86240   0.00000  Uiso   1.00
N1092  N     0.39001   0.61419   0.87777   0.00000  Uiso   1.00
N1093  N     0.54139   0.38138   0.91002   0.00000  Uiso   1.00
O1094  O     0.52631   0.38305   0.95457   0.00000  Uiso   1.00
O1095  O     0.57968   0.39310   0.90385   0.00000  Uiso   1.00
N1096  N     0.45856   0.61861   0.75670   0.00000  Uiso   1.00
O1097  O     0.47372   0.61671   0.71220   0.00000  Uiso   1.00
O1098  O     0.42013   0.60732   0.76277   0.00000  Uiso   1.00
N1099  N     0.46151   0.38016   0.75435   0.00000  Uiso   1.00
O1100  O     0.42457   0.39612   0.75860   0.00000  Uiso   1.00
O1101  O     0.47788   0.37891   0.71049   0.00000  Uiso   1.00
N1102  N     0.53850   0.61983   0.91230   0.00000  Uiso   1.00
O1103  O     0.57552   0.60408   0.90812   0.00000  Uiso   1.00
O1104  O     0.52204   0.62091   0.95612   0.00000  Uiso   1.00
O1105  O     0.77226   0.53821   0.83333   0.00000  Uiso   1.00
O1106  O     0.89441   0.46179   0.83334   0.00000  Uiso   1.00
O1107  O     0.89441   0.53821   0.83334   0.00000  Uiso   1.00
O1108  O     0.77226   0.46179   0.83333   0.00000  Uiso   1.00
C1109  C     0.75350   0.49977   0.83759   0.00000  Uiso   1.00
C1110  C     0.91317   0.50023   0.82908   0.00000  Uiso   1.00
O1111  O     0.83334   0.53821   0.76178   0.00000  Uiso   1.00
O1112  O     0.83333   0.46179   0.90489   0.00000  Uiso   1.00
O1113  O     0.83333   0.53821   0.90489   0.00000  Uiso   1.00
O1114  O     0.83334   0.46179   0.76178   0.00000  Uiso   1.00
C1115  C     0.83320   0.49998   0.73960   0.00000  Uiso   1.00
C1116  C     0.83346   0.50002   0.92707   0.00000  Uiso   1.00
Zn1117 Zn    0.83333   0.55104   0.83333   0.00000  Uiso   1.00
Zn1118 Zn    0.83333   0.44896   0.83333   0.00000  Uiso   1.00
C1119  C     0.83329   0.49997   0.68847   0.00000  Uiso   1.00
C1120  C     0.83338   0.50003   0.97820   0.00000  Uiso   1.00
C1121  C     0.68690   0.45836   0.83634   0.00000  Uiso   1.00
C1122  C     0.97976   0.54164   0.83032   0.00000  Uiso   1.00
C1123  C     0.97872   0.45936   0.82320   0.00000  Uiso   1.00
C1124  C     0.68795   0.54064   0.84346   0.00000  Uiso   1.00
C1125  C     0.95769   0.50066   0.82492   0.00000  Uiso   1.00
C1126  C     0.70898   0.49934   0.84174   0.00000  Uiso   1.00
C1127  C     0.85276   0.35756   0.87113   0.00000  Uiso   1.00
C1128  C     0.81390   0.64243   0.79555   0.00000  Uiso   1.00
C1129  C     0.81418   0.35700   0.79531   0.00000  Uiso   1.00
C1130  C     0.85248   0.64300   0.87136   0.00000  Uiso   1.00
N1131  N     0.83333   0.61907   0.83333   0.00000  Uiso   1.00
N1132  N     0.83333   0.38093   0.83333   0.00000  Uiso   1.00
C1133  C     0.70523   0.41508   0.84824   0.00000  Uiso   1.00
N1134  N     0.71964   0.38063   0.85807   0.00000  Uiso   1.00
C1135  C     0.96144   0.58492   0.81842   0.00000  Uiso   1.00
N1136  N     0.94702   0.61937   0.80858   0.00000  Uiso   1.00
C1137  C     0.95900   0.41832   0.80427   0.00000  Uiso   1.00
N1138  N     0.94332   0.38581   0.78889   0.00000  Uiso   1.00
C1139  C     0.70766   0.58168   0.86240   0.00000  Uiso   1.00
N1140  N     0.72334   0.61419   0.87777   0.00000  Uiso   1.00
N1141  N     0.87472   0.38138   0.91002   0.00000  Uiso   1.00
O1142  O     0.85964   0.38305   0.95457   0.00000  Uiso   1.00
O1143  O     0.91302   0.39310   0.90385   0.00000  Uiso   1.00
N1144  N     0.79189   0.61861   0.75670   0.00000  Uiso   1.00
O1145  O     0.80705   0.61671   0.71220   0.00000  Uiso   1.00
O1146  O     0.75346   0.60732   0.76277   0.00000  Uiso   1.00
N1147  N     0.79484   0.38016   0.75435   0.00000  Uiso   1.00
O1148  O     0.75790   0.39612   0.75860   0.00000  Uiso   1.00
O1149  O     0.81122   0.37891   0.71049   0.00000  Uiso   1.00
N1150  N     0.87183   0.61983   0.91230   0.00000  Uiso   1.00
O1151  O     0.90885   0.60408   0.90812   0.00000  Uiso   1.00
O1152  O     0.85537   0.62091   0.95612   0.00000  Uiso   1.00
O1153  O     0.10559   0.87154   0.83333   0.00000  Uiso   1.00
O1154  O     0.22774   0.79513   0.83334   0.00000  Uiso   1.00
O1155  O     0.22774   0.87154   0.83334   0.00000  Uiso   1.00
O1156  O     0.10559   0.79513   0.83333   0.00000  Uiso   1.00
C1157  C     0.08683   0.83310   0.83759   0.00000  Uiso   1.00
C1158  C     0.24650   0.83357   0.82908   0.00000  Uiso   1.00
O1159  O     0.16667   0.87155   0.76178   0.00000  Uiso   1.00
O1160  O     0.16666   0.79512   0.90489   0.00000  Uiso   1.00
O1161  O     0.16666   0.87155   0.90489   0.00000  Uiso   1.00
O1162  O     0.16667   0.79512   0.76178   0.00000  Uiso   1.00
C1163  C     0.16654   0.83331   0.73960   0.00000  Uiso   1.00
C1164  C     0.16680   0.83335   0.92707   0.00000  Uiso   1.00
Zn1165 Zn    0.16667   0.88437   0.83333   0.00000  Uiso   1.00
Zn1166 Zn    0.16667   0.78229   0.83333   0.00000  Uiso   1.00
C1167  C     0.16662   0.83331   0.68847   0.00000  Uiso   1.00
C1168  C     0.16671   0.83336   0.97820   0.00000  Uiso   1.00
C1169  C     0.02023   0.79169   0.83634   0.00000  Uiso   1.00
C1170  C     0.31310   0.87498   0.83032   0.00000  Uiso   1.00
C1171  C     0.31205   0.79269   0.82320   0.00000  Uiso   1.00
C1172  C     0.02128   0.87397   0.84346   0.00000  Uiso   1.00
C1173  C     0.29102   0.83399   0.82492   0.00000  Uiso   1.00
C1174  C     0.04231   0.83268   0.84174   0.00000  Uiso   1.00
C1175  C     0.18609   0.69090   0.87113   0.00000  Uiso   1.00
C1176  C     0.14723   0.97577   0.79555   0.00000  Uiso   1.00
C1177  C     0.14752   0.69033   0.79531   0.00000  Uiso   1.00
C1178  C     0.18581   0.97633   0.87136   0.00000  Uiso   1.00
N1179  N     0.16667   0.95240   0.83333   0.00000  Uiso   1.00
N1180  N     0.16667   0.71427   0.83333   0.00000  Uiso   1.00
C1181  C     0.03856   0.74841   0.84824   0.00000  Uiso   1.00
N1182  N     0.05298   0.71396   0.85807   0.00000  Uiso   1.00
C1183  C     0.29477   0.91825   0.81842   0.00000  Uiso   1.00
N1184  N     0.28036   0.95270   0.80858   0.00000  Uiso   1.00
C1185  C     0.29234   0.75165   0.80427   0.00000  Uiso   1.00
N1186  N     0.27665   0.71915   0.78889   0.00000  Uiso   1.00
C1187  C     0.04099   0.91501   0.86240   0.00000  Uiso   1.00
N1188  N     0.05668   0.94752   0.87777   0.00000  Uiso   1.00
N1189  N     0.20805   0.71472   0.91002   0.00000  Uiso   1.00
O1190  O     0.19297   0.71638   0.95457   0.00000  Uiso   1.00
O1191  O     0.24635   0.72643   0.90385   0.00000  Uiso   1.00
N1192  N     0.12522   0.95194   0.75670   0.00000  Uiso   1.00
O1193  O     0.14038   0.95005   0.71220   0.00000  Uiso   1.00
O1194  O     0.08680   0.94065   0.76277   0.00000  Uiso   1.00
N1195  N     0.12818   0.71349   0.75435   0.00000  Uiso   1.00
O1196  O     0.09124   0.72945   0.75860   0.00000  Uiso   1.00
O1197  O     0.14455   0.71225   0.71049   0.00000  Uiso   1.00
N1198  N     0.20516   0.95317   0.91230   0.00000  Uiso   1.00
O1199  O     0.24218   0.93741   0.90812   0.00000  Uiso   1.00
O1200  O     0.18870   0.95424   0.95612   0.00000  Uiso   1.00
O1201  O     0.43892   0.87154   0.83333   0.00000  Uiso   1.00
O1202  O     0.56108   0.79513   0.83334   0.00000  Uiso   1.00
O1203  O     0.56108   0.87154   0.83334   0.00000  Uiso   1.00
O1204  O     0.43892   0.79513   0.83333   0.00000  Uiso   1.00
C1205  C     0.42017   0.83310   0.83759   0.00000  Uiso   1.00
C1206  C     0.57983   0.83357   0.82908   0.00000  Uiso   1.00
O1207  O     0.50000   0.87155   0.76178   0.00000  Uiso   1.00
O1208  O     0.50000   0.79512   0.90489   0.00000  Uiso   1.00
O1209  O     0.50000   0.87155   0.90489   0.00000  Uiso   1.00
O1210  O     0.50000   0.79512   0.76178   0.00000  Uiso   1.00
C1211  C     0.49987   0.83331   0.73960   0.00000  Uiso   1.00
C1212  C     0.50013   0.83335   0.92707   0.00000  Uiso   1.00
Zn1213 Zn    0.50000   0.88437   0.83333   0.00000  Uiso   1.00
Zn1214 Zn    0.50000   0.78229   0.83333   0.00000  Uiso   1.00
C1215  C     0.49995   0.83331   0.68847   0.00000  Uiso   1.00
C1216  C     0.50005   0.83336   0.97820   0.00000  Uiso   1.00
C1217  C     0.35357   0.79169   0.83634   0.00000  Uiso   1.00
C1218  C     0.64643   0.87498   0.83032   0.00000  Uiso   1.00
C1219  C     0.64538   0.79269   0.82320   0.00000  Uiso   1.00
C1220  C     0.35461   0.87397   0.84346   0.00000  Uiso   1.00
C1221  C     0.62436   0.83399   0.82492   0.00000  Uiso   1.00
C1222  C     0.37564   0.83268   0.84174   0.00000  Uiso   1.00
C1223  C     0.51943   0.69090   0.87113   0.00000  Uiso   1.00
C1224  C     0.48056   0.97577   0.79555   0.00000  Uiso   1.00
C1225  C     0.48085   0.69033   0.79531   0.00000  Uiso   1.00
C1226  C     0.51915   0.97633   0.87136   0.00000  Uiso   1.00
N1227  N     0.50000   0.95240   0.83333   0.00000  Uiso   1.00
N1228  N     0.50000   0.71427   0.83333   0.00000  Uiso   1.00
C1229  C     0.37189   0.74841   0.84824   0.00000  Uiso   1.00
N1230  N     0.38631   0.71396   0.85807   0.00000  Uiso   1.00
C1231  C     0.62811   0.91825   0.81842   0.00000  Uiso   1.00
N1232  N     0.61369   0.95270   0.80858   0.00000  Uiso   1.00
C1233  C     0.62567   0.75165   0.80427   0.00000  Uiso   1.00
N1234  N     0.60999   0.71915   0.78889   0.00000  Uiso   1.00
C1235  C     0.37433   0.91501   0.86240   0.00000  Uiso   1.00
N1236  N     0.39001   0.94752   0.87777   0.00000  Uiso   1.00
N1237  N     0.54139   0.71472   0.91002   0.00000  Uiso   1.00
O1238  O     0.52631   0.71638   0.95457   0.00000  Uiso   1.00
O1239  O     0.57968   0.72643   0.90385   0.00000  Uiso   1.00
N1240  N     0.45856   0.95194   0.75670   0.00000  Uiso   1.00
O1241  O     0.47372   0.95005   0.71220   0.00000  Uiso   1.00
O1242  O     0.42013   0.94065   0.76277   0.00000  Uiso   1.00
N1243  N     0.46151   0.71349   0.75435   0.00000  Uiso   1.00
O1244  O     0.42457   0.72945   0.75860   0.00000  Uiso   1.00
O1245  O     0.47788   0.71225   0.71049   0.00000  Uiso   1.00
N1246  N     0.53850   0.95317   0.91230   0.00000  Uiso   1.00
O1247  O     0.57552   0.93741   0.90812   0.00000  Uiso   1.00
O1248  O     0.52204   0.95424   0.95612   0.00000  Uiso   1.00
O1249  O     0.77226   0.87154   0.83333   0.00000  Uiso   1.00
O1250  O     0.89441   0.79513   0.83334   0.00000  Uiso   1.00
O1251  O     0.89441   0.87154   0.83334   0.00000  Uiso   1.00
O1252  O     0.77226   0.79513   0.83333   0.00000  Uiso   1.00
C1253  C     0.75350   0.83310   0.83759   0.00000  Uiso   1.00
C1254  C     0.91317   0.83357   0.82908   0.00000  Uiso   1.00
O1255  O     0.83334   0.87155   0.76178   0.00000  Uiso   1.00
O1256  O     0.83333   0.79512   0.90489   0.00000  Uiso   1.00
O1257  O     0.83333   0.87155   0.90489   0.00000  Uiso   1.00
O1258  O     0.83334   0.79512   0.76178   0.00000  Uiso   1.00
C1259  C     0.83320   0.83331   0.73960   0.00000  Uiso   1.00
C1260  C     0.83346   0.83335   0.92707   0.00000  Uiso   1.00
Zn1261 Zn    0.83333   0.88437   0.83333   0.00000  Uiso   1.00
Zn1262 Zn    0.83333   0.78229   0.83333   0.00000  Uiso   1.00
C1263  C     0.83329   0.83331   0.68847   0.00000  Uiso   1.00
C1264  C     0.83338   0.83336   0.97820   0.00000  Uiso   1.00
C1265  C     0.68690   0.79169   0.83634   0.00000  Uiso   1.00
C1266  C     0.97976   0.87498   0.83032   0.00000  Uiso   1.00
C1267  C     0.97872   0.79269   0.82320   0.00000  Uiso   1.00
C1268  C     0.68795   0.87397   0.84346   0.00000  Uiso   1.00
C1269  C     0.95769   0.83399   0.82492   0.00000  Uiso   1.00
C1270  C     0.70898   0.83268   0.84174   0.00000  Uiso   1.00
C1271  C     0.85276   0.69090   0.87113   0.00000  Uiso   1.00
C1272  C     0.81390   0.97577   0.79555   0.00000  Uiso   1.00
C1273  C     0.81418   0.69033   0.79531   0.00000  Uiso   1.00
C1274  C     0.85248   0.97633   0.87136   0.00000  Uiso   1.00
N1275  N     0.83333   0.95240   0.83333   0.00000  Uiso   1.00
N1276  N     0.83333   0.71427   0.83333   0.00000  Uiso   1.00
C1277  C     0.70523   0.74841   0.84824   0.00000  Uiso   1.00
N1278  N     0.71964   0.71396   0.85807   0.00000  Uiso   1.00
C1279  C     0.96144   0.91825   0.81842   0.00000  Uiso   1.00
N1280  N     0.94702   0.95270   0.80858   0.00000  Uiso   1.00
C1281  C     0.95900   0.75165   0.80427   0.00000  Uiso   1.00
N1282  N     0.94332   0.71915   0.78889   0.00000  Uiso   1.00
C1283  C     0.70766   0.91501   0.86240   0.00000  Uiso   1.00
N1284  N     0.72334   0.94752   0.87777   0.00000  Uiso   1.00
N1285  N     0.87472   0.71472   0.91002   0.00000  Uiso   1.00
O1286  O     0.85964   0.71638   0.95457   0.00000  Uiso   1.00
O1287  O     0.91302   0.72643   0.90385   0.00000  Uiso   1.00
N1288  N     0.79189   0.95194   0.75670   0.00000  Uiso   1.00
O1289  O     0.80705   0.95005   0.71220   0.00000  Uiso   1.00
O1290  O     0.75346   0.94065   0.76277   0.00000  Uiso   1.00
N1291  N     0.79484   0.71349   0.75435   0.00000  Uiso   1.00
O1292  O     0.75790   0.72945   0.75860   0.00000  Uiso   1.00
O1293  O     0.81122   0.71225   0.71049   0.00000  Uiso   1.00
N1294  N     0.87183   0.95317   0.91230   0.00000  Uiso   1.00
O1295  O     0.90885   0.93741   0.90812   0.00000  Uiso   1.00
O1296  O     0.85537   0.95424   0.95612   0.00000  Uiso   1.00
loop_
_geom_bond_atom_site_label_1
_geom_bond_atom_site_label_2
_geom_bond_distance
_geom_bond_site_symmetry_2
_ccdc_geom_bond_type
O1     C5      1.295   .     A
O1     Zn13    2.011   .     S
O2     C6      1.295   .     A
O2     Zn14    2.011   .     S
O3     Zn13    2.018   .     S
O3     C6      1.293   .     A
O4     Zn14    2.018   .     S
O4     C5      1.293   .     A
C5     C22     1.449   .     S
C6     C21     1.449   .     S
O7     C11     1.281   .     A
O7     Zn13    1.950   .     S
O8     C12     1.281   .     A
O8     Zn14    1.950   .     S
O9     C12     1.281   .     A
O9     Zn13    1.951   .     S
O10    C11     1.281   .     A
O10    Zn14    1.951   .     S
C11    C15     1.367   .     S
C12    C16     1.367   .     S
Zn13   N27     2.021   .     S
Zn14   N28     2.021   .     S
C15    C880    1.166   1_554 S
C16    C447    1.166   .     S
C17    C29     1.454   .     S
C17    C22     1.412   .     A
C17    C115    1.382   1_455 S
C18    C21     1.412   .     A
C18    C31     1.454   .     S
C18    C68     1.382   .     S
C19    C33     1.455   .     S
C19    C21     1.411   .     A
C19    C65     1.382   .     S
C20    C22     1.411   .     A
C20    C35     1.455   .     S
C20    C114    1.382   1_455 S
C23    N28     1.370   .     A
C23    N37     1.428   .     S
C23    C314    1.423   1_545 S
C24    N27     1.370   .     A
C24    N40     1.428   .     S
C24    C169    1.423   .     S
C25    N43     1.428   .     S
C25    N28     1.372   .     A
C25    C312    1.423   1_545 S
C26    N27     1.372   .     A
C26    N46     1.428   .     S
C26    C167    1.423   .     S
C29    N30     1.157   .     T
C31    N32     1.157   .     T
C33    N34     1.157   .     T
C35    N36     1.157   .     T
N37    O38     1.300   .     A
N37    O39     1.300   .     A
N40    O42     1.300   .     A
N40    O41     1.300   .     A
N43    O44     1.299   .     A
N43    O45     1.300   .     A
N46    O48     1.300   .     A
N46    O47     1.299   .     A
O49    C53     1.295   .     A
O49    Zn61    2.011   .     S
O50    C54     1.295   .     A
O50    Zn62    2.011   .     S
O51    Zn61    2.018   .     S
O51    C54     1.293   .     A
O52    Zn62    2.018   .     S
O52    C53     1.293   .     A
C53    C70     1.449   .     S
C54    C69     1.449   .     S
O55    C59     1.281   .     A
O55    Zn61    1.950   .     S
O56    C60     1.281   .     A
O56    Zn62    1.950   .     S
O57    C60     1.281   .     A
O57    Zn61    1.951   .     S
O58    C59     1.281   .     A
O58    Zn62    1.951   .     S
C59    C63     1.367   .     S
C60    C64     1.367   .     S
Zn61   N75     2.021   .     S
Zn62   N76     2.021   .     S
C63    C928    1.166   1_554 S
C64    C495    1.166   .     S
C65    C77     1.454   .     S
C65    C70     1.412   .     A
C66    C69     1.412   .     A
C66    C79     1.454   .     S
C66    C116    1.382   .     S
C67    C81     1.455   .     S
C67    C69     1.411   .     A
C67    C113    1.382   .     S
C68    C70     1.411   .     A
C68    C83     1.455   .     S
C71    N76     1.370   .     A
C71    N85     1.428   .     S
C71    C362    1.423   1_545 S
C72    N75     1.370   .     A
C72    N88     1.428   .     S
C72    C217    1.423   .     S
C73    N91     1.428   .     S
C73    N76     1.372   .     A
C73    C360    1.423   1_545 S
C74    N75     1.372   .     A
C74    N94     1.428   .     S
C74    C215    1.423   .     S
C77    N78     1.157   .     T
C79    N80     1.157   .     T
C81    N82     1.157   .     T
C83    N84     1.157   .     T
N85    O86     1.300   .     A
N85    O87     1.300   .     A
N88    O90     1.300   .     A
N88    O89     1.300   .     A
N91    O92     1.299   .     A
N91    O93     1.300   .     A
N94    O96     1.300   .     A
N94    O95     1.299   .     A
O97    C101    1.295   .     A
O97    Zn109   2.011   .     S
O98    C102    1.295   .     A
O98    Zn110   2.011   .     S
O99    Zn109   2.018   .     S
O99    C102    1.293   .     A
O100   Zn110   2.018   .     S
O100   C101    1.293   .     A
C101   C118    1.449   .     S
C102   C117    1.449   .     S
O103   C107    1.281   .     A
O103   Zn109   1.950   .     S
O104   C108    1.281   .     A
O104   Zn110   1.950   .     S
O105   C108    1.281   .     A
O105   Zn109   1.951   .     S
O106   C107    1.281   .     A
O106   Zn110   1.951   .     S
C107   C111    1.367   .     S
C108   C112    1.367   .     S
Zn109  N123    2.021   .     S
Zn110  N124    2.021   .     S
C111   C976    1.166   1_554 S
C112   C543    1.166   .     S
C113   C125    1.454   .     S
C113   C118    1.412   .     A
C114   C117    1.412   .     A
C114   C127    1.454   .     S
C114   C20     1.382   1_655 S
C115   C129    1.455   .     S
C115   C117    1.411   .     A
C115   C17     1.382   1_655 S
C116   C118    1.411   .     A
C116   C131    1.455   .     S
C119   N124    1.370   .     A
C119   N133    1.428   .     S
C119   C410    1.423   1_545 S
C120   N123    1.370   .     A
C120   N136    1.428   .     S
C120   C265    1.423   .     S
C121   N139    1.428   .     S
C121   N124    1.372   .     A
C121   C408    1.423   1_545 S
C122   N123    1.372   .     A
C122   N142    1.428   .     S
C122   C263    1.423   .     S
C125   N126    1.157   .     T
C127   N128    1.157   .     T
C129   N130    1.157   .     T
C131   N132    1.157   .     T
N133   O134    1.300   .     A
N133   O135    1.300   .     A
N136   O138    1.300   .     A
N136   O137    1.300   .     A
N139   O140    1.299   .     A
N139   O141    1.300   .     A
N142   O144    1.300   .     A
N142   O143    1.299   .     A
O145   C149    1.295   .     A
O145   Zn157   2.011   .     S
O146   C150    1.295   .     A
O146   Zn158   2.011   .     S
O147   Zn157   2.018   .     S
O147   C150    1.293   .     A
O148   Zn158   2.018   .     S
O148   C149    1.293   .     A
C149   C166    1.449   .     S
C150   C165    1.449   .     S
O151   C155    1.281   .     A
O151   Zn157   1.950   .     S
O152   C156    1.281   .     A
O152   Zn158   1.950   .     S
O153   C156    1.281   .     A
O153   Zn157   1.951   .     S
O154   C155    1.281   .     A
O154   Zn158   1.951   .     S
C155   C159    1.367   .     S
C156   C160    1.367   .     S
Zn157  N171    2.021   .     S
Zn158  N172    2.021   .     S
C159   C1024   1.166   1_554 S
C160   C591    1.166   .     S
C161   C173    1.454   .     S
C161   C166    1.412   .     A
C161   C259    1.382   1_455 S
C162   C165    1.412   .     A
C162   C175    1.454   .     S
C162   C212    1.382   .     S
C163   C177    1.455   .     S
C163   C165    1.411   .     A
C163   C209    1.382   .     S
C164   C166    1.411   .     A
C164   C179    1.455   .     S
C164   C258    1.382   1_455 S
C167   N172    1.370   .     A
C167   N181    1.428   .     S
C168   N171    1.370   .     A
C168   N184    1.428   .     S
C168   C313    1.423   .     S
C169   N187    1.428   .     S
C169   N172    1.372   .     A
C170   N171    1.372   .     A
C170   N190    1.428   .     S
C170   C311    1.423   .     S
C173   N174    1.157   .     T
C175   N176    1.157   .     T
C177   N178    1.157   .     T
C179   N180    1.157   .     T
N181   O182    1.300   .     A
N181   O183    1.300   .     A
N184   O186    1.300   .     A
N184   O185    1.300   .     A
N187   O188    1.299   .     A
N187   O189    1.300   .     A
N190   O192    1.300   .     A
N190   O191    1.299   .     A
O193   C197    1.295   .     A
O193   Zn205   2.011   .     S
O194   C198    1.295   .     A
O194   Zn206   2.011   .     S
O195   Zn205   2.018   .     S
O195   C198    1.293   .     A
O196   Zn206   2.018   .     S
O196   C197    1.293   .     A
C197   C214    1.449   .     S
C198   C213    1.449   .     S
O199   C203    1.281   .     A
O199   Zn205   1.950   .     S
O200   C204    1.281   .     A
O200   Zn206   1.950   .     S
O201   C204    1.281   .     A
O201   Zn205   1.951   .     S
O202   C203    1.281   .     A
O202   Zn206   1.951   .     S
C203   C207    1.367   .     S
C204   C208    1.367   .     S
Zn205  N219    2.021   .     S
Zn206  N220    2.021   .     S
C207   C1072   1.166   1_554 S
C208   C639    1.166   .     S
C209   C221    1.454   .     S
C209   C214    1.412   .     A
C210   C213    1.412   .     A
C210   C223    1.454   .     S
C210   C260    1.382   .     S
C211   C225    1.455   .     S
C211   C213    1.411   .     A
C211   C257    1.382   .     S
C212   C214    1.411   .     A
C212   C227    1.455   .     S
C215   N220    1.370   .     A
C215   N229    1.428   .     S
C216   N219    1.370   .     A
C216   N232    1.428   .     S
C216   C361    1.423   .     S
C217   N235    1.428   .     S
C217   N220    1.372   .     A
C218   N219    1.372   .     A
C218   N238    1.428   .     S
C218   C359    1.423   .     S
C221   N222    1.157   .     T
C223   N224    1.157   .     T
C225   N226    1.157   .     T
C227   N228    1.157   .     T
N229   O230    1.300   .     A
N229   O231    1.300   .     A
N232   O234    1.300   .     A
N232   O233    1.300   .     A
N235   O236    1.299   .     A
N235   O237    1.300   .     A
N238   O240    1.300   .     A
N238   O239    1.299   .     A
O241   C245    1.295   .     A
O241   Zn253   2.011   .     S
O242   C246    1.295   .     A
O242   Zn254   2.011   .     S
O243   Zn253   2.018   .     S
O243   C246    1.293   .     A
O244   Zn254   2.018   .     S
O244   C245    1.293   .     A
C245   C262    1.449   .     S
C246   C261    1.449   .     S
O247   C251    1.281   .     A
O247   Zn253   1.950   .     S
O248   C252    1.281   .     A
O248   Zn254   1.950   .     S
O249   C252    1.281   .     A
O249   Zn253   1.951   .     S
O250   C251    1.281   .     A
O250   Zn254   1.951   .     S
C251   C255    1.367   .     S
C252   C256    1.367   .     S
Zn253  N267    2.021   .     S
Zn254  N268    2.021   .     S
C255   C1120   1.166   1_554 S
C256   C687    1.166   .     S
C257   C269    1.454   .     S
C257   C262    1.412   .     A
C258   C261    1.412   .     A
C258   C271    1.454   .     S
C258   C164    1.382   1_655 S
C259   C273    1.455   .     S
C259   C261    1.411   .     A
C259   C161    1.382   1_655 S
C260   C262    1.411   .     A
C260   C275    1.455   .     S
C263   N268    1.370   .     A
C263   N277    1.428   .     S
C264   N267    1.370   .     A
C264   N280    1.428   .     S
C264   C409    1.423   .     S
C265   N283    1.428   .     S
C265   N268    1.372   .     A
C266   N267    1.372   .     A
C266   N286    1.428   .     S
C266   C407    1.423   .     S
C269   N270    1.157   .     T
C271   N272    1.157   .     T
C273   N274    1.157   .     T
C275   N276    1.157   .     T
N277   O278    1.300   .     A
N277   O279    1.300   .     A
N280   O282    1.300   .     A
N280   O281    1.300   .     A
N283   O284    1.299   .     A
N283   O285    1.300   .     A
N286   O288    1.300   .     A
N286   O287    1.299   .     A
O289   C293    1.295   .     A
O289   Zn301   2.011   .     S
O290   C294    1.295   .     A
O290   Zn302   2.011   .     S
O291   Zn301   2.018   .     S
O291   C294    1.293   .     A
O292   Zn302   2.018   .     S
O292   C293    1.293   .     A
C293   C310    1.449   .     S
C294   C309    1.449   .     S
O295   C299    1.281   .     A
O295   Zn301   1.950   .     S
O296   C300    1.281   .     A
O296   Zn302   1.950   .     S
O297   C300    1.281   .     A
O297   Zn301   1.951   .     S
O298   C299    1.281   .     A
O298   Zn302   1.951   .     S
C299   C303    1.367   .     S
C300   C304    1.367   .     S
Zn301  N315    2.021   .     S
Zn302  N316    2.021   .     S
C303   C1168   1.166   1_554 S
C304   C735    1.166   .     S
C305   C317    1.454   .     S
C305   C310    1.412   .     A
C305   C403    1.382   1_455 S
C306   C309    1.412   .     A
C306   C319    1.454   .     S
C306   C356    1.382   .     S
C307   C321    1.455   .     S
C307   C309    1.411   .     A
C307   C353    1.382   .     S
C308   C310    1.411   .     A
C308   C323    1.455   .     S
C308   C402    1.382   1_455 S
C311   N316    1.370   .     A
C311   N325    1.428   .     S
C312   N315    1.370   .     A
C312   N328    1.428   .     S
C312   C25     1.423   1_565 S
C313   N331    1.428   .     S
C313   N316    1.372   .     A
C314   N315    1.372   .     A
C314   N334    1.428   .     S
C314   C23     1.423   1_565 S
C317   N318    1.157   .     T
C319   N320    1.157   .     T
C321   N322    1.157   .     T
C323   N324    1.157   .     T
N325   O326    1.300   .     A
N325   O327    1.300   .     A
N328   O330    1.300   .     A
N328   O329    1.300   .     A
N331   O332    1.299   .     A
N331   O333    1.300   .     A
N334   O336    1.300   .     A
N334   O335    1.299   .     A
O337   C341    1.295   .     A
O337   Zn349   2.011   .     S
O338   C342    1.295   .     A
O338   Zn350   2.011   .     S
O339   Zn349   2.018   .     S
O339   C342    1.293   .     A
O340   Zn350   2.018   .     S
O340   C341    1.293   .     A
C341   C358    1.449   .     S
C342   C357    1.449   .     S
O343   C347    1.281   .     A
O343   Zn349   1.950   .     S
O344   C348    1.281   .     A
O344   Zn350   1.950   .     S
O345   C348    1.281   .     A
O345   Zn349   1.951   .     S
O346   C347    1.281   .     A
O346   Zn350   1.951   .     S
C347   C351    1.367   .     S
C348   C352    1.367   .     S
Zn349  N363    2.021   .     S
Zn350  N364    2.021   .     S
C351   C1216   1.166   1_554 S
C352   C783    1.166   .     S
C353   C365    1.454   .     S
C353   C358    1.412   .     A
C354   C357    1.412   .     A
C354   C367    1.454   .     S
C354   C404    1.382   .     S
C355   C369    1.455   .     S
C355   C357    1.411   .     A
C355   C401    1.382   .     S
C356   C358    1.411   .     A
C356   C371    1.455   .     S
C359   N364    1.370   .     A
C359   N373    1.428   .     S
C360   N363    1.370   .     A
C360   N376    1.428   .     S
C360   C73     1.423   1_565 S
C361   N379    1.428   .     S
C361   N364    1.372   .     A
C362   N363    1.372   .     A
C362   N382    1.428   .     S
C362   C71     1.423   1_565 S
C365   N366    1.157   .     T
C367   N368    1.157   .     T
C369   N370    1.157   .     T
C371   N372    1.157   .     T
N373   O374    1.300   .     A
N373   O375    1.300   .     A
N376   O378    1.300   .     A
N376   O377    1.300   .     A
N379   O380    1.299   .     A
N379   O381    1.300   .     A
N382   O384    1.300   .     A
N382   O383    1.299   .     A
O385   C389    1.295   .     A
O385   Zn397   2.011   .     S
O386   C390    1.295   .     A
O386   Zn398   2.011   .     S
O387   Zn397   2.018   .     S
O387   C390    1.293   .     A
O388   Zn398   2.018   .     S
O388   C389    1.293   .     A
C389   C406    1.449   .     S
C390   C405    1.449   .     S
O391   C395    1.281   .     A
O391   Zn397   1.950   .     S
O392   C396    1.281   .     A
O392   Zn398   1.950   .     S
O393   C396    1.281   .     A
O393   Zn397   1.951   .     S
O394   C395    1.281   .     A
O394   Zn398   1.951   .     S
C395   C399    1.367   .     S
C396   C400    1.367   .     S
Zn397  N411    2.021   .     S
Zn398  N412    2.021   .     S
C399   C1264   1.166   1_554 S
C400   C831    1.166   .     S
C401   C413    1.454   .     S
C401   C406    1.412   .     A
C402   C405    1.412   .     A
C402   C415    1.454   .     S
C402   C308    1.382   1_655 S
C403   C417    1.455   .     S
C403   C405    1.411   .     A
C403   C305    1.382   1_655 S
C404   C406    1.411   .     A
C404   C419    1.455   .     S
C407   N412    1.370   .     A
C407   N421    1.428   .     S
C408   N411    1.370   .     A
C408   N424    1.428   .     S
C408   C121    1.423   1_565 S
C409   N427    1.428   .     S
C409   N412    1.372   .     A
C410   N411    1.372   .     A
C410   N430    1.428   .     S
C410   C119    1.423   1_565 S
C413   N414    1.157   .     T
C415   N416    1.157   .     T
C417   N418    1.157   .     T
C419   N420    1.157   .     T
N421   O422    1.300   .     A
N421   O423    1.300   .     A
N424   O426    1.300   .     A
N424   O425    1.300   .     A
N427   O428    1.299   .     A
N427   O429    1.300   .     A
N430   O432    1.300   .     A
N430   O431    1.299   .     A
O433   C437    1.295   .     A
O433   Zn445   2.011   .     S
O434   C438    1.295   .     A
O434   Zn446   2.011   .     S
O435   Zn445   2.018   .     S
O435   C438    1.293   .     A
O436   Zn446   2.018   .     S
O436   C437    1.293   .     A
C437   C454    1.449   .     S
C438   C453    1.449   .     S
O439   C443    1.281   .     A
O439   Zn445   1.950   .     S
O440   C444    1.281   .     A
O440   Zn446   1.950   .     S
O441   C444    1.281   .     A
O441   Zn445   1.951   .     S
O442   C443    1.281   .     A
O442   Zn446   1.951   .     S
C443   C447    1.367   .     S
C444   C448    1.367   .     S
Zn445  N459    2.021   .     S
Zn446  N460    2.021   .     S
C448   C879    1.166   .     S
C449   C461    1.454   .     S
C449   C454    1.412   .     A
C449   C547    1.382   1_455 S
C450   C453    1.412   .     A
C450   C463    1.454   .     S
C450   C500    1.382   .     S
C451   C465    1.455   .     S
C451   C453    1.411   .     A
C451   C497    1.382   .     S
C452   C454    1.411   .     A
C452   C467    1.455   .     S
C452   C546    1.382   1_455 S
C455   N460    1.370   .     A
C455   N469    1.428   .     S
C455   C746    1.423   1_545 S
C456   N459    1.370   .     A
C456   N472    1.428   .     S
C456   C601    1.423   .     S
C457   N475    1.428   .     S
C457   N460    1.372   .     A
C457   C744    1.423   1_545 S
C458   N459    1.372   .     A
C458   N478    1.428   .     S
C458   C599    1.423   .     S
C461   N462    1.157   .     T
C463   N464    1.157   .     T
C465   N466    1.157   .     T
C467   N468    1.157   .     T
N469   O470    1.300   .     A
N469   O471    1.300   .     A
N472   O474    1.300   .     A
N472   O473    1.300   .     A
N475   O476    1.299   .     A
N475   O477    1.300   .     A
N478   O480    1.300   .     A
N478   O479    1.299   .     A
O481   C485    1.295   .     A
O481   Zn493   2.011   .     S
O482   C486    1.295   .     A
O482   Zn494   2.011   .     S
O483   Zn493   2.018   .     S
O483   C486    1.293   .     A
O484   Zn494   2.018   .     S
O484   C485    1.293   .     A
C485   C502    1.449   .     S
C486   C501    1.449   .     S
O487   C491    1.281   .     A
O487   Zn493   1.950   .     S
O488   C492    1.281   .     A
O488   Zn494   1.950   .     S
O489   C492    1.281   .     A
O489   Zn493   1.951   .     S
O490   C491    1.281   .     A
O490   Zn494   1.951   .     S
C491   C495    1.367   .     S
C492   C496    1.367   .     S
Zn493  N507    2.021   .     S
Zn494  N508    2.021   .     S
C496   C927    1.166   .     S
C497   C509    1.454   .     S
C497   C502    1.412   .     A
C498   C501    1.412   .     A
C498   C511    1.454   .     S
C498   C548    1.382   .     S
C499   C513    1.455   .     S
C499   C501    1.411   .     A
C499   C545    1.382   .     S
C500   C502    1.411   .     A
C500   C515    1.455   .     S
C503   N508    1.370   .     A
C503   N517    1.428   .     S
C503   C794    1.423   1_545 S
C504   N507    1.370   .     A
C504   N520    1.428   .     S
C504   C649    1.423   .     S
C505   N523    1.428   .     S
C505   N508    1.372   .     A
C505   C792    1.423   1_545 S
C506   N507    1.372   .     A
C506   N526    1.428   .     S
C506   C647    1.423   .     S
C509   N510    1.157   .     T
C511   N512    1.157   .     T
C513   N514    1.157   .     T
C515   N516    1.157   .     T
N517   O518    1.300   .     A
N517   O519    1.300   .     A
N520   O522    1.300   .     A
N520   O521    1.300   .     A
N523   O524    1.299   .     A
N523   O525    1.300   .     A
N526   O528    1.300   .     A
N526   O527    1.299   .     A
O529   C533    1.295   .     A
O529   Zn541   2.011   .     S
O530   C534    1.295   .     A
O530   Zn542   2.011   .     S
O531   Zn541   2.018   .     S
O531   C534    1.293   .     A
O532   Zn542   2.018   .     S
O532   C533    1.293   .     A
C533   C550    1.449   .     S
C534   C549    1.449   .     S
O535   C539    1.281   .     A
O535   Zn541   1.950   .     S
O536   C540    1.281   .     A
O536   Zn542   1.950   .     S
O537   C540    1.281   .     A
O537   Zn541   1.951   .     S
O538   C539    1.281   .     A
O538   Zn542   1.951   .     S
C539   C543    1.367   .     S
C540   C544    1.367   .     S
Zn541  N555    2.021   .     S
Zn542  N556    2.021   .     S
C544   C975    1.166   .     S
C545   C557    1.454   .     S
C545   C550    1.412   .     A
C546   C549    1.412   .     A
C546   C559    1.454   .     S
C546   C452    1.382   1_655 S
C547   C561    1.455   .     S
C547   C549    1.411   .     A
C547   C449    1.382   1_655 S
C548   C550    1.411   .     A
C548   C563    1.455   .     S
C551   N556    1.370   .     A
C551   N565    1.428   .     S
C551   C842    1.423   1_545 S
C552   N555    1.370   .     A
C552   N568    1.428   .     S
C552   C697    1.423   .     S
C553   N571    1.428   .     S
C553   N556    1.372   .     A
C553   C840    1.423   1_545 S
C554   N555    1.372   .     A
C554   N574    1.428   .     S
C554   C695    1.423   .     S
C557   N558    1.157   .     T
C559   N560    1.157   .     T
C561   N562    1.157   .     T
C563   N564    1.157   .     T
N565   O566    1.300   .     A
N565   O567    1.300   .     A
N568   O570    1.300   .     A
N568   O569    1.300   .     A
N571   O572    1.299   .     A
N571   O573    1.300   .     A
N574   O576    1.300   .     A
N574   O575    1.299   .     A
O577   C581    1.295   .     A
O577   Zn589   2.011   .     S
O578   C582    1.295   .     A
O578   Zn590   2.011   .     S
O579   Zn589   2.018   .     S
O579   C582    1.293   .     A
O580   Zn590   2.018   .     S
O580   C581    1.293   .     A
C581   C598    1.449   .     S
C582   C597    1.449   .     S
O583   C587    1.281   .     A
O583   Zn589   1.950   .     S
O584   C588    1.281   .     A
O584   Zn590   1.950   .     S
O585   C588    1.281   .     A
O585   Zn589   1.951   .     S
O586   C587    1.281   .     A
O586   Zn590   1.951   .     S
C587   C591    1.367   .     S
C588   C592    1.367   .     S
Zn589  N603    2.021   .     S
Zn590  N604    2.021   .     S
C592   C1023   1.166   .     S
C593   C605    1.454   .     S
C593   C598    1.412   .     A
C593   C691    1.382   1_455 S
C594   C597    1.412   .     A
C594   C607    1.454   .     S
C594   C644    1.382   .     S
C595   C609    1.455   .     S
C595   C597    1.411   .     A
C595   C641    1.382   .     S
C596   C598    1.411   .     A
C596   C611    1.455   .     S
C596   C690    1.382   1_455 S
C599   N604    1.370   .     A
C599   N613    1.428   .     S
C600   N603    1.370   .     A
C600   N616    1.428   .     S
C600   C745    1.423   .     S
C601   N619    1.428   .     S
C601   N604    1.372   .     A
C602   N603    1.372   .     A
C602   N622    1.428   .     S
C602   C743    1.423   .     S
C605   N606    1.157   .     T
C607   N608    1.157   .     T
C609   N610    1.157   .     T
C611   N612    1.157   .     T
N613   O614    1.300   .     A
N613   O615    1.300   .     A
N616   O618    1.300   .     A
N616   O617    1.300   .     A
N619   O620    1.299   .     A
N619   O621    1.300   .     A
N622   O624    1.300   .     A
N622   O623    1.299   .     A
O625   C629    1.295   .     A
O625   Zn637   2.011   .     S
O626   C630    1.295   .     A
O626   Zn638   2.011   .     S
O627   Zn637   2.018   .     S
O627   C630    1.293   .     A
O628   Zn638   2.018   .     S
O628   C629    1.293   .     A
C629   C646    1.449   .     S
C630   C645    1.449   .     S
O631   C635    1.281   .     A
O631   Zn637   1.950   .     S
O632   C636    1.281   .     A
O632   Zn638   1.950   .     S
O633   C636    1.281   .     A
O633   Zn637   1.951   .     S
O634   C635    1.281   .     A
O634   Zn638   1.951   .     S
C635   C639    1.367   .     S
C636   C640    1.367   .     S
Zn637  N651    2.021   .     S
Zn638  N652    2.021   .     S
C640   C1071   1.166   .     S
C641   C653    1.454   .     S
C641   C646    1.412   .     A
C642   C645    1.412   .     A
C642   C655    1.454   .     S
C642   C692    1.382   .     S
C643   C657    1.455   .     S
C643   C645    1.411   .     A
C643   C689    1.382   .     S
C644   C646    1.411   .     A
C644   C659    1.455   .     S
C647   N652    1.370   .     A
C647   N661    1.428   .     S
C648   N651    1.370   .     A
C648   N664    1.428   .     S
C648   C793    1.423   .     S
C649   N667    1.428   .     S
C649   N652    1.372   .     A
C650   N651    1.372   .     A
C650   N670    1.428   .     S
C650   C791    1.423   .     S
C653   N654    1.157   .     T
C655   N656    1.157   .     T
C657   N658    1.157   .     T
C659   N660    1.157   .     T
N661   O662    1.300   .     A
N661   O663    1.300   .     A
N664   O666    1.300   .     A
N664   O665    1.300   .     A
N667   O668    1.299   .     A
N667   O669    1.300   .     A
N670   O672    1.300   .     A
N670   O671    1.299   .     A
O673   C677    1.295   .     A
O673   Zn685   2.011   .     S
O674   C678    1.295   .     A
O674   Zn686   2.011   .     S
O675   Zn685   2.018   .     S
O675   C678    1.293   .     A
O676   Zn686   2.018   .     S
O676   C677    1.293   .     A
C677   C694    1.449   .     S
C678   C693    1.449   .     S
O679   C683    1.281   .     A
O679   Zn685   1.950   .     S
O680   C684    1.281   .     A
O680   Zn686   1.950   .     S
O681   C684    1.281   .     A
O681   Zn685   1.951   .     S
O682   C683    1.281   .     A
O682   Zn686   1.951   .     S
C683   C687    1.367   .     S
C684   C688    1.367   .     S
Zn685  N699    2.021   .     S
Zn686  N700    2.021   .     S
C688   C1119   1.166   .     S
C689   C701    1.454   .     S
C689   C694    1.412   .     A
C690   C693    1.412   .     A
C690   C703    1.454   .     S
C690   C596    1.382   1_655 S
C691   C705    1.455   .     S
C691   C693    1.411   .     A
C691   C593    1.382   1_655 S
C692   C694    1.411   .     A
C692   C707    1.455   .     S
C695   N700    1.370   .     A
C695   N709    1.428   .     S
C696   N699    1.370   .     A
C696   N712    1.428   .     S
C696   C841    1.423   .     S
C697   N715    1.428   .     S
C697   N700    1.372   .     A
C698   N699    1.372   .     A
C698   N718    1.428   .     S
C698   C839    1.423   .     S
C701   N702    1.157   .     T
C703   N704    1.157   .     T
C705   N706    1.157   .     T
C707   N708    1.157   .     T
N709   O710    1.300   .     A
N709   O711    1.300   .     A
N712   O714    1.300   .     A
N712   O713    1.300   .     A
N715   O716    1.299   .     A
N715   O717    1.300   .     A
N718   O720    1.300   .     A
N718   O719    1.299   .     A
O721   C725    1.295   .     A
O721   Zn733   2.011   .     S
O722   C726    1.295   .     A
O722   Zn734   2.011   .     S
O723   Zn733   2.018   .     S
O723   C726    1.293   .     A
O724   Zn734   2.018   .     S
O724   C725    1.293   .     A
C725   C742    1.449   .     S
C726   C741    1.449   .     S
O727   C731    1.281   .     A
O727   Zn733   1.950   .     S
O728   C732    1.281   .     A
O728   Zn734   1.950   .     S
O729   C732    1.281   .     A
O729   Zn733   1.951   .     S
O730   C731    1.281   .     A
O730   Zn734   1.951   .     S
C731   C735    1.367   .     S
C732   C736    1.367   .     S
Zn733  N747    2.021   .     S
Zn734  N748    2.021   .     S
C736   C1167   1.166   .     S
C737   C749    1.454   .     S
C737   C742    1.412   .     A
C737   C835    1.382   1_455 S
C738   C741    1.412   .     A
C738   C751    1.454   .     S
C738   C788    1.382   .     S
C739   C753    1.455   .     S
C739   C741    1.411   .     A
C739   C785    1.382   .     S
C740   C742    1.411   .     A
C740   C755    1.455   .     S
C740   C834    1.382   1_455 S
C743   N748    1.370   .     A
C743   N757    1.428   .     S
C744   N747    1.370   .     A
C744   N760    1.428   .     S
C744   C457    1.423   1_565 S
C745   N763    1.428   .     S
C745   N748    1.372   .     A
C746   N747    1.372   .     A
C746   N766    1.428   .     S
C746   C455    1.423   1_565 S
C749   N750    1.157   .     T
C751   N752    1.157   .     T
C753   N754    1.157   .     T
C755   N756    1.157   .     T
N757   O758    1.300   .     A
N757   O759    1.300   .     A
N760   O762    1.300   .     A
N760   O761    1.300   .     A
N763   O764    1.299   .     A
N763   O765    1.300   .     A
N766   O768    1.300   .     A
N766   O767    1.299   .     A
O769   C773    1.295   .     A
O769   Zn781   2.011   .     S
O770   C774    1.295   .     A
O770   Zn782   2.011   .     S
O771   Zn781   2.018   .     S
O771   C774    1.293   .     A
O772   Zn782   2.018   .     S
O772   C773    1.293   .     A
C773   C790    1.449   .     S
C774   C789    1.449   .     S
O775   C779    1.281   .     A
O775   Zn781   1.950   .     S
O776   C780    1.281   .     A
O776   Zn782   1.950   .     S
O777   C780    1.281   .     A
O777   Zn781   1.951   .     S
O778   C779    1.281   .     A
O778   Zn782   1.951   .     S
C779   C783    1.367   .     S
C780   C784    1.367   .     S
Zn781  N795    2.021   .     S
Zn782  N796    2.021   .     S
C784   C1215   1.166   .     S
C785   C797    1.454   .     S
C785   C790    1.412   .     A
C786   C789    1.412   .     A
C786   C799    1.454   .     S
C786   C836    1.382   .     S
C787   C801    1.455   .     S
C787   C789    1.411   .     A
C787   C833    1.382   .     S
C788   C790    1.411   .     A
C788   C803    1.455   .     S
C791   N796    1.370   .     A
C791   N805    1.428   .     S
C792   N795    1.370   .     A
C792   N808    1.428   .     S
C792   C505    1.423   1_565 S
C793   N811    1.428   .     S
C793   N796    1.372   .     A
C794   N795    1.372   .     A
C794   N814    1.428   .     S
C794   C503    1.423   1_565 S
C797   N798    1.157   .     T
C799   N800    1.157   .     T
C801   N802    1.157   .     T
C803   N804    1.157   .     T
N805   O806    1.300   .     A
N805   O807    1.300   .     A
N808   O810    1.300   .     A
N808   O809    1.300   .     A
N811   O812    1.299   .     A
N811   O813    1.300   .     A
N814   O816    1.300   .     A
N814   O815    1.299   .     A
O817   C821    1.295   .     A
O817   Zn829   2.011   .     S
O818   C822    1.295   .     A
O818   Zn830   2.011   .     S
O819   Zn829   2.018   .     S
O819   C822    1.293   .     A
O820   Zn830   2.018   .     S
O820   C821    1.293   .     A
C821   C838    1.449   .     S
C822   C837    1.449   .     S
O823   C827    1.281   .     A
O823   Zn829   1.950   .     S
O824   C828    1.281   .     A
O824   Zn830   1.950   .     S
O825   C828    1.281   .     A
O825   Zn829   1.951   .     S
O826   C827    1.281   .     A
O826   Zn830   1.951   .     S
C827   C831    1.367   .     S
C828   C832    1.367   .     S
Zn829  N843    2.021   .     S
Zn830  N844    2.021   .     S
C832   C1263   1.166   .     S
C833   C845    1.454   .     S
C833   C838    1.412   .     A
C834   C837    1.412   .     A
C834   C847    1.454   .     S
C834   C740    1.382   1_655 S
C835   C849    1.455   .     S
C835   C837    1.411   .     A
C835   C737    1.382   1_655 S
C836   C838    1.411   .     A
C836   C851    1.455   .     S
C839   N844    1.370   .     A
C839   N853    1.428   .     S
C840   N843    1.370   .     A
C840   N856    1.428   .     S
C840   C553    1.423   1_565 S
C841   N859    1.428   .     S
C841   N844    1.372   .     A
C842   N843    1.372   .     A
C842   N862    1.428   .     S
C842   C551    1.423   1_565 S
C845   N846    1.157   .     T
C847   N848    1.157   .     T
C849   N850    1.157   .     T
C851   N852    1.157   .     T
N853   O854    1.300   .     A
N853   O855    1.300   .     A
N856   O858    1.300   .     A
N856   O857    1.300   .     A
N859   O860    1.299   .     A
N859   O861    1.300   .     A
N862   O864    1.300   .     A
N862   O863    1.299   .     A
O865   C869    1.295   .     A
O865   Zn877   2.011   .     S
O866   C870    1.295   .     A
O866   Zn878   2.011   .     S
O867   Zn877   2.018   .     S
O867   C870    1.293   .     A
O868   Zn878   2.018   .     S
O868   C869    1.293   .     A
C869   C886    1.449   .     S
C870   C885    1.449   .     S
O871   C875    1.281   .     A
O871   Zn877   1.950   .     S
O872   C876    1.281   .     A
O872   Zn878   1.950   .     S
O873   C876    1.281   .     A
O873   Zn877   1.951   .     S
O874   C875    1.281   .     A
O874   Zn878   1.951   .     S
C875   C879    1.367   .     S
C876   C880    1.367   .     S
Zn877  N891    2.021   .     S
Zn878  N892    2.021   .     S
C880   C15     1.166   1_556 S
C881   C893    1.454   .     S
C881   C886    1.412   .     A
C881   C979    1.382   1_455 S
C882   C885    1.412   .     A
C882   C895    1.454   .     S
C882   C932    1.382   .     S
C883   C897    1.455   .     S
C883   C885    1.411   .     A
C883   C929    1.382   .     S
C884   C886    1.411   .     A
C884   C899    1.455   .     S
C884   C978    1.382   1_455 S
C887   N892    1.370   .     A
C887   N901    1.428   .     S
C887   C1178   1.423   1_545 S
C888   N891    1.370   .     A
C888   N904    1.428   .     S
C888   C1033   1.423   .     S
C889   N907    1.428   .     S
C889   N892    1.372   .     A
C889   C1176   1.423   1_545 S
C890   N891    1.372   .     A
C890   N910    1.428   .     S
C890   C1031   1.423   .     S
C893   N894    1.157   .     T
C895   N896    1.157   .     T
C897   N898    1.157   .     T
C899   N900    1.157   .     T
N901   O902    1.300   .     A
N901   O903    1.300   .     A
N904   O906    1.300   .     A
N904   O905    1.300   .     A
N907   O908    1.299   .     A
N907   O909    1.300   .     A
N910   O912    1.300   .     A
N910   O911    1.299   .     A
O913   C917    1.295   .     A
O913   Zn925   2.011   .     S
O914   C918    1.295   .     A
O914   Zn926   2.011   .     S
O915   Zn925   2.018   .     S
O915   C918    1.293   .     A
O916   Zn926   2.018   .     S
O916   C917    1.293   .     A
C917   C934    1.449   .     S
C918   C933    1.449   .     S
O919   C923    1.281   .     A
O919   Zn925   1.950   .     S
O920   C924    1.281   .     A
O920   Zn926   1.950   .     S
O921   C924    1.281   .     A
O921   Zn925   1.951   .     S
O922   C923    1.281   .     A
O922   Zn926   1.951   .     S
C923   C927    1.367   .     S
C924   C928    1.367   .     S
Zn925  N939    2.021   .     S
Zn926  N940    2.021   .     S
C928   C63     1.166   1_556 S
C929   C941    1.454   .     S
C929   C934    1.412   .     A
C930   C933    1.412   .     A
C930   C943    1.454   .     S
C930   C980    1.382   .     S
C931   C945    1.455   .     S
C931   C933    1.411   .     A
C931   C977    1.382   .     S
C932   C934    1.411   .     A
C932   C947    1.455   .     S
C935   N940    1.370   .     A
C935   N949    1.428   .     S
C935   C1226   1.423   1_545 S
C936   N939    1.370   .     A
C936   N952    1.428   .     S
C936   C1081   1.423   .     S
C937   N955    1.428   .     S
C937   N940    1.372   .     A
C937   C1224   1.423   1_545 S
C938   N939    1.372   .     A
C938   N958    1.428   .     S
C938   C1079   1.423   .     S
C941   N942    1.157   .     T
C943   N944    1.157   .     T
C945   N946    1.157   .     T
C947   N948    1.157   .     T
N949   O950    1.300   .     A
N949   O951    1.300   .     A
N952   O954    1.300   .     A
N952   O953    1.300   .     A
N955   O956    1.299   .     A
N955   O957    1.300   .     A
N958   O960    1.300   .     A
N958   O959    1.299   .     A
O961   C965    1.295   .     A
O961   Zn973   2.011   .     S
O962   C966    1.295   .     A
O962   Zn974   2.011   .     S
O963   Zn973   2.018   .     S
O963   C966    1.293   .     A
O964   Zn974   2.018   .     S
O964   C965    1.293   .     A
C965   C982    1.449   .     S
C966   C981    1.449   .     S
O967   C971    1.281   .     A
O967   Zn973   1.950   .     S
O968   C972    1.281   .     A
O968   Zn974   1.950   .     S
O969   C972    1.281   .     A
O969   Zn973   1.951   .     S
O970   C971    1.281   .     A
O970   Zn974   1.951   .     S
C971   C975    1.367   .     S
C972   C976    1.367   .     S
Zn973  N987    2.021   .     S
Zn974  N988    2.021   .     S
C976   C111    1.166   1_556 S
C977   C989    1.454   .     S
C977   C982    1.412   .     A
C978   C981    1.412   .     A
C978   C991    1.454   .     S
C978   C884    1.382   1_655 S
C979   C993    1.455   .     S
C979   C981    1.411   .     A
C979   C881    1.382   1_655 S
C980   C982    1.411   .     A
C980   C995    1.455   .     S
C983   N988    1.370   .     A
C983   N997    1.428   .     S
C983   C1274   1.423   1_545 S
C984   N987    1.370   .     A
C984   N1000   1.428   .     S
C984   C1129   1.423   .     S
C985   N1003   1.428   .     S
C985   N988    1.372   .     A
C985   C1272   1.423   1_545 S
C986   N987    1.372   .     A
C986   N1006   1.428   .     S
C986   C1127   1.423   .     S
C989   N990    1.157   .     T
C991   N992    1.157   .     T
C993   N994    1.157   .     T
C995   N996    1.157   .     T
N997   O998    1.300   .     A
N997   O999    1.300   .     A
N1000  O1002   1.300   .     A
N1000  O1001   1.300   .     A
N1003  O1004   1.299   .     A
N1003  O1005   1.300   .     A
N1006  O1008   1.300   .     A
N1006  O1007   1.299   .     A
O1009  C1013   1.295   .     A
O1009  Zn1021  2.011   .     S
O1010  C1014   1.295   .     A
O1010  Zn1022  2.011   .     S
O1011  Zn1021  2.018   .     S
O1011  C1014   1.293   .     A
O1012  Zn1022  2.018   .     S
O1012  C1013   1.293   .     A
C1013  C1030   1.449   .     S
C1014  C1029   1.449   .     S
O1015  C1019   1.281   .     A
O1015  Zn1021  1.950   .     S
O1016  C1020   1.281   .     A
O1016  Zn1022  1.950   .     S
O1017  C1020   1.281   .     A
O1017  Zn1021  1.951   .     S
O1018  C1019   1.281   .     A
O1018  Zn1022  1.951   .     S
C1019  C1023   1.367   .     S
C1020  C1024   1.367   .     S
Zn1021 N1035   2.021   .     S
Zn1022 N1036   2.021   .     S
C1024  C159    1.166   1_556 S
C1025  C1037   1.454   .     S
C1025  C1030   1.412   .     A
C1025  C1123   1.382   1_455 S
C1026  C1029   1.412   .     A
C1026  C1039   1.454   .     S
C1026  C1076   1.382   .     S
C1027  C1041   1.455   .     S
C1027  C1029   1.411   .     A
C1027  C1073   1.382   .     S
C1028  C1030   1.411   .     A
C1028  C1043   1.455   .     S
C1028  C1122   1.382   1_455 S
C1031  N1036   1.370   .     A
C1031  N1045   1.428   .     S
C1032  N1035   1.370   .     A
C1032  N1048   1.428   .     S
C1032  C1177   1.423   .     S
C1033  N1051   1.428   .     S
C1033  N1036   1.372   .     A
C1034  N1035   1.372   .     A
C1034  N1054   1.428   .     S
C1034  C1175   1.423   .     S
C1037  N1038   1.157   .     T
C1039  N1040   1.157   .     T
C1041  N1042   1.157   .     T
C1043  N1044   1.157   .     T
N1045  O1046   1.300   .     A
N1045  O1047   1.300   .     A
N1048  O1050   1.300   .     A
N1048  O1049   1.300   .     A
N1051  O1052   1.299   .     A
N1051  O1053   1.300   .     A
N1054  O1056   1.300   .     A
N1054  O1055   1.299   .     A
O1057  C1061   1.295   .     A
O1057  Zn1069  2.011   .     S
O1058  C1062   1.295   .     A
O1058  Zn1070  2.011   .     S
O1059  Zn1069  2.018   .     S
O1059  C1062   1.293   .     A
O1060  Zn1070  2.018   .     S
O1060  C1061   1.293   .     A
C1061  C1078   1.449   .     S
C1062  C1077   1.449   .     S
O1063  C1067   1.281   .     A
O1063  Zn1069  1.950   .     S
O1064  C1068   1.281   .     A
O1064  Zn1070  1.950   .     S
O1065  C1068   1.281   .     A
O1065  Zn1069  1.951   .     S
O1066  C1067   1.281   .     A
O1066  Zn1070  1.951   .     S
C1067  C1071   1.367   .     S
C1068  C1072   1.367   .     S
Zn1069 N1083   2.021   .     S
Zn1070 N1084   2.021   .     S
C1072  C207    1.166   1_556 S
C1073  C1085   1.454   .     S
C1073  C1078   1.412   .     A
C1074  C1077   1.412   .     A
C1074  C1087   1.454   .     S
C1074  C1124   1.382   .     S
C1075  C1089   1.455   .     S
C1075  C1077   1.411   .     A
C1075  C1121   1.382   .     S
C1076  C1078   1.411   .     A
C1076  C1091   1.455   .     S
C1079  N1084   1.370   .     A
C1079  N1093   1.428   .     S
C1080  N1083   1.370   .     A
C1080  N1096   1.428   .     S
C1080  C1225   1.423   .     S
C1081  N1099   1.428   .     S
C1081  N1084   1.372   .     A
C1082  N1083   1.372   .     A
C1082  N1102   1.428   .     S
C1082  C1223   1.423   .     S
C1085  N1086   1.157   .     T
C1087  N1088   1.157   .     T
C1089  N1090   1.157   .     T
C1091  N1092   1.157   .     T
N1093  O1094   1.300   .     A
N1093  O1095   1.300   .     A
N1096  O1098   1.300   .     A
N1096  O1097   1.300   .     A
N1099  O1100   1.299   .     A
N1099  O1101   1.300   .     A
N1102  O1104   1.300   .     A
N1102  O1103   1.299   .     A
O1105  C1109   1.295   .     A
O1105  Zn1117  2.011   .     S
O1106  C1110   1.295   .     A
O1106  Zn1118  2.011   .     S
O1107  Zn1117  2.018   .     S
O1107  C1110   1.293   .     A
O1108  Zn1118  2.018   .     S
O1108  C1109   1.293   .     A
C1109  C1126   1.449   .     S
C1110  C1125   1.449   .     S
O1111  C1115   1.281   .     A
O1111  Zn1117  1.950   .     S
O1112  C1116   1.281   .     A
O1112  Zn1118  1.950   .     S
O1113  C1116   1.281   .     A
O1113  Zn1117  1.951   .     S
O1114  C1115   1.281   .     A
O1114  Zn1118  1.951   .     S
C1115  C1119   1.367   .     S
C1116  C1120   1.367   .     S
Zn1117 N1131   2.021   .     S
Zn1118 N1132   2.021   .     S
C1120  C255    1.166   1_556 S
C1121  C1133   1.454   .     S
C1121  C1126   1.412   .     A
C1122  C1125   1.412   .     A
C1122  C1135   1.454   .     S
C1122  C1028   1.382   1_655 S
C1123  C1137   1.455   .     S
C1123  C1125   1.411   .     A
C1123  C1025   1.382   1_655 S
C1124  C1126   1.411   .     A
C1124  C1139   1.455   .     S
C1127  N1132   1.370   .     A
C1127  N1141   1.428   .     S
C1128  N1131   1.370   .     A
C1128  N1144   1.428   .     S
C1128  C1273   1.423   .     S
C1129  N1147   1.428   .     S
C1129  N1132   1.372   .     A
C1130  N1131   1.372   .     A
C1130  N1150   1.428   .     S
C1130  C1271   1.423   .     S
C1133  N1134   1.157   .     T
C1135  N1136   1.157   .     T
C1137  N1138   1.157   .     T
C1139  N1140   1.157   .     T
N1141  O1142   1.300   .     A
N1141  O1143   1.300   .     A
N1144  O1146   1.300   .     A
N1144  O1145   1.300   .     A
N1147  O1148   1.299   .     A
N1147  O1149   1.300   .     A
N1150  O1152   1.300   .     A
N1150  O1151   1.299   .     A
O1153  C1157   1.295   .     A
O1153  Zn1165  2.011   .     S
O1154  C1158   1.295   .     A
O1154  Zn1166  2.011   .     S
O1155  Zn1165  2.018   .     S
O1155  C1158   1.293   .     A
O1156  Zn1166  2.018   .     S
O1156  C1157   1.293   .     A
C1157  C1174   1.449   .     S
C1158  C1173   1.449   .     S
O1159  C1163   1.281   .     A
O1159  Zn1165  1.950   .     S
O1160  C1164   1.281   .     A
O1160  Zn1166  1.950   .     S
O1161  C1164   1.281   .     A
O1161  Zn1165  1.951   .     S
O1162  C1163   1.281   .     A
O1162  Zn1166  1.951   .     S
C1163  C1167   1.367   .     S
C1164  C1168   1.367   .     S
Zn1165 N1179   2.021   .     S
Zn1166 N1180   2.021   .     S
C1168  C303    1.166   1_556 S
C1169  C1181   1.454   .     S
C1169  C1174   1.412   .     A
C1169  C1267   1.382   1_455 S
C1170  C1173   1.412   .     A
C1170  C1183   1.454   .     S
C1170  C1220   1.382   .     S
C1171  C1185   1.455   .     S
C1171  C1173   1.411   .     A
C1171  C1217   1.382   .     S
C1172  C1174   1.411   .     A
C1172  C1187   1.455   .     S
C1172  C1266   1.382   1_455 S
C1175  N1180   1.370   .     A
C1175  N1189   1.428   .     S
C1176  N1179   1.370   .     A
C1176  N1192   1.428   .     S
C1176  C889    1.423   1_565 S
C1177  N1195   1.428   .     S
C1177  N1180   1.372   .     A
C1178  N1179   1.372   .     A
C1178  N1198   1.428   .     S
C1178  C887    1.423   1_565 S
C1181  N1182   1.157   .     T
C1183  N1184   1.157   .     T
C1185  N1186   1.157   .     T
C1187  N1188   1.157   .     T
N1189  O1190   1.300   .     A
N1189  O1191   1.300   .     A
N1192  O1194   1.300   .     A
N1192  O1193   1.300   .     A
N1195  O1196   1.299   .     A
N1195  O1197   1.300   .     A
N1198  O1200   1.300   .     A
N1198  O1199   1.299   .     A
O1201  C1205   1.295   .     A
O1201  Zn1213  2.011   .     S
O1202  C1206   1.295   .     A
O1202  Zn1214  2.011   .     S
O1203  Zn1213  2.018   .     S
O1203  C1206   1.293   .     A
O1204  Zn1214  2.018   .     S
O1204  C1205   1.293   .     A
C1205  C1222   1.449   .     S
C1206  C1221   1.449   .     S
O1207  C1211   1.281   .     A
O1207  Zn1213  1.950   .     S
O1208  C1212   1.281   .     A
O1208  Zn1214  1.950   .     S
O1209  C1212   1.281   .     A
O1209  Zn1213  1.951   .     S
O1210  C1211   1.281   .     A
O1210  Zn1214  1.951   .     S
C1211  C1215   1.367   .     S
C1212  C1216   1.367   .     S
Zn1213 N1227   2.021   .     S
Zn1214 N1228   2.021   .     S
C1216  C351    1.166   1_556 S
C1217  C1229   1.454   .     S
C1217  C1222   1.412   .     A
C1218  C1221   1.412   .     A
C1218  C1231   1.454   .     S
C1218  C1268   1.382   .     S
C1219  C1233   1.455   .     S
C1219  C1221   1.411   .     A
C1219  C1265   1.382   .     S
C1220  C1222   1.411   .     A
C1220  C1235   1.455   .     S
C1223  N1228   1.370   .     A
C1223  N1237   1.428   .     S
C1224  N1227   1.370   .     A
C1224  N1240   1.428   .     S
C1224  C937    1.423   1_565 S
C1225  N1243   1.428   .     S
C1225  N1228   1.372   .     A
C1226  N1227   1.372   .     A
C1226  N1246   1.428   .     S
C1226  C935    1.423   1_565 S
C1229  N1230   1.157   .     T
C1231  N1232   1.157   .     T
C1233  N1234   1.157   .     T
C1235  N1236   1.157   .     T
N1237  O1238   1.300   .     A
N1237  O1239   1.300   .     A
N1240  O1242   1.300   .     A
N1240  O1241   1.300   .     A
N1243  O1244   1.299   .     A
N1243  O1245   1.300   .     A
N1246  O1248   1.300   .     A
N1246  O1247   1.299   .     A
O1249  C1253   1.295   .     A
O1249  Zn1261  2.011   .     S
O1250  C1254   1.295   .     A
O1250  Zn1262  2.011   .     S
O1251  Zn1261  2.018   .     S
O1251  C1254   1.293   .     A
O1252  Zn1262  2.018   .     S
O1252  C1253   1.293   .     A
C1253  C1270   1.449   .     S
C1254  C1269   1.449   .     S
O1255  C1259   1.281   .     A
O1255  Zn1261  1.950   .     S
O1256  C1260   1.281   .     A
O1256  Zn1262  1.950   .     S
O1257  C1260   1.281   .     A
O1257  Zn1261  1.951   .     S
O1258  C1259   1.281   .     A
O1258  Zn1262  1.951   .     S
C1259  C1263   1.367   .     S
C1260  C1264   1.367   .     S
Zn1261 N1275   2.021   .     S
Zn1262 N1276   2.021   .     S
C1264  C399    1.166   1_556 S
C1265  C1277   1.454   .     S
C1265  C1270   1.412   .     A
C1266  C1269   1.412   .     A
C1266  C1279   1.454   .     S
C1266  C1172   1.382   1_655 S
C1267  C1281   1.455   .     S
C1267  C1269   1.411   .     A
C1267  C1169   1.382   1_655 S
C1268  C1270   1.411   .     A
C1268  C1283   1.455   .     S
C1271  N1276   1.370   .     A
C1271  N1285   1.428   .     S
C1272  N1275   1.370   .     A
C1272  N1288   1.428   .     S
C1272  C985    1.423   1_565 S
C1273  N1291   1.428   .     S
C1273  N1276   1.372   .     A
C1274  N1275   1.372   .     A
C1274  N1294   1.428   .     S
C1274  C983    1.423   1_565 S
C1277  N1278   1.157   .     T
C1279  N1280   1.157   .     T
C1281  N1282   1.157   .     T
C1283  N1284   1.157   .     T
N1285  O1286   1.300   .     A
N1285  O1287   1.300   .     A
N1288  O1290   1.300   .     A
N1288  O1289   1.300   .     A
N1291  O1292   1.299   .     A
N1291  O1293   1.300   .     A
N1294  O1296   1.300   .     A
N1294  O1295   1.299   .     A
