data_str_m2_o1_o16_pcu_sym.34
_audit_creation_date              2020-01-03
_audit_creation_method            'Materials Studio'
_symmetry_space_group_name_H-M    'P1'
_symmetry_Int_Tables_number       1
_symmetry_cell_setting            triclinic
loop_
_symmetry_equiv_pos_as_xyz
  x,y,z
_cell_length_a                    28.5873
_cell_length_b                    32.8283
_cell_length_c                    26.8998
_cell_angle_alpha                 90.5760
_cell_angle_beta                  72.6198
_cell_angle_gamma                 89.6553
loop_
_atom_site_label
_atom_site_type_symbol
_atom_site_fract_x
_atom_site_fract_y
_atom_site_fract_z
_atom_site_U_iso_or_equiv
_atom_site_adp_type
_atom_site_occupancy
O1     O     0.12708   0.22678   0.25000   0.00000  Uiso   1.00
O2     O     0.20627   0.22679   0.25000   0.00000  Uiso   1.00
C3     C     0.16742   0.24580   0.24629   0.00000  Uiso   1.00
O4     O     0.10775   0.16665   0.32549   0.00000  Uiso   1.00
O5     O     0.18694   0.16666   0.32549   0.00000  Uiso   1.00
C6     C     0.14058   0.16390   0.34997   0.00000  Uiso   1.00
Cu7    Cu    0.11978   0.16666   0.25000   0.00000  Uiso   1.00
Cu8    Cu    0.21355   0.16667   0.25000   0.00000  Uiso   1.00
O9     O     0.12706   0.10654   0.24999   0.00000  Uiso   1.00
O10    O     0.20625   0.10655   0.24999   0.00000  Uiso   1.00
O11    O     0.14640   0.16667   0.17451   0.00000  Uiso   1.00
O12    O     0.22559   0.16668   0.17451   0.00000  Uiso   1.00
C13    C     0.16697   0.08735   0.24870   0.00000  Uiso   1.00
C14    C     0.19285   0.16666   0.15005   0.00000  Uiso   1.00
C15    C     0.26212   0.12905   0.01672   0.00000  Uiso   1.00
H16    H     0.27688   0.13216   0.08981   0.00000  Uiso   1.00
H17    H     0.29665   0.11349   0.49884   0.00000  Uiso   1.00
C18    C     0.20799   0.16152   0.09337   0.00000  Uiso   1.00
C19    C     0.07602   0.16897   0.43528   0.00000  Uiso   1.00
C20    C     0.06121   0.16998   0.48934   0.00000  Uiso   1.00
C21    C     0.09549   0.16479   0.01615   0.00000  Uiso   1.00
C22    C     0.14555   0.15771   0.48915   0.00000  Uiso   1.00
C23    C     0.15858   0.14966   0.43495   0.00000  Uiso   1.00
C24    C     0.18229   0.15543   0.01500   0.00000  Uiso   1.00
C25    C     0.22774   0.13565   0.48943   0.00000  Uiso   1.00
C26    C     0.23762   0.12248   0.43739   0.00000  Uiso   1.00
C27    C     0.20363   0.12980   0.41069   0.00000  Uiso   1.00
C28    C     0.17595   0.17273   0.06505   0.00000  Uiso   1.00
C29    C     0.25144   0.14047   0.06867   0.00000  Uiso   1.00
C30    C     0.12495   0.15998   0.40727   0.00000  Uiso   1.00
H31    H     0.04893   0.17501   0.41548   0.00000  Uiso   1.00
H32    H     0.08179   0.16446   0.05816   0.00000  Uiso   1.00
H33    H     0.02311   0.17567   0.01063   0.00000  Uiso   1.00
H34    H     0.21188   0.11738   0.37162   0.00000  Uiso   1.00
C35    C     0.21274   0.31179   0.22635   0.00000  Uiso   1.00
C36    C     0.21239   0.02109   0.22717   0.00000  Uiso   1.00
C37    C     0.16734   0.04263   0.24447   0.00000  Uiso   1.00
C38    C     0.12271   0.02113   0.25421   0.00000  Uiso   1.00
C39    C     0.12360   0.31233   0.24759   0.00000  Uiso   1.00
C40    C     0.16799   0.29041   0.24023   0.00000  Uiso   1.00
C41    C     0.29820   0.18963   0.28533   0.00000  Uiso   1.00
H42    H     0.27110   0.20812   0.31334   0.00000  Uiso   1.00
C43    C     0.01429   0.18966   0.28556   0.00000  Uiso   1.00
N44    N     0.04931   0.16666   0.24998   0.00000  Uiso   1.00
C45    C     0.03438   0.14318   0.21490   0.00000  Uiso   1.00
C46    C     0.31828   0.14365   0.21480   0.00000  Uiso   1.00
H47    H     0.30720   0.12547   0.18661   0.00000  Uiso   1.00
N48    N     0.28402   0.16669   0.24999   0.00000  Uiso   1.00
N49    N     0.25772   0.04229   0.20673   0.00000  Uiso   1.00
O50    O     0.29220   0.03893   0.22895   0.00000  Uiso   1.00
O51    O     0.26676   0.06049   0.16214   0.00000  Uiso   1.00
C52    C     0.07503   0.04135   0.27064   0.00000  Uiso   1.00
N53    N     0.03694   0.05712   0.28338   0.00000  Uiso   1.00
C54    C     0.07921   0.29311   0.24350   0.00000  Uiso   1.00
N55    N     0.04376   0.27855   0.23948   0.00000  Uiso   1.00
C56    C     0.02687   0.21501   0.32349   0.00000  Uiso   1.00
N57    N     0.03655   0.23579   0.35395   0.00000  Uiso   1.00
C58    C     0.06807   0.11669   0.17803   0.00000  Uiso   1.00
N59    N     0.09485   0.09521   0.14826   0.00000  Uiso   1.00
C60    C     0.28301   0.10198   0.40999   0.00000  Uiso   1.00
N61    N     0.31950   0.08565   0.38849   0.00000  Uiso   1.00
C62    C     0.14216   0.20650   0.08468   0.00000  Uiso   1.00
N63    N     0.11541   0.23349   0.10046   0.00000  Uiso   1.00
C64    C     0.25929   0.29067   0.20520   0.00000  Uiso   1.00
N65    N     0.29637   0.27380   0.18797   0.00000  Uiso   1.00
O66    O     0.46042   0.22678   0.25000   0.00000  Uiso   1.00
O67    O     0.53961   0.22679   0.25000   0.00000  Uiso   1.00
C68    C     0.50075   0.24580   0.24629   0.00000  Uiso   1.00
O69    O     0.44108   0.16665   0.32549   0.00000  Uiso   1.00
O70    O     0.52027   0.16666   0.32549   0.00000  Uiso   1.00
C71    C     0.47391   0.16390   0.34997   0.00000  Uiso   1.00
Cu72   Cu    0.45311   0.16666   0.25000   0.00000  Uiso   1.00
Cu73   Cu    0.54689   0.16667   0.25000   0.00000  Uiso   1.00
O74    O     0.46039   0.10654   0.24999   0.00000  Uiso   1.00
O75    O     0.53958   0.10655   0.24999   0.00000  Uiso   1.00
O76    O     0.47973   0.16667   0.17451   0.00000  Uiso   1.00
O77    O     0.55892   0.16668   0.17451   0.00000  Uiso   1.00
C78    C     0.50030   0.08735   0.24870   0.00000  Uiso   1.00
C79    C     0.52619   0.16666   0.15005   0.00000  Uiso   1.00
C80    C     0.59545   0.12905   0.01672   0.00000  Uiso   1.00
H81    H     0.61021   0.13216   0.08981   0.00000  Uiso   1.00
H82    H     0.62998   0.11349   0.49884   0.00000  Uiso   1.00
C83    C     0.54132   0.16152   0.09337   0.00000  Uiso   1.00
C84    C     0.40935   0.16897   0.43528   0.00000  Uiso   1.00
C85    C     0.39454   0.16998   0.48934   0.00000  Uiso   1.00
C86    C     0.42883   0.16479   0.01615   0.00000  Uiso   1.00
C87    C     0.47888   0.15771   0.48915   0.00000  Uiso   1.00
C88    C     0.49191   0.14966   0.43495   0.00000  Uiso   1.00
C89    C     0.51562   0.15543   0.01500   0.00000  Uiso   1.00
C90    C     0.56107   0.13565   0.48943   0.00000  Uiso   1.00
C91    C     0.57095   0.12248   0.43739   0.00000  Uiso   1.00
C92    C     0.53697   0.12980   0.41069   0.00000  Uiso   1.00
C93    C     0.50928   0.17273   0.06505   0.00000  Uiso   1.00
C94    C     0.58477   0.14047   0.06867   0.00000  Uiso   1.00
C95    C     0.45828   0.15998   0.40727   0.00000  Uiso   1.00
H96    H     0.38226   0.17501   0.41548   0.00000  Uiso   1.00
H97    H     0.41512   0.16446   0.05816   0.00000  Uiso   1.00
H98    H     0.35644   0.17567   0.01063   0.00000  Uiso   1.00
H99    H     0.54521   0.11738   0.37162   0.00000  Uiso   1.00
C100   C     0.54607   0.31179   0.22635   0.00000  Uiso   1.00
C101   C     0.54572   0.02109   0.22717   0.00000  Uiso   1.00
C102   C     0.50068   0.04263   0.24447   0.00000  Uiso   1.00
C103   C     0.45605   0.02113   0.25421   0.00000  Uiso   1.00
C104   C     0.45694   0.31233   0.24759   0.00000  Uiso   1.00
C105   C     0.50133   0.29041   0.24023   0.00000  Uiso   1.00
C106   C     0.63153   0.18963   0.28533   0.00000  Uiso   1.00
H107   H     0.60444   0.20812   0.31334   0.00000  Uiso   1.00
C108   C     0.34763   0.18966   0.28556   0.00000  Uiso   1.00
N109   N     0.38265   0.16666   0.24998   0.00000  Uiso   1.00
C110   C     0.36771   0.14318   0.21490   0.00000  Uiso   1.00
C111   C     0.65161   0.14365   0.21480   0.00000  Uiso   1.00
H112   H     0.64053   0.12547   0.18661   0.00000  Uiso   1.00
N113   N     0.61735   0.16669   0.24999   0.00000  Uiso   1.00
N114   N     0.59105   0.04229   0.20673   0.00000  Uiso   1.00
O115   O     0.62553   0.03893   0.22895   0.00000  Uiso   1.00
O116   O     0.60009   0.06049   0.16214   0.00000  Uiso   1.00
C117   C     0.40837   0.04135   0.27064   0.00000  Uiso   1.00
N118   N     0.37028   0.05712   0.28338   0.00000  Uiso   1.00
C119   C     0.41254   0.29311   0.24350   0.00000  Uiso   1.00
N120   N     0.37709   0.27855   0.23948   0.00000  Uiso   1.00
C121   C     0.36020   0.21501   0.32349   0.00000  Uiso   1.00
N122   N     0.36988   0.23579   0.35395   0.00000  Uiso   1.00
C123   C     0.40141   0.11669   0.17803   0.00000  Uiso   1.00
N124   N     0.42818   0.09521   0.14826   0.00000  Uiso   1.00
C125   C     0.61635   0.10198   0.40999   0.00000  Uiso   1.00
N126   N     0.65284   0.08565   0.38849   0.00000  Uiso   1.00
C127   C     0.47549   0.20650   0.08468   0.00000  Uiso   1.00
N128   N     0.44874   0.23349   0.10046   0.00000  Uiso   1.00
C129   C     0.59263   0.29067   0.20520   0.00000  Uiso   1.00
N130   N     0.62970   0.27380   0.18797   0.00000  Uiso   1.00
O131   O     0.79375   0.22678   0.25000   0.00000  Uiso   1.00
O132   O     0.87294   0.22679   0.25000   0.00000  Uiso   1.00
C133   C     0.83409   0.24580   0.24629   0.00000  Uiso   1.00
O134   O     0.77441   0.16665   0.32549   0.00000  Uiso   1.00
O135   O     0.85360   0.16666   0.32549   0.00000  Uiso   1.00
C136   C     0.80725   0.16390   0.34997   0.00000  Uiso   1.00
Cu137  Cu    0.78645   0.16666   0.25000   0.00000  Uiso   1.00
Cu138  Cu    0.88022   0.16667   0.25000   0.00000  Uiso   1.00
O139   O     0.79373   0.10654   0.24999   0.00000  Uiso   1.00
O140   O     0.87292   0.10655   0.24999   0.00000  Uiso   1.00
O141   O     0.81306   0.16667   0.17451   0.00000  Uiso   1.00
O142   O     0.89225   0.16668   0.17451   0.00000  Uiso   1.00
C143   C     0.83363   0.08735   0.24870   0.00000  Uiso   1.00
C144   C     0.85952   0.16666   0.15005   0.00000  Uiso   1.00
C145   C     0.92879   0.12905   0.01672   0.00000  Uiso   1.00
H146   H     0.94354   0.13216   0.08981   0.00000  Uiso   1.00
H147   H     0.96332   0.11349   0.49884   0.00000  Uiso   1.00
C148   C     0.87466   0.16152   0.09337   0.00000  Uiso   1.00
C149   C     0.74268   0.16897   0.43528   0.00000  Uiso   1.00
C150   C     0.72787   0.16998   0.48934   0.00000  Uiso   1.00
C151   C     0.76216   0.16479   0.01615   0.00000  Uiso   1.00
C152   C     0.81221   0.15771   0.48915   0.00000  Uiso   1.00
C153   C     0.82524   0.14966   0.43495   0.00000  Uiso   1.00
C154   C     0.84895   0.15543   0.01500   0.00000  Uiso   1.00
C155   C     0.89440   0.13565   0.48943   0.00000  Uiso   1.00
C156   C     0.90428   0.12248   0.43739   0.00000  Uiso   1.00
C157   C     0.87030   0.12980   0.41069   0.00000  Uiso   1.00
C158   C     0.84262   0.17273   0.06505   0.00000  Uiso   1.00
C159   C     0.91811   0.14047   0.06867   0.00000  Uiso   1.00
C160   C     0.79161   0.15998   0.40727   0.00000  Uiso   1.00
H161   H     0.71559   0.17501   0.41548   0.00000  Uiso   1.00
H162   H     0.74845   0.16446   0.05816   0.00000  Uiso   1.00
H163   H     0.68978   0.17567   0.01063   0.00000  Uiso   1.00
H164   H     0.87855   0.11738   0.37162   0.00000  Uiso   1.00
C165   C     0.87941   0.31179   0.22635   0.00000  Uiso   1.00
C166   C     0.87905   0.02109   0.22717   0.00000  Uiso   1.00
C167   C     0.83401   0.04263   0.24447   0.00000  Uiso   1.00
C168   C     0.78938   0.02113   0.25421   0.00000  Uiso   1.00
C169   C     0.79027   0.31233   0.24759   0.00000  Uiso   1.00
C170   C     0.83466   0.29041   0.24023   0.00000  Uiso   1.00
C171   C     0.96486   0.18963   0.28533   0.00000  Uiso   1.00
H172   H     0.93777   0.20812   0.31334   0.00000  Uiso   1.00
C173   C     0.68096   0.18966   0.28556   0.00000  Uiso   1.00
N174   N     0.71598   0.16666   0.24998   0.00000  Uiso   1.00
C175   C     0.70104   0.14318   0.21490   0.00000  Uiso   1.00
C176   C     0.98494   0.14365   0.21480   0.00000  Uiso   1.00
H177   H     0.97386   0.12547   0.18661   0.00000  Uiso   1.00
N178   N     0.95069   0.16669   0.24999   0.00000  Uiso   1.00
N179   N     0.92439   0.04229   0.20673   0.00000  Uiso   1.00
O180   O     0.95887   0.03893   0.22895   0.00000  Uiso   1.00
O181   O     0.93343   0.06049   0.16214   0.00000  Uiso   1.00
C182   C     0.74170   0.04135   0.27064   0.00000  Uiso   1.00
N183   N     0.70361   0.05712   0.28338   0.00000  Uiso   1.00
C184   C     0.74587   0.29311   0.24350   0.00000  Uiso   1.00
N185   N     0.71043   0.27855   0.23948   0.00000  Uiso   1.00
C186   C     0.69353   0.21501   0.32349   0.00000  Uiso   1.00
N187   N     0.70322   0.23579   0.35395   0.00000  Uiso   1.00
C188   C     0.73474   0.11669   0.17803   0.00000  Uiso   1.00
N189   N     0.76151   0.09521   0.14826   0.00000  Uiso   1.00
C190   C     0.94968   0.10198   0.40999   0.00000  Uiso   1.00
N191   N     0.98617   0.08565   0.38849   0.00000  Uiso   1.00
C192   C     0.80883   0.20650   0.08468   0.00000  Uiso   1.00
N193   N     0.78207   0.23349   0.10046   0.00000  Uiso   1.00
C194   C     0.92596   0.29067   0.20520   0.00000  Uiso   1.00
N195   N     0.96303   0.27380   0.18797   0.00000  Uiso   1.00
O196   O     0.12708   0.56011   0.25000   0.00000  Uiso   1.00
O197   O     0.20627   0.56012   0.25000   0.00000  Uiso   1.00
C198   C     0.16742   0.57913   0.24629   0.00000  Uiso   1.00
O199   O     0.10775   0.49998   0.32549   0.00000  Uiso   1.00
O200   O     0.18694   0.49999   0.32549   0.00000  Uiso   1.00
C201   C     0.14058   0.49724   0.34997   0.00000  Uiso   1.00
Cu202  Cu    0.11978   0.49999   0.25000   0.00000  Uiso   1.00
Cu203  Cu    0.21355   0.50001   0.25000   0.00000  Uiso   1.00
O204   O     0.12706   0.43988   0.24999   0.00000  Uiso   1.00
O205   O     0.20625   0.43989   0.24999   0.00000  Uiso   1.00
O206   O     0.14640   0.50001   0.17451   0.00000  Uiso   1.00
O207   O     0.22559   0.50002   0.17451   0.00000  Uiso   1.00
C208   C     0.16697   0.42068   0.24870   0.00000  Uiso   1.00
C209   C     0.19285   0.49999   0.15005   0.00000  Uiso   1.00
C210   C     0.26212   0.46238   0.01672   0.00000  Uiso   1.00
H211   H     0.27688   0.46549   0.08981   0.00000  Uiso   1.00
H212   H     0.29665   0.44682   0.49884   0.00000  Uiso   1.00
C213   C     0.20799   0.49485   0.09337   0.00000  Uiso   1.00
C214   C     0.07602   0.50231   0.43528   0.00000  Uiso   1.00
C215   C     0.06121   0.50332   0.48934   0.00000  Uiso   1.00
C216   C     0.09549   0.49812   0.01615   0.00000  Uiso   1.00
C217   C     0.14555   0.49105   0.48915   0.00000  Uiso   1.00
C218   C     0.15858   0.48299   0.43495   0.00000  Uiso   1.00
C219   C     0.18229   0.48876   0.01500   0.00000  Uiso   1.00
C220   C     0.22774   0.46899   0.48943   0.00000  Uiso   1.00
C221   C     0.23762   0.45582   0.43739   0.00000  Uiso   1.00
C222   C     0.20363   0.46313   0.41069   0.00000  Uiso   1.00
C223   C     0.17595   0.50606   0.06505   0.00000  Uiso   1.00
C224   C     0.25144   0.47380   0.06867   0.00000  Uiso   1.00
C225   C     0.12495   0.49331   0.40727   0.00000  Uiso   1.00
H226   H     0.04893   0.50834   0.41548   0.00000  Uiso   1.00
H227   H     0.08179   0.49779   0.05816   0.00000  Uiso   1.00
H228   H     0.02311   0.50900   0.01063   0.00000  Uiso   1.00
H229   H     0.21188   0.45071   0.37162   0.00000  Uiso   1.00
C230   C     0.21274   0.64512   0.22635   0.00000  Uiso   1.00
C231   C     0.21239   0.35442   0.22717   0.00000  Uiso   1.00
C232   C     0.16734   0.37596   0.24447   0.00000  Uiso   1.00
C233   C     0.12271   0.35446   0.25421   0.00000  Uiso   1.00
C234   C     0.12360   0.64566   0.24759   0.00000  Uiso   1.00
C235   C     0.16799   0.62374   0.24023   0.00000  Uiso   1.00
C236   C     0.29820   0.52296   0.28533   0.00000  Uiso   1.00
H237   H     0.27110   0.54146   0.31334   0.00000  Uiso   1.00
C238   C     0.01429   0.52300   0.28556   0.00000  Uiso   1.00
N239   N     0.04931   0.49999   0.24998   0.00000  Uiso   1.00
C240   C     0.03438   0.47652   0.21490   0.00000  Uiso   1.00
C241   C     0.31828   0.47699   0.21480   0.00000  Uiso   1.00
H242   H     0.30720   0.45880   0.18661   0.00000  Uiso   1.00
N243   N     0.28402   0.50002   0.24999   0.00000  Uiso   1.00
N244   N     0.25772   0.37562   0.20673   0.00000  Uiso   1.00
O245   O     0.29220   0.37227   0.22895   0.00000  Uiso   1.00
O246   O     0.26676   0.39382   0.16214   0.00000  Uiso   1.00
C247   C     0.07503   0.37468   0.27064   0.00000  Uiso   1.00
N248   N     0.03694   0.39045   0.28338   0.00000  Uiso   1.00
C249   C     0.07921   0.62645   0.24350   0.00000  Uiso   1.00
N250   N     0.04376   0.61188   0.23948   0.00000  Uiso   1.00
C251   C     0.02687   0.54834   0.32349   0.00000  Uiso   1.00
N252   N     0.03655   0.56913   0.35395   0.00000  Uiso   1.00
C253   C     0.06807   0.45002   0.17803   0.00000  Uiso   1.00
N254   N     0.09485   0.42854   0.14826   0.00000  Uiso   1.00
C255   C     0.28301   0.43531   0.40999   0.00000  Uiso   1.00
N256   N     0.31950   0.41898   0.38849   0.00000  Uiso   1.00
C257   C     0.14216   0.53984   0.08468   0.00000  Uiso   1.00
N258   N     0.11541   0.56682   0.10046   0.00000  Uiso   1.00
C259   C     0.25929   0.62401   0.20520   0.00000  Uiso   1.00
N260   N     0.29637   0.60713   0.18797   0.00000  Uiso   1.00
O261   O     0.46042   0.56011   0.25000   0.00000  Uiso   1.00
O262   O     0.53961   0.56012   0.25000   0.00000  Uiso   1.00
C263   C     0.50075   0.57913   0.24629   0.00000  Uiso   1.00
O264   O     0.44108   0.49998   0.32549   0.00000  Uiso   1.00
O265   O     0.52027   0.49999   0.32549   0.00000  Uiso   1.00
C266   C     0.47391   0.49724   0.34997   0.00000  Uiso   1.00
Cu267  Cu    0.45311   0.49999   0.25000   0.00000  Uiso   1.00
Cu268  Cu    0.54689   0.50001   0.25000   0.00000  Uiso   1.00
O269   O     0.46039   0.43988   0.24999   0.00000  Uiso   1.00
O270   O     0.53958   0.43989   0.24999   0.00000  Uiso   1.00
O271   O     0.47973   0.50001   0.17451   0.00000  Uiso   1.00
O272   O     0.55892   0.50002   0.17451   0.00000  Uiso   1.00
C273   C     0.50030   0.42068   0.24870   0.00000  Uiso   1.00
C274   C     0.52619   0.49999   0.15005   0.00000  Uiso   1.00
C275   C     0.59545   0.46238   0.01672   0.00000  Uiso   1.00
H276   H     0.61021   0.46549   0.08981   0.00000  Uiso   1.00
H277   H     0.62998   0.44682   0.49884   0.00000  Uiso   1.00
C278   C     0.54132   0.49485   0.09337   0.00000  Uiso   1.00
C279   C     0.40935   0.50231   0.43528   0.00000  Uiso   1.00
C280   C     0.39454   0.50332   0.48934   0.00000  Uiso   1.00
C281   C     0.42883   0.49812   0.01615   0.00000  Uiso   1.00
C282   C     0.47888   0.49105   0.48915   0.00000  Uiso   1.00
C283   C     0.49191   0.48299   0.43495   0.00000  Uiso   1.00
C284   C     0.51562   0.48876   0.01500   0.00000  Uiso   1.00
C285   C     0.56107   0.46899   0.48943   0.00000  Uiso   1.00
C286   C     0.57095   0.45582   0.43739   0.00000  Uiso   1.00
C287   C     0.53697   0.46313   0.41069   0.00000  Uiso   1.00
C288   C     0.50928   0.50606   0.06505   0.00000  Uiso   1.00
C289   C     0.58477   0.47380   0.06867   0.00000  Uiso   1.00
C290   C     0.45828   0.49331   0.40727   0.00000  Uiso   1.00
H291   H     0.38226   0.50834   0.41548   0.00000  Uiso   1.00
H292   H     0.41512   0.49779   0.05816   0.00000  Uiso   1.00
H293   H     0.35644   0.50900   0.01063   0.00000  Uiso   1.00
H294   H     0.54521   0.45071   0.37162   0.00000  Uiso   1.00
C295   C     0.54607   0.64512   0.22635   0.00000  Uiso   1.00
C296   C     0.54572   0.35442   0.22717   0.00000  Uiso   1.00
C297   C     0.50068   0.37596   0.24447   0.00000  Uiso   1.00
C298   C     0.45605   0.35446   0.25421   0.00000  Uiso   1.00
C299   C     0.45694   0.64566   0.24759   0.00000  Uiso   1.00
C300   C     0.50133   0.62374   0.24023   0.00000  Uiso   1.00
C301   C     0.63153   0.52296   0.28533   0.00000  Uiso   1.00
H302   H     0.60444   0.54146   0.31334   0.00000  Uiso   1.00
C303   C     0.34763   0.52300   0.28556   0.00000  Uiso   1.00
N304   N     0.38265   0.49999   0.24998   0.00000  Uiso   1.00
C305   C     0.36771   0.47652   0.21490   0.00000  Uiso   1.00
C306   C     0.65161   0.47699   0.21480   0.00000  Uiso   1.00
H307   H     0.64053   0.45880   0.18661   0.00000  Uiso   1.00
N308   N     0.61735   0.50002   0.24999   0.00000  Uiso   1.00
N309   N     0.59105   0.37562   0.20673   0.00000  Uiso   1.00
O310   O     0.62553   0.37227   0.22895   0.00000  Uiso   1.00
O311   O     0.60009   0.39382   0.16214   0.00000  Uiso   1.00
C312   C     0.40837   0.37468   0.27064   0.00000  Uiso   1.00
N313   N     0.37028   0.39045   0.28338   0.00000  Uiso   1.00
C314   C     0.41254   0.62645   0.24350   0.00000  Uiso   1.00
N315   N     0.37709   0.61188   0.23948   0.00000  Uiso   1.00
C316   C     0.36020   0.54834   0.32349   0.00000  Uiso   1.00
N317   N     0.36988   0.56913   0.35395   0.00000  Uiso   1.00
C318   C     0.40141   0.45002   0.17803   0.00000  Uiso   1.00
N319   N     0.42818   0.42854   0.14826   0.00000  Uiso   1.00
C320   C     0.61635   0.43531   0.40999   0.00000  Uiso   1.00
N321   N     0.65284   0.41898   0.38849   0.00000  Uiso   1.00
C322   C     0.47549   0.53984   0.08468   0.00000  Uiso   1.00
N323   N     0.44874   0.56682   0.10046   0.00000  Uiso   1.00
C324   C     0.59263   0.62401   0.20520   0.00000  Uiso   1.00
N325   N     0.62970   0.60713   0.18797   0.00000  Uiso   1.00
O326   O     0.79375   0.56011   0.25000   0.00000  Uiso   1.00
O327   O     0.87294   0.56012   0.25000   0.00000  Uiso   1.00
C328   C     0.83409   0.57913   0.24629   0.00000  Uiso   1.00
O329   O     0.77441   0.49998   0.32549   0.00000  Uiso   1.00
O330   O     0.85360   0.49999   0.32549   0.00000  Uiso   1.00
C331   C     0.80725   0.49724   0.34997   0.00000  Uiso   1.00
Cu332  Cu    0.78645   0.49999   0.25000   0.00000  Uiso   1.00
Cu333  Cu    0.88022   0.50001   0.25000   0.00000  Uiso   1.00
O334   O     0.79373   0.43988   0.24999   0.00000  Uiso   1.00
O335   O     0.87292   0.43989   0.24999   0.00000  Uiso   1.00
O336   O     0.81306   0.50001   0.17451   0.00000  Uiso   1.00
O337   O     0.89225   0.50002   0.17451   0.00000  Uiso   1.00
C338   C     0.83363   0.42068   0.24870   0.00000  Uiso   1.00
C339   C     0.85952   0.49999   0.15005   0.00000  Uiso   1.00
C340   C     0.92879   0.46238   0.01672   0.00000  Uiso   1.00
H341   H     0.94354   0.46549   0.08981   0.00000  Uiso   1.00
H342   H     0.96332   0.44682   0.49884   0.00000  Uiso   1.00
C343   C     0.87466   0.49485   0.09337   0.00000  Uiso   1.00
C344   C     0.74268   0.50231   0.43528   0.00000  Uiso   1.00
C345   C     0.72787   0.50332   0.48934   0.00000  Uiso   1.00
C346   C     0.76216   0.49812   0.01615   0.00000  Uiso   1.00
C347   C     0.81221   0.49105   0.48915   0.00000  Uiso   1.00
C348   C     0.82524   0.48299   0.43495   0.00000  Uiso   1.00
C349   C     0.84895   0.48876   0.01500   0.00000  Uiso   1.00
C350   C     0.89440   0.46899   0.48943   0.00000  Uiso   1.00
C351   C     0.90428   0.45582   0.43739   0.00000  Uiso   1.00
C352   C     0.87030   0.46313   0.41069   0.00000  Uiso   1.00
C353   C     0.84262   0.50606   0.06505   0.00000  Uiso   1.00
C354   C     0.91811   0.47380   0.06867   0.00000  Uiso   1.00
C355   C     0.79161   0.49331   0.40727   0.00000  Uiso   1.00
H356   H     0.71559   0.50834   0.41548   0.00000  Uiso   1.00
H357   H     0.74845   0.49779   0.05816   0.00000  Uiso   1.00
H358   H     0.68978   0.50900   0.01063   0.00000  Uiso   1.00
H359   H     0.87855   0.45071   0.37162   0.00000  Uiso   1.00
C360   C     0.87941   0.64512   0.22635   0.00000  Uiso   1.00
C361   C     0.87905   0.35442   0.22717   0.00000  Uiso   1.00
C362   C     0.83401   0.37596   0.24447   0.00000  Uiso   1.00
C363   C     0.78938   0.35446   0.25421   0.00000  Uiso   1.00
C364   C     0.79027   0.64566   0.24759   0.00000  Uiso   1.00
C365   C     0.83466   0.62374   0.24023   0.00000  Uiso   1.00
C366   C     0.96486   0.52296   0.28533   0.00000  Uiso   1.00
H367   H     0.93777   0.54146   0.31334   0.00000  Uiso   1.00
C368   C     0.68096   0.52300   0.28556   0.00000  Uiso   1.00
N369   N     0.71598   0.49999   0.24998   0.00000  Uiso   1.00
C370   C     0.70104   0.47652   0.21490   0.00000  Uiso   1.00
C371   C     0.98494   0.47699   0.21480   0.00000  Uiso   1.00
H372   H     0.97386   0.45880   0.18661   0.00000  Uiso   1.00
N373   N     0.95069   0.50002   0.24999   0.00000  Uiso   1.00
N374   N     0.92439   0.37562   0.20673   0.00000  Uiso   1.00
O375   O     0.95887   0.37227   0.22895   0.00000  Uiso   1.00
O376   O     0.93343   0.39382   0.16214   0.00000  Uiso   1.00
C377   C     0.74170   0.37468   0.27064   0.00000  Uiso   1.00
N378   N     0.70361   0.39045   0.28338   0.00000  Uiso   1.00
C379   C     0.74587   0.62645   0.24350   0.00000  Uiso   1.00
N380   N     0.71043   0.61188   0.23948   0.00000  Uiso   1.00
C381   C     0.69353   0.54834   0.32349   0.00000  Uiso   1.00
N382   N     0.70322   0.56913   0.35395   0.00000  Uiso   1.00
C383   C     0.73474   0.45002   0.17803   0.00000  Uiso   1.00
N384   N     0.76151   0.42854   0.14826   0.00000  Uiso   1.00
C385   C     0.94968   0.43531   0.40999   0.00000  Uiso   1.00
N386   N     0.98617   0.41898   0.38849   0.00000  Uiso   1.00
C387   C     0.80883   0.53984   0.08468   0.00000  Uiso   1.00
N388   N     0.78207   0.56682   0.10046   0.00000  Uiso   1.00
C389   C     0.92596   0.62401   0.20520   0.00000  Uiso   1.00
N390   N     0.96303   0.60713   0.18797   0.00000  Uiso   1.00
O391   O     0.12708   0.89345   0.25000   0.00000  Uiso   1.00
O392   O     0.20627   0.89346   0.25000   0.00000  Uiso   1.00
C393   C     0.16742   0.91247   0.24629   0.00000  Uiso   1.00
O394   O     0.10775   0.83332   0.32549   0.00000  Uiso   1.00
O395   O     0.18694   0.83333   0.32549   0.00000  Uiso   1.00
C396   C     0.14058   0.83057   0.34997   0.00000  Uiso   1.00
Cu397  Cu    0.11978   0.83333   0.25000   0.00000  Uiso   1.00
Cu398  Cu    0.21355   0.83334   0.25000   0.00000  Uiso   1.00
O399   O     0.12706   0.77321   0.24999   0.00000  Uiso   1.00
O400   O     0.20625   0.77322   0.24999   0.00000  Uiso   1.00
O401   O     0.14640   0.83334   0.17451   0.00000  Uiso   1.00
O402   O     0.22559   0.83335   0.17451   0.00000  Uiso   1.00
C403   C     0.16697   0.75402   0.24870   0.00000  Uiso   1.00
C404   C     0.19285   0.83332   0.15005   0.00000  Uiso   1.00
C405   C     0.26212   0.79571   0.01672   0.00000  Uiso   1.00
H406   H     0.27688   0.79883   0.08981   0.00000  Uiso   1.00
H407   H     0.29665   0.78015   0.49884   0.00000  Uiso   1.00
C408   C     0.20799   0.82818   0.09337   0.00000  Uiso   1.00
C409   C     0.07602   0.83564   0.43528   0.00000  Uiso   1.00
C410   C     0.06121   0.83665   0.48934   0.00000  Uiso   1.00
C411   C     0.09549   0.83146   0.01615   0.00000  Uiso   1.00
C412   C     0.14555   0.82438   0.48915   0.00000  Uiso   1.00
C413   C     0.15858   0.81632   0.43495   0.00000  Uiso   1.00
C414   C     0.18229   0.82210   0.01500   0.00000  Uiso   1.00
C415   C     0.22774   0.80232   0.48943   0.00000  Uiso   1.00
C416   C     0.23762   0.78915   0.43739   0.00000  Uiso   1.00
C417   C     0.20363   0.79647   0.41069   0.00000  Uiso   1.00
C418   C     0.17595   0.83939   0.06505   0.00000  Uiso   1.00
C419   C     0.25144   0.80714   0.06867   0.00000  Uiso   1.00
C420   C     0.12495   0.82665   0.40727   0.00000  Uiso   1.00
H421   H     0.04893   0.84168   0.41548   0.00000  Uiso   1.00
H422   H     0.08179   0.83113   0.05816   0.00000  Uiso   1.00
H423   H     0.02311   0.84233   0.01063   0.00000  Uiso   1.00
H424   H     0.21188   0.78405   0.37162   0.00000  Uiso   1.00
C425   C     0.21274   0.97845   0.22635   0.00000  Uiso   1.00
C426   C     0.21239   0.68775   0.22717   0.00000  Uiso   1.00
C427   C     0.16734   0.70929   0.24447   0.00000  Uiso   1.00
C428   C     0.12271   0.68780   0.25421   0.00000  Uiso   1.00
C429   C     0.12360   0.97899   0.24759   0.00000  Uiso   1.00
C430   C     0.16799   0.95708   0.24023   0.00000  Uiso   1.00
C431   C     0.29820   0.85630   0.28533   0.00000  Uiso   1.00
H432   H     0.27110   0.87479   0.31334   0.00000  Uiso   1.00
C433   C     0.01429   0.85633   0.28556   0.00000  Uiso   1.00
N434   N     0.04931   0.83332   0.24998   0.00000  Uiso   1.00
C435   C     0.03438   0.80985   0.21490   0.00000  Uiso   1.00
C436   C     0.31828   0.81032   0.21480   0.00000  Uiso   1.00
H437   H     0.30720   0.79214   0.18661   0.00000  Uiso   1.00
N438   N     0.28402   0.83335   0.24999   0.00000  Uiso   1.00
N439   N     0.25772   0.70895   0.20673   0.00000  Uiso   1.00
O440   O     0.29220   0.70560   0.22895   0.00000  Uiso   1.00
O441   O     0.26676   0.72716   0.16214   0.00000  Uiso   1.00
C442   C     0.07503   0.70801   0.27064   0.00000  Uiso   1.00
N443   N     0.03694   0.72379   0.28338   0.00000  Uiso   1.00
C444   C     0.07921   0.95978   0.24350   0.00000  Uiso   1.00
N445   N     0.04376   0.94522   0.23948   0.00000  Uiso   1.00
C446   C     0.02687   0.88167   0.32349   0.00000  Uiso   1.00
N447   N     0.03655   0.90246   0.35395   0.00000  Uiso   1.00
C448   C     0.06807   0.78336   0.17803   0.00000  Uiso   1.00
N449   N     0.09485   0.76188   0.14826   0.00000  Uiso   1.00
C450   C     0.28301   0.76865   0.40999   0.00000  Uiso   1.00
N451   N     0.31950   0.75232   0.38849   0.00000  Uiso   1.00
C452   C     0.14216   0.87317   0.08468   0.00000  Uiso   1.00
N453   N     0.11541   0.90016   0.10046   0.00000  Uiso   1.00
C454   C     0.25929   0.95734   0.20520   0.00000  Uiso   1.00
N455   N     0.29637   0.94047   0.18797   0.00000  Uiso   1.00
O456   O     0.46042   0.89345   0.25000   0.00000  Uiso   1.00
O457   O     0.53961   0.89346   0.25000   0.00000  Uiso   1.00
C458   C     0.50075   0.91247   0.24629   0.00000  Uiso   1.00
O459   O     0.44108   0.83332   0.32549   0.00000  Uiso   1.00
O460   O     0.52027   0.83333   0.32549   0.00000  Uiso   1.00
C461   C     0.47391   0.83057   0.34997   0.00000  Uiso   1.00
Cu462  Cu    0.45311   0.83333   0.25000   0.00000  Uiso   1.00
Cu463  Cu    0.54689   0.83334   0.25000   0.00000  Uiso   1.00
O464   O     0.46039   0.77321   0.24999   0.00000  Uiso   1.00
O465   O     0.53958   0.77322   0.24999   0.00000  Uiso   1.00
O466   O     0.47973   0.83334   0.17451   0.00000  Uiso   1.00
O467   O     0.55892   0.83335   0.17451   0.00000  Uiso   1.00
C468   C     0.50030   0.75402   0.24870   0.00000  Uiso   1.00
C469   C     0.52619   0.83332   0.15005   0.00000  Uiso   1.00
C470   C     0.59545   0.79571   0.01672   0.00000  Uiso   1.00
H471   H     0.61021   0.79883   0.08981   0.00000  Uiso   1.00
H472   H     0.62998   0.78015   0.49884   0.00000  Uiso   1.00
C473   C     0.54132   0.82818   0.09337   0.00000  Uiso   1.00
C474   C     0.40935   0.83564   0.43528   0.00000  Uiso   1.00
C475   C     0.39454   0.83665   0.48934   0.00000  Uiso   1.00
C476   C     0.42883   0.83146   0.01615   0.00000  Uiso   1.00
C477   C     0.47888   0.82438   0.48915   0.00000  Uiso   1.00
C478   C     0.49191   0.81632   0.43495   0.00000  Uiso   1.00
C479   C     0.51562   0.82210   0.01500   0.00000  Uiso   1.00
C480   C     0.56107   0.80232   0.48943   0.00000  Uiso   1.00
C481   C     0.57095   0.78915   0.43739   0.00000  Uiso   1.00
C482   C     0.53697   0.79647   0.41069   0.00000  Uiso   1.00
C483   C     0.50928   0.83939   0.06505   0.00000  Uiso   1.00
C484   C     0.58477   0.80714   0.06867   0.00000  Uiso   1.00
C485   C     0.45828   0.82665   0.40727   0.00000  Uiso   1.00
H486   H     0.38226   0.84168   0.41548   0.00000  Uiso   1.00
H487   H     0.41512   0.83113   0.05816   0.00000  Uiso   1.00
H488   H     0.35644   0.84233   0.01063   0.00000  Uiso   1.00
H489   H     0.54521   0.78405   0.37162   0.00000  Uiso   1.00
C490   C     0.54607   0.97845   0.22635   0.00000  Uiso   1.00
C491   C     0.54572   0.68775   0.22717   0.00000  Uiso   1.00
C492   C     0.50068   0.70929   0.24447   0.00000  Uiso   1.00
C493   C     0.45605   0.68780   0.25421   0.00000  Uiso   1.00
C494   C     0.45694   0.97899   0.24759   0.00000  Uiso   1.00
C495   C     0.50133   0.95708   0.24023   0.00000  Uiso   1.00
C496   C     0.63153   0.85630   0.28533   0.00000  Uiso   1.00
H497   H     0.60444   0.87479   0.31334   0.00000  Uiso   1.00
C498   C     0.34763   0.85633   0.28556   0.00000  Uiso   1.00
N499   N     0.38265   0.83332   0.24998   0.00000  Uiso   1.00
C500   C     0.36771   0.80985   0.21490   0.00000  Uiso   1.00
C501   C     0.65161   0.81032   0.21480   0.00000  Uiso   1.00
H502   H     0.64053   0.79214   0.18661   0.00000  Uiso   1.00
N503   N     0.61735   0.83335   0.24999   0.00000  Uiso   1.00
N504   N     0.59105   0.70895   0.20673   0.00000  Uiso   1.00
O505   O     0.62553   0.70560   0.22895   0.00000  Uiso   1.00
O506   O     0.60009   0.72716   0.16214   0.00000  Uiso   1.00
C507   C     0.40837   0.70801   0.27064   0.00000  Uiso   1.00
N508   N     0.37028   0.72379   0.28338   0.00000  Uiso   1.00
C509   C     0.41254   0.95978   0.24350   0.00000  Uiso   1.00
N510   N     0.37709   0.94522   0.23948   0.00000  Uiso   1.00
C511   C     0.36020   0.88167   0.32349   0.00000  Uiso   1.00
N512   N     0.36988   0.90246   0.35395   0.00000  Uiso   1.00
C513   C     0.40141   0.78336   0.17803   0.00000  Uiso   1.00
N514   N     0.42818   0.76188   0.14826   0.00000  Uiso   1.00
C515   C     0.61635   0.76865   0.40999   0.00000  Uiso   1.00
N516   N     0.65284   0.75232   0.38849   0.00000  Uiso   1.00
C517   C     0.47549   0.87317   0.08468   0.00000  Uiso   1.00
N518   N     0.44874   0.90016   0.10046   0.00000  Uiso   1.00
C519   C     0.59263   0.95734   0.20520   0.00000  Uiso   1.00
N520   N     0.62970   0.94047   0.18797   0.00000  Uiso   1.00
O521   O     0.79375   0.89345   0.25000   0.00000  Uiso   1.00
O522   O     0.87294   0.89346   0.25000   0.00000  Uiso   1.00
C523   C     0.83409   0.91247   0.24629   0.00000  Uiso   1.00
O524   O     0.77441   0.83332   0.32549   0.00000  Uiso   1.00
O525   O     0.85360   0.83333   0.32549   0.00000  Uiso   1.00
C526   C     0.80725   0.83057   0.34997   0.00000  Uiso   1.00
Cu527  Cu    0.78645   0.83333   0.25000   0.00000  Uiso   1.00
Cu528  Cu    0.88022   0.83334   0.25000   0.00000  Uiso   1.00
O529   O     0.79373   0.77321   0.24999   0.00000  Uiso   1.00
O530   O     0.87292   0.77322   0.24999   0.00000  Uiso   1.00
O531   O     0.81306   0.83334   0.17451   0.00000  Uiso   1.00
O532   O     0.89225   0.83335   0.17451   0.00000  Uiso   1.00
C533   C     0.83363   0.75402   0.24870   0.00000  Uiso   1.00
C534   C     0.85952   0.83332   0.15005   0.00000  Uiso   1.00
C535   C     0.92879   0.79571   0.01672   0.00000  Uiso   1.00
H536   H     0.94354   0.79883   0.08981   0.00000  Uiso   1.00
H537   H     0.96332   0.78015   0.49884   0.00000  Uiso   1.00
C538   C     0.87466   0.82818   0.09337   0.00000  Uiso   1.00
C539   C     0.74268   0.83564   0.43528   0.00000  Uiso   1.00
C540   C     0.72787   0.83665   0.48934   0.00000  Uiso   1.00
C541   C     0.76216   0.83146   0.01615   0.00000  Uiso   1.00
C542   C     0.81221   0.82438   0.48915   0.00000  Uiso   1.00
C543   C     0.82524   0.81632   0.43495   0.00000  Uiso   1.00
C544   C     0.84895   0.82210   0.01500   0.00000  Uiso   1.00
C545   C     0.89440   0.80232   0.48943   0.00000  Uiso   1.00
C546   C     0.90428   0.78915   0.43739   0.00000  Uiso   1.00
C547   C     0.87030   0.79647   0.41069   0.00000  Uiso   1.00
C548   C     0.84262   0.83939   0.06505   0.00000  Uiso   1.00
C549   C     0.91811   0.80714   0.06867   0.00000  Uiso   1.00
C550   C     0.79161   0.82665   0.40727   0.00000  Uiso   1.00
H551   H     0.71559   0.84168   0.41548   0.00000  Uiso   1.00
H552   H     0.74845   0.83113   0.05816   0.00000  Uiso   1.00
H553   H     0.68978   0.84233   0.01063   0.00000  Uiso   1.00
H554   H     0.87855   0.78405   0.37162   0.00000  Uiso   1.00
C555   C     0.87941   0.97845   0.22635   0.00000  Uiso   1.00
C556   C     0.87905   0.68775   0.22717   0.00000  Uiso   1.00
C557   C     0.83401   0.70929   0.24447   0.00000  Uiso   1.00
C558   C     0.78938   0.68780   0.25421   0.00000  Uiso   1.00
C559   C     0.79027   0.97899   0.24759   0.00000  Uiso   1.00
C560   C     0.83466   0.95708   0.24023   0.00000  Uiso   1.00
C561   C     0.96486   0.85630   0.28533   0.00000  Uiso   1.00
H562   H     0.93777   0.87479   0.31334   0.00000  Uiso   1.00
C563   C     0.68096   0.85633   0.28556   0.00000  Uiso   1.00
N564   N     0.71598   0.83332   0.24998   0.00000  Uiso   1.00
C565   C     0.70104   0.80985   0.21490   0.00000  Uiso   1.00
C566   C     0.98494   0.81032   0.21480   0.00000  Uiso   1.00
H567   H     0.97386   0.79214   0.18661   0.00000  Uiso   1.00
N568   N     0.95069   0.83335   0.24999   0.00000  Uiso   1.00
N569   N     0.92439   0.70895   0.20673   0.00000  Uiso   1.00
O570   O     0.95887   0.70560   0.22895   0.00000  Uiso   1.00
O571   O     0.93343   0.72716   0.16214   0.00000  Uiso   1.00
C572   C     0.74170   0.70801   0.27064   0.00000  Uiso   1.00
N573   N     0.70361   0.72379   0.28338   0.00000  Uiso   1.00
C574   C     0.74587   0.95978   0.24350   0.00000  Uiso   1.00
N575   N     0.71043   0.94522   0.23948   0.00000  Uiso   1.00
C576   C     0.69353   0.88167   0.32349   0.00000  Uiso   1.00
N577   N     0.70322   0.90246   0.35395   0.00000  Uiso   1.00
C578   C     0.73474   0.78336   0.17803   0.00000  Uiso   1.00
N579   N     0.76151   0.76188   0.14826   0.00000  Uiso   1.00
C580   C     0.94968   0.76865   0.40999   0.00000  Uiso   1.00
N581   N     0.98617   0.75232   0.38849   0.00000  Uiso   1.00
C582   C     0.80883   0.87317   0.08468   0.00000  Uiso   1.00
N583   N     0.78207   0.90016   0.10046   0.00000  Uiso   1.00
C584   C     0.92596   0.95734   0.20520   0.00000  Uiso   1.00
N585   N     0.96303   0.94047   0.18797   0.00000  Uiso   1.00
O586   O     0.12708   0.22678   0.75000   0.00000  Uiso   1.00
O587   O     0.20627   0.22679   0.75000   0.00000  Uiso   1.00
C588   C     0.16742   0.24580   0.74629   0.00000  Uiso   1.00
O589   O     0.10775   0.16665   0.82549   0.00000  Uiso   1.00
O590   O     0.18694   0.16666   0.82549   0.00000  Uiso   1.00
C591   C     0.14058   0.16390   0.84997   0.00000  Uiso   1.00
Cu592  Cu    0.11978   0.16666   0.75000   0.00000  Uiso   1.00
Cu593  Cu    0.21355   0.16667   0.75000   0.00000  Uiso   1.00
O594   O     0.12706   0.10654   0.74999   0.00000  Uiso   1.00
O595   O     0.20625   0.10655   0.74999   0.00000  Uiso   1.00
O596   O     0.14640   0.16667   0.67451   0.00000  Uiso   1.00
O597   O     0.22559   0.16668   0.67451   0.00000  Uiso   1.00
C598   C     0.16697   0.08735   0.74870   0.00000  Uiso   1.00
C599   C     0.19285   0.16666   0.65005   0.00000  Uiso   1.00
C600   C     0.26212   0.12905   0.51672   0.00000  Uiso   1.00
H601   H     0.27688   0.13216   0.58981   0.00000  Uiso   1.00
H602   H     0.29665   0.11349   0.99884   0.00000  Uiso   1.00
C603   C     0.20799   0.16152   0.59337   0.00000  Uiso   1.00
C604   C     0.07602   0.16897   0.93528   0.00000  Uiso   1.00
C605   C     0.06121   0.16998   0.98934   0.00000  Uiso   1.00
C606   C     0.09549   0.16479   0.51615   0.00000  Uiso   1.00
C607   C     0.14555   0.15771   0.98915   0.00000  Uiso   1.00
C608   C     0.15858   0.14966   0.93495   0.00000  Uiso   1.00
C609   C     0.18229   0.15543   0.51500   0.00000  Uiso   1.00
C610   C     0.22774   0.13565   0.98943   0.00000  Uiso   1.00
C611   C     0.23762   0.12248   0.93739   0.00000  Uiso   1.00
C612   C     0.20363   0.12980   0.91069   0.00000  Uiso   1.00
C613   C     0.17595   0.17273   0.56505   0.00000  Uiso   1.00
C614   C     0.25144   0.14047   0.56867   0.00000  Uiso   1.00
C615   C     0.12495   0.15998   0.90727   0.00000  Uiso   1.00
H616   H     0.04893   0.17501   0.91548   0.00000  Uiso   1.00
H617   H     0.08179   0.16446   0.55816   0.00000  Uiso   1.00
H618   H     0.02311   0.17567   0.51063   0.00000  Uiso   1.00
H619   H     0.21188   0.11738   0.87162   0.00000  Uiso   1.00
C620   C     0.21274   0.31179   0.72635   0.00000  Uiso   1.00
C621   C     0.21239   0.02109   0.72717   0.00000  Uiso   1.00
C622   C     0.16734   0.04263   0.74447   0.00000  Uiso   1.00
C623   C     0.12271   0.02113   0.75421   0.00000  Uiso   1.00
C624   C     0.12360   0.31233   0.74759   0.00000  Uiso   1.00
C625   C     0.16799   0.29041   0.74023   0.00000  Uiso   1.00
C626   C     0.29820   0.18963   0.78533   0.00000  Uiso   1.00
H627   H     0.27110   0.20812   0.81334   0.00000  Uiso   1.00
C628   C     0.01429   0.18966   0.78556   0.00000  Uiso   1.00
N629   N     0.04931   0.16666   0.74998   0.00000  Uiso   1.00
C630   C     0.03438   0.14318   0.71490   0.00000  Uiso   1.00
C631   C     0.31828   0.14365   0.71480   0.00000  Uiso   1.00
H632   H     0.30720   0.12547   0.68661   0.00000  Uiso   1.00
N633   N     0.28402   0.16669   0.74999   0.00000  Uiso   1.00
N634   N     0.25772   0.04229   0.70673   0.00000  Uiso   1.00
O635   O     0.29220   0.03893   0.72895   0.00000  Uiso   1.00
O636   O     0.26676   0.06049   0.66214   0.00000  Uiso   1.00
C637   C     0.07503   0.04135   0.77064   0.00000  Uiso   1.00
N638   N     0.03694   0.05712   0.78338   0.00000  Uiso   1.00
C639   C     0.07921   0.29311   0.74350   0.00000  Uiso   1.00
N640   N     0.04376   0.27855   0.73948   0.00000  Uiso   1.00
C641   C     0.02687   0.21501   0.82349   0.00000  Uiso   1.00
N642   N     0.03655   0.23579   0.85395   0.00000  Uiso   1.00
C643   C     0.06807   0.11669   0.67803   0.00000  Uiso   1.00
N644   N     0.09485   0.09521   0.64826   0.00000  Uiso   1.00
C645   C     0.28301   0.10198   0.90999   0.00000  Uiso   1.00
N646   N     0.31950   0.08565   0.88849   0.00000  Uiso   1.00
C647   C     0.14216   0.20650   0.58468   0.00000  Uiso   1.00
N648   N     0.11541   0.23349   0.60046   0.00000  Uiso   1.00
C649   C     0.25929   0.29067   0.70520   0.00000  Uiso   1.00
N650   N     0.29637   0.27380   0.68797   0.00000  Uiso   1.00
O651   O     0.46042   0.22678   0.75000   0.00000  Uiso   1.00
O652   O     0.53961   0.22679   0.75000   0.00000  Uiso   1.00
C653   C     0.50075   0.24580   0.74629   0.00000  Uiso   1.00
O654   O     0.44108   0.16665   0.82549   0.00000  Uiso   1.00
O655   O     0.52027   0.16666   0.82549   0.00000  Uiso   1.00
C656   C     0.47391   0.16390   0.84997   0.00000  Uiso   1.00
Cu657  Cu    0.45311   0.16666   0.75000   0.00000  Uiso   1.00
Cu658  Cu    0.54689   0.16667   0.75000   0.00000  Uiso   1.00
O659   O     0.46039   0.10654   0.74999   0.00000  Uiso   1.00
O660   O     0.53958   0.10655   0.74999   0.00000  Uiso   1.00
O661   O     0.47973   0.16667   0.67451   0.00000  Uiso   1.00
O662   O     0.55892   0.16668   0.67451   0.00000  Uiso   1.00
C663   C     0.50030   0.08735   0.74870   0.00000  Uiso   1.00
C664   C     0.52619   0.16666   0.65005   0.00000  Uiso   1.00
C665   C     0.59545   0.12905   0.51672   0.00000  Uiso   1.00
H666   H     0.61021   0.13216   0.58981   0.00000  Uiso   1.00
H667   H     0.62998   0.11349   0.99884   0.00000  Uiso   1.00
C668   C     0.54132   0.16152   0.59337   0.00000  Uiso   1.00
C669   C     0.40935   0.16897   0.93528   0.00000  Uiso   1.00
C670   C     0.39454   0.16998   0.98934   0.00000  Uiso   1.00
C671   C     0.42883   0.16479   0.51615   0.00000  Uiso   1.00
C672   C     0.47888   0.15771   0.98915   0.00000  Uiso   1.00
C673   C     0.49191   0.14966   0.93495   0.00000  Uiso   1.00
C674   C     0.51562   0.15543   0.51500   0.00000  Uiso   1.00
C675   C     0.56107   0.13565   0.98943   0.00000  Uiso   1.00
C676   C     0.57095   0.12248   0.93739   0.00000  Uiso   1.00
C677   C     0.53697   0.12980   0.91069   0.00000  Uiso   1.00
C678   C     0.50928   0.17273   0.56505   0.00000  Uiso   1.00
C679   C     0.58477   0.14047   0.56867   0.00000  Uiso   1.00
C680   C     0.45828   0.15998   0.90727   0.00000  Uiso   1.00
H681   H     0.38226   0.17501   0.91548   0.00000  Uiso   1.00
H682   H     0.41512   0.16446   0.55816   0.00000  Uiso   1.00
H683   H     0.35644   0.17567   0.51063   0.00000  Uiso   1.00
H684   H     0.54521   0.11738   0.87162   0.00000  Uiso   1.00
C685   C     0.54607   0.31179   0.72635   0.00000  Uiso   1.00
C686   C     0.54572   0.02109   0.72717   0.00000  Uiso   1.00
C687   C     0.50068   0.04263   0.74447   0.00000  Uiso   1.00
C688   C     0.45605   0.02113   0.75421   0.00000  Uiso   1.00
C689   C     0.45694   0.31233   0.74759   0.00000  Uiso   1.00
C690   C     0.50133   0.29041   0.74023   0.00000  Uiso   1.00
C691   C     0.63153   0.18963   0.78533   0.00000  Uiso   1.00
H692   H     0.60444   0.20812   0.81334   0.00000  Uiso   1.00
C693   C     0.34763   0.18966   0.78556   0.00000  Uiso   1.00
N694   N     0.38265   0.16666   0.74998   0.00000  Uiso   1.00
C695   C     0.36771   0.14318   0.71490   0.00000  Uiso   1.00
C696   C     0.65161   0.14365   0.71480   0.00000  Uiso   1.00
H697   H     0.64053   0.12547   0.68661   0.00000  Uiso   1.00
N698   N     0.61735   0.16669   0.74999   0.00000  Uiso   1.00
N699   N     0.59105   0.04229   0.70673   0.00000  Uiso   1.00
O700   O     0.62553   0.03893   0.72895   0.00000  Uiso   1.00
O701   O     0.60009   0.06049   0.66214   0.00000  Uiso   1.00
C702   C     0.40837   0.04135   0.77064   0.00000  Uiso   1.00
N703   N     0.37028   0.05712   0.78338   0.00000  Uiso   1.00
C704   C     0.41254   0.29311   0.74350   0.00000  Uiso   1.00
N705   N     0.37709   0.27855   0.73948   0.00000  Uiso   1.00
C706   C     0.36020   0.21501   0.82349   0.00000  Uiso   1.00
N707   N     0.36988   0.23579   0.85395   0.00000  Uiso   1.00
C708   C     0.40141   0.11669   0.67803   0.00000  Uiso   1.00
N709   N     0.42818   0.09521   0.64826   0.00000  Uiso   1.00
C710   C     0.61635   0.10198   0.90999   0.00000  Uiso   1.00
N711   N     0.65284   0.08565   0.88849   0.00000  Uiso   1.00
C712   C     0.47549   0.20650   0.58468   0.00000  Uiso   1.00
N713   N     0.44874   0.23349   0.60046   0.00000  Uiso   1.00
C714   C     0.59263   0.29067   0.70520   0.00000  Uiso   1.00
N715   N     0.62970   0.27380   0.68797   0.00000  Uiso   1.00
O716   O     0.79375   0.22678   0.75000   0.00000  Uiso   1.00
O717   O     0.87294   0.22679   0.75000   0.00000  Uiso   1.00
C718   C     0.83409   0.24580   0.74629   0.00000  Uiso   1.00
O719   O     0.77441   0.16665   0.82549   0.00000  Uiso   1.00
O720   O     0.85360   0.16666   0.82549   0.00000  Uiso   1.00
C721   C     0.80725   0.16390   0.84997   0.00000  Uiso   1.00
Cu722  Cu    0.78645   0.16666   0.75000   0.00000  Uiso   1.00
Cu723  Cu    0.88022   0.16667   0.75000   0.00000  Uiso   1.00
O724   O     0.79373   0.10654   0.74999   0.00000  Uiso   1.00
O725   O     0.87292   0.10655   0.74999   0.00000  Uiso   1.00
O726   O     0.81306   0.16667   0.67451   0.00000  Uiso   1.00
O727   O     0.89225   0.16668   0.67451   0.00000  Uiso   1.00
C728   C     0.83363   0.08735   0.74870   0.00000  Uiso   1.00
C729   C     0.85952   0.16666   0.65005   0.00000  Uiso   1.00
C730   C     0.92879   0.12905   0.51672   0.00000  Uiso   1.00
H731   H     0.94354   0.13216   0.58981   0.00000  Uiso   1.00
H732   H     0.96332   0.11349   0.99884   0.00000  Uiso   1.00
C733   C     0.87466   0.16152   0.59337   0.00000  Uiso   1.00
C734   C     0.74268   0.16897   0.93528   0.00000  Uiso   1.00
C735   C     0.72787   0.16998   0.98934   0.00000  Uiso   1.00
C736   C     0.76216   0.16479   0.51615   0.00000  Uiso   1.00
C737   C     0.81221   0.15771   0.98915   0.00000  Uiso   1.00
C738   C     0.82524   0.14966   0.93495   0.00000  Uiso   1.00
C739   C     0.84895   0.15543   0.51500   0.00000  Uiso   1.00
C740   C     0.89440   0.13565   0.98943   0.00000  Uiso   1.00
C741   C     0.90428   0.12248   0.93739   0.00000  Uiso   1.00
C742   C     0.87030   0.12980   0.91069   0.00000  Uiso   1.00
C743   C     0.84262   0.17273   0.56505   0.00000  Uiso   1.00
C744   C     0.91811   0.14047   0.56867   0.00000  Uiso   1.00
C745   C     0.79161   0.15998   0.90727   0.00000  Uiso   1.00
H746   H     0.71559   0.17501   0.91548   0.00000  Uiso   1.00
H747   H     0.74845   0.16446   0.55816   0.00000  Uiso   1.00
H748   H     0.68978   0.17567   0.51063   0.00000  Uiso   1.00
H749   H     0.87855   0.11738   0.87162   0.00000  Uiso   1.00
C750   C     0.87941   0.31179   0.72635   0.00000  Uiso   1.00
C751   C     0.87905   0.02109   0.72717   0.00000  Uiso   1.00
C752   C     0.83401   0.04263   0.74447   0.00000  Uiso   1.00
C753   C     0.78938   0.02113   0.75421   0.00000  Uiso   1.00
C754   C     0.79027   0.31233   0.74759   0.00000  Uiso   1.00
C755   C     0.83466   0.29041   0.74023   0.00000  Uiso   1.00
C756   C     0.96486   0.18963   0.78533   0.00000  Uiso   1.00
H757   H     0.93777   0.20812   0.81334   0.00000  Uiso   1.00
C758   C     0.68096   0.18966   0.78556   0.00000  Uiso   1.00
N759   N     0.71598   0.16666   0.74998   0.00000  Uiso   1.00
C760   C     0.70104   0.14318   0.71490   0.00000  Uiso   1.00
C761   C     0.98494   0.14365   0.71480   0.00000  Uiso   1.00
H762   H     0.97386   0.12547   0.68661   0.00000  Uiso   1.00
N763   N     0.95069   0.16669   0.74999   0.00000  Uiso   1.00
N764   N     0.92439   0.04229   0.70673   0.00000  Uiso   1.00
O765   O     0.95887   0.03893   0.72895   0.00000  Uiso   1.00
O766   O     0.93343   0.06049   0.66214   0.00000  Uiso   1.00
C767   C     0.74170   0.04135   0.77064   0.00000  Uiso   1.00
N768   N     0.70361   0.05712   0.78338   0.00000  Uiso   1.00
C769   C     0.74587   0.29311   0.74350   0.00000  Uiso   1.00
N770   N     0.71043   0.27855   0.73948   0.00000  Uiso   1.00
C771   C     0.69353   0.21501   0.82349   0.00000  Uiso   1.00
N772   N     0.70322   0.23579   0.85395   0.00000  Uiso   1.00
C773   C     0.73474   0.11669   0.67803   0.00000  Uiso   1.00
N774   N     0.76151   0.09521   0.64826   0.00000  Uiso   1.00
C775   C     0.94968   0.10198   0.90999   0.00000  Uiso   1.00
N776   N     0.98617   0.08565   0.88849   0.00000  Uiso   1.00
C777   C     0.80883   0.20650   0.58468   0.00000  Uiso   1.00
N778   N     0.78207   0.23349   0.60046   0.00000  Uiso   1.00
C779   C     0.92596   0.29067   0.70520   0.00000  Uiso   1.00
N780   N     0.96303   0.27380   0.68797   0.00000  Uiso   1.00
O781   O     0.12708   0.56011   0.75000   0.00000  Uiso   1.00
O782   O     0.20627   0.56012   0.75000   0.00000  Uiso   1.00
C783   C     0.16742   0.57913   0.74629   0.00000  Uiso   1.00
O784   O     0.10775   0.49998   0.82549   0.00000  Uiso   1.00
O785   O     0.18694   0.49999   0.82549   0.00000  Uiso   1.00
C786   C     0.14058   0.49724   0.84997   0.00000  Uiso   1.00
Cu787  Cu    0.11978   0.49999   0.75000   0.00000  Uiso   1.00
Cu788  Cu    0.21355   0.50001   0.75000   0.00000  Uiso   1.00
O789   O     0.12706   0.43988   0.74999   0.00000  Uiso   1.00
O790   O     0.20625   0.43989   0.74999   0.00000  Uiso   1.00
O791   O     0.14640   0.50001   0.67451   0.00000  Uiso   1.00
O792   O     0.22559   0.50002   0.67451   0.00000  Uiso   1.00
C793   C     0.16697   0.42068   0.74870   0.00000  Uiso   1.00
C794   C     0.19285   0.49999   0.65005   0.00000  Uiso   1.00
C795   C     0.26212   0.46238   0.51672   0.00000  Uiso   1.00
H796   H     0.27688   0.46549   0.58981   0.00000  Uiso   1.00
H797   H     0.29665   0.44682   0.99884   0.00000  Uiso   1.00
C798   C     0.20799   0.49485   0.59337   0.00000  Uiso   1.00
C799   C     0.07602   0.50231   0.93528   0.00000  Uiso   1.00
C800   C     0.06121   0.50332   0.98934   0.00000  Uiso   1.00
C801   C     0.09549   0.49812   0.51615   0.00000  Uiso   1.00
C802   C     0.14555   0.49105   0.98915   0.00000  Uiso   1.00
C803   C     0.15858   0.48299   0.93495   0.00000  Uiso   1.00
C804   C     0.18229   0.48876   0.51500   0.00000  Uiso   1.00
C805   C     0.22774   0.46899   0.98943   0.00000  Uiso   1.00
C806   C     0.23762   0.45582   0.93739   0.00000  Uiso   1.00
C807   C     0.20363   0.46313   0.91069   0.00000  Uiso   1.00
C808   C     0.17595   0.50606   0.56505   0.00000  Uiso   1.00
C809   C     0.25144   0.47380   0.56867   0.00000  Uiso   1.00
C810   C     0.12495   0.49331   0.90727   0.00000  Uiso   1.00
H811   H     0.04893   0.50834   0.91548   0.00000  Uiso   1.00
H812   H     0.08179   0.49779   0.55816   0.00000  Uiso   1.00
H813   H     0.02311   0.50900   0.51063   0.00000  Uiso   1.00
H814   H     0.21188   0.45071   0.87162   0.00000  Uiso   1.00
C815   C     0.21274   0.64512   0.72635   0.00000  Uiso   1.00
C816   C     0.21239   0.35442   0.72717   0.00000  Uiso   1.00
C817   C     0.16734   0.37596   0.74447   0.00000  Uiso   1.00
C818   C     0.12271   0.35446   0.75421   0.00000  Uiso   1.00
C819   C     0.12360   0.64566   0.74759   0.00000  Uiso   1.00
C820   C     0.16799   0.62374   0.74023   0.00000  Uiso   1.00
C821   C     0.29820   0.52296   0.78533   0.00000  Uiso   1.00
H822   H     0.27110   0.54146   0.81334   0.00000  Uiso   1.00
C823   C     0.01429   0.52300   0.78556   0.00000  Uiso   1.00
N824   N     0.04931   0.49999   0.74998   0.00000  Uiso   1.00
C825   C     0.03438   0.47652   0.71490   0.00000  Uiso   1.00
C826   C     0.31828   0.47699   0.71480   0.00000  Uiso   1.00
H827   H     0.30720   0.45880   0.68661   0.00000  Uiso   1.00
N828   N     0.28402   0.50002   0.74999   0.00000  Uiso   1.00
N829   N     0.25772   0.37562   0.70673   0.00000  Uiso   1.00
O830   O     0.29220   0.37227   0.72895   0.00000  Uiso   1.00
O831   O     0.26676   0.39382   0.66214   0.00000  Uiso   1.00
C832   C     0.07503   0.37468   0.77064   0.00000  Uiso   1.00
N833   N     0.03694   0.39045   0.78338   0.00000  Uiso   1.00
C834   C     0.07921   0.62645   0.74350   0.00000  Uiso   1.00
N835   N     0.04376   0.61188   0.73948   0.00000  Uiso   1.00
C836   C     0.02687   0.54834   0.82349   0.00000  Uiso   1.00
N837   N     0.03655   0.56913   0.85395   0.00000  Uiso   1.00
C838   C     0.06807   0.45002   0.67803   0.00000  Uiso   1.00
N839   N     0.09485   0.42854   0.64826   0.00000  Uiso   1.00
C840   C     0.28301   0.43531   0.90999   0.00000  Uiso   1.00
N841   N     0.31950   0.41898   0.88849   0.00000  Uiso   1.00
C842   C     0.14216   0.53984   0.58468   0.00000  Uiso   1.00
N843   N     0.11541   0.56682   0.60046   0.00000  Uiso   1.00
C844   C     0.25929   0.62401   0.70520   0.00000  Uiso   1.00
N845   N     0.29637   0.60713   0.68797   0.00000  Uiso   1.00
O846   O     0.46042   0.56011   0.75000   0.00000  Uiso   1.00
O847   O     0.53961   0.56012   0.75000   0.00000  Uiso   1.00
C848   C     0.50075   0.57913   0.74629   0.00000  Uiso   1.00
O849   O     0.44108   0.49998   0.82549   0.00000  Uiso   1.00
O850   O     0.52027   0.49999   0.82549   0.00000  Uiso   1.00
C851   C     0.47391   0.49724   0.84997   0.00000  Uiso   1.00
Cu852  Cu    0.45311   0.49999   0.75000   0.00000  Uiso   1.00
Cu853  Cu    0.54689   0.50001   0.75000   0.00000  Uiso   1.00
O854   O     0.46039   0.43988   0.74999   0.00000  Uiso   1.00
O855   O     0.53958   0.43989   0.74999   0.00000  Uiso   1.00
O856   O     0.47973   0.50001   0.67451   0.00000  Uiso   1.00
O857   O     0.55892   0.50002   0.67451   0.00000  Uiso   1.00
C858   C     0.50030   0.42068   0.74870   0.00000  Uiso   1.00
C859   C     0.52619   0.49999   0.65005   0.00000  Uiso   1.00
C860   C     0.59545   0.46238   0.51672   0.00000  Uiso   1.00
H861   H     0.61021   0.46549   0.58981   0.00000  Uiso   1.00
H862   H     0.62998   0.44682   0.99884   0.00000  Uiso   1.00
C863   C     0.54132   0.49485   0.59337   0.00000  Uiso   1.00
C864   C     0.40935   0.50231   0.93528   0.00000  Uiso   1.00
C865   C     0.39454   0.50332   0.98934   0.00000  Uiso   1.00
C866   C     0.42883   0.49812   0.51615   0.00000  Uiso   1.00
C867   C     0.47888   0.49105   0.98915   0.00000  Uiso   1.00
C868   C     0.49191   0.48299   0.93495   0.00000  Uiso   1.00
C869   C     0.51562   0.48876   0.51500   0.00000  Uiso   1.00
C870   C     0.56107   0.46899   0.98943   0.00000  Uiso   1.00
C871   C     0.57095   0.45582   0.93739   0.00000  Uiso   1.00
C872   C     0.53697   0.46313   0.91069   0.00000  Uiso   1.00
C873   C     0.50928   0.50606   0.56505   0.00000  Uiso   1.00
C874   C     0.58477   0.47380   0.56867   0.00000  Uiso   1.00
C875   C     0.45828   0.49331   0.90727   0.00000  Uiso   1.00
H876   H     0.38226   0.50834   0.91548   0.00000  Uiso   1.00
H877   H     0.41512   0.49779   0.55816   0.00000  Uiso   1.00
H878   H     0.35644   0.50900   0.51063   0.00000  Uiso   1.00
H879   H     0.54521   0.45071   0.87162   0.00000  Uiso   1.00
C880   C     0.54607   0.64512   0.72635   0.00000  Uiso   1.00
C881   C     0.54572   0.35442   0.72717   0.00000  Uiso   1.00
C882   C     0.50068   0.37596   0.74447   0.00000  Uiso   1.00
C883   C     0.45605   0.35446   0.75421   0.00000  Uiso   1.00
C884   C     0.45694   0.64566   0.74759   0.00000  Uiso   1.00
C885   C     0.50133   0.62374   0.74023   0.00000  Uiso   1.00
C886   C     0.63153   0.52296   0.78533   0.00000  Uiso   1.00
H887   H     0.60444   0.54146   0.81334   0.00000  Uiso   1.00
C888   C     0.34763   0.52300   0.78556   0.00000  Uiso   1.00
N889   N     0.38265   0.49999   0.74998   0.00000  Uiso   1.00
C890   C     0.36771   0.47652   0.71490   0.00000  Uiso   1.00
C891   C     0.65161   0.47699   0.71480   0.00000  Uiso   1.00
H892   H     0.64053   0.45880   0.68661   0.00000  Uiso   1.00
N893   N     0.61735   0.50002   0.74999   0.00000  Uiso   1.00
N894   N     0.59105   0.37562   0.70673   0.00000  Uiso   1.00
O895   O     0.62553   0.37227   0.72895   0.00000  Uiso   1.00
O896   O     0.60009   0.39382   0.66214   0.00000  Uiso   1.00
C897   C     0.40837   0.37468   0.77064   0.00000  Uiso   1.00
N898   N     0.37028   0.39045   0.78338   0.00000  Uiso   1.00
C899   C     0.41254   0.62645   0.74350   0.00000  Uiso   1.00
N900   N     0.37709   0.61188   0.73948   0.00000  Uiso   1.00
C901   C     0.36020   0.54834   0.82349   0.00000  Uiso   1.00
N902   N     0.36988   0.56913   0.85395   0.00000  Uiso   1.00
C903   C     0.40141   0.45002   0.67803   0.00000  Uiso   1.00
N904   N     0.42818   0.42854   0.64826   0.00000  Uiso   1.00
C905   C     0.61635   0.43531   0.90999   0.00000  Uiso   1.00
N906   N     0.65284   0.41898   0.88849   0.00000  Uiso   1.00
C907   C     0.47549   0.53984   0.58468   0.00000  Uiso   1.00
N908   N     0.44874   0.56682   0.60046   0.00000  Uiso   1.00
C909   C     0.59263   0.62401   0.70520   0.00000  Uiso   1.00
N910   N     0.62970   0.60713   0.68797   0.00000  Uiso   1.00
O911   O     0.79375   0.56011   0.75000   0.00000  Uiso   1.00
O912   O     0.87294   0.56012   0.75000   0.00000  Uiso   1.00
C913   C     0.83409   0.57913   0.74629   0.00000  Uiso   1.00
O914   O     0.77441   0.49998   0.82549   0.00000  Uiso   1.00
O915   O     0.85360   0.49999   0.82549   0.00000  Uiso   1.00
C916   C     0.80725   0.49724   0.84997   0.00000  Uiso   1.00
Cu917  Cu    0.78645   0.49999   0.75000   0.00000  Uiso   1.00
Cu918  Cu    0.88022   0.50001   0.75000   0.00000  Uiso   1.00
O919   O     0.79373   0.43988   0.74999   0.00000  Uiso   1.00
O920   O     0.87292   0.43989   0.74999   0.00000  Uiso   1.00
O921   O     0.81306   0.50001   0.67451   0.00000  Uiso   1.00
O922   O     0.89225   0.50002   0.67451   0.00000  Uiso   1.00
C923   C     0.83363   0.42068   0.74870   0.00000  Uiso   1.00
C924   C     0.85952   0.49999   0.65005   0.00000  Uiso   1.00
C925   C     0.92879   0.46238   0.51672   0.00000  Uiso   1.00
H926   H     0.94354   0.46549   0.58981   0.00000  Uiso   1.00
H927   H     0.96332   0.44682   0.99884   0.00000  Uiso   1.00
C928   C     0.87466   0.49485   0.59337   0.00000  Uiso   1.00
C929   C     0.74268   0.50231   0.93528   0.00000  Uiso   1.00
C930   C     0.72787   0.50332   0.98934   0.00000  Uiso   1.00
C931   C     0.76216   0.49812   0.51615   0.00000  Uiso   1.00
C932   C     0.81221   0.49105   0.98915   0.00000  Uiso   1.00
C933   C     0.82524   0.48299   0.93495   0.00000  Uiso   1.00
C934   C     0.84895   0.48876   0.51500   0.00000  Uiso   1.00
C935   C     0.89440   0.46899   0.98943   0.00000  Uiso   1.00
C936   C     0.90428   0.45582   0.93739   0.00000  Uiso   1.00
C937   C     0.87030   0.46313   0.91069   0.00000  Uiso   1.00
C938   C     0.84262   0.50606   0.56505   0.00000  Uiso   1.00
C939   C     0.91811   0.47380   0.56867   0.00000  Uiso   1.00
C940   C     0.79161   0.49331   0.90727   0.00000  Uiso   1.00
H941   H     0.71559   0.50834   0.91548   0.00000  Uiso   1.00
H942   H     0.74845   0.49779   0.55816   0.00000  Uiso   1.00
H943   H     0.68978   0.50900   0.51063   0.00000  Uiso   1.00
H944   H     0.87855   0.45071   0.87162   0.00000  Uiso   1.00
C945   C     0.87941   0.64512   0.72635   0.00000  Uiso   1.00
C946   C     0.87905   0.35442   0.72717   0.00000  Uiso   1.00
C947   C     0.83401   0.37596   0.74447   0.00000  Uiso   1.00
C948   C     0.78938   0.35446   0.75421   0.00000  Uiso   1.00
C949   C     0.79027   0.64566   0.74759   0.00000  Uiso   1.00
C950   C     0.83466   0.62374   0.74023   0.00000  Uiso   1.00
C951   C     0.96486   0.52296   0.78533   0.00000  Uiso   1.00
H952   H     0.93777   0.54146   0.81334   0.00000  Uiso   1.00
C953   C     0.68096   0.52300   0.78556   0.00000  Uiso   1.00
N954   N     0.71598   0.49999   0.74998   0.00000  Uiso   1.00
C955   C     0.70104   0.47652   0.71490   0.00000  Uiso   1.00
C956   C     0.98494   0.47699   0.71480   0.00000  Uiso   1.00
H957   H     0.97386   0.45880   0.68661   0.00000  Uiso   1.00
N958   N     0.95069   0.50002   0.74999   0.00000  Uiso   1.00
N959   N     0.92439   0.37562   0.70673   0.00000  Uiso   1.00
O960   O     0.95887   0.37227   0.72895   0.00000  Uiso   1.00
O961   O     0.93343   0.39382   0.66214   0.00000  Uiso   1.00
C962   C     0.74170   0.37468   0.77064   0.00000  Uiso   1.00
N963   N     0.70361   0.39045   0.78338   0.00000  Uiso   1.00
C964   C     0.74587   0.62645   0.74350   0.00000  Uiso   1.00
N965   N     0.71043   0.61188   0.73948   0.00000  Uiso   1.00
C966   C     0.69353   0.54834   0.82349   0.00000  Uiso   1.00
N967   N     0.70322   0.56913   0.85395   0.00000  Uiso   1.00
C968   C     0.73474   0.45002   0.67803   0.00000  Uiso   1.00
N969   N     0.76151   0.42854   0.64826   0.00000  Uiso   1.00
C970   C     0.94968   0.43531   0.90999   0.00000  Uiso   1.00
N971   N     0.98617   0.41898   0.88849   0.00000  Uiso   1.00
C972   C     0.80883   0.53984   0.58468   0.00000  Uiso   1.00
N973   N     0.78207   0.56682   0.60046   0.00000  Uiso   1.00
C974   C     0.92596   0.62401   0.70520   0.00000  Uiso   1.00
N975   N     0.96303   0.60713   0.68797   0.00000  Uiso   1.00
O976   O     0.12708   0.89345   0.75000   0.00000  Uiso   1.00
O977   O     0.20627   0.89346   0.75000   0.00000  Uiso   1.00
C978   C     0.16742   0.91247   0.74629   0.00000  Uiso   1.00
O979   O     0.10775   0.83332   0.82549   0.00000  Uiso   1.00
O980   O     0.18694   0.83333   0.82549   0.00000  Uiso   1.00
C981   C     0.14058   0.83057   0.84997   0.00000  Uiso   1.00
Cu982  Cu    0.11978   0.83333   0.75000   0.00000  Uiso   1.00
Cu983  Cu    0.21355   0.83334   0.75000   0.00000  Uiso   1.00
O984   O     0.12706   0.77321   0.74999   0.00000  Uiso   1.00
O985   O     0.20625   0.77322   0.74999   0.00000  Uiso   1.00
O986   O     0.14640   0.83334   0.67451   0.00000  Uiso   1.00
O987   O     0.22559   0.83335   0.67451   0.00000  Uiso   1.00
C988   C     0.16697   0.75402   0.74870   0.00000  Uiso   1.00
C989   C     0.19285   0.83332   0.65005   0.00000  Uiso   1.00
C990   C     0.26212   0.79571   0.51672   0.00000  Uiso   1.00
H991   H     0.27688   0.79883   0.58981   0.00000  Uiso   1.00
H992   H     0.29665   0.78015   0.99884   0.00000  Uiso   1.00
C993   C     0.20799   0.82818   0.59337   0.00000  Uiso   1.00
C994   C     0.07602   0.83564   0.93528   0.00000  Uiso   1.00
C995   C     0.06121   0.83665   0.98934   0.00000  Uiso   1.00
C996   C     0.09549   0.83146   0.51615   0.00000  Uiso   1.00
C997   C     0.14555   0.82438   0.98915   0.00000  Uiso   1.00
C998   C     0.15858   0.81632   0.93495   0.00000  Uiso   1.00
C999   C     0.18229   0.82210   0.51500   0.00000  Uiso   1.00
C1000  C     0.22774   0.80232   0.98943   0.00000  Uiso   1.00
C1001  C     0.23762   0.78915   0.93739   0.00000  Uiso   1.00
C1002  C     0.20363   0.79647   0.91069   0.00000  Uiso   1.00
C1003  C     0.17595   0.83939   0.56505   0.00000  Uiso   1.00
C1004  C     0.25144   0.80714   0.56867   0.00000  Uiso   1.00
C1005  C     0.12495   0.82665   0.90727   0.00000  Uiso   1.00
H1006  H     0.04893   0.84168   0.91548   0.00000  Uiso   1.00
H1007  H     0.08179   0.83113   0.55816   0.00000  Uiso   1.00
H1008  H     0.02311   0.84233   0.51063   0.00000  Uiso   1.00
H1009  H     0.21188   0.78405   0.87162   0.00000  Uiso   1.00
C1010  C     0.21274   0.97845   0.72635   0.00000  Uiso   1.00
C1011  C     0.21239   0.68775   0.72717   0.00000  Uiso   1.00
C1012  C     0.16734   0.70929   0.74447   0.00000  Uiso   1.00
C1013  C     0.12271   0.68780   0.75421   0.00000  Uiso   1.00
C1014  C     0.12360   0.97899   0.74759   0.00000  Uiso   1.00
C1015  C     0.16799   0.95708   0.74023   0.00000  Uiso   1.00
C1016  C     0.29820   0.85630   0.78533   0.00000  Uiso   1.00
H1017  H     0.27110   0.87479   0.81334   0.00000  Uiso   1.00
C1018  C     0.01429   0.85633   0.78556   0.00000  Uiso   1.00
N1019  N     0.04931   0.83332   0.74998   0.00000  Uiso   1.00
C1020  C     0.03438   0.80985   0.71490   0.00000  Uiso   1.00
C1021  C     0.31828   0.81032   0.71480   0.00000  Uiso   1.00
H1022  H     0.30720   0.79214   0.68661   0.00000  Uiso   1.00
N1023  N     0.28402   0.83335   0.74999   0.00000  Uiso   1.00
N1024  N     0.25772   0.70895   0.70673   0.00000  Uiso   1.00
O1025  O     0.29220   0.70560   0.72895   0.00000  Uiso   1.00
O1026  O     0.26676   0.72716   0.66214   0.00000  Uiso   1.00
C1027  C     0.07503   0.70801   0.77064   0.00000  Uiso   1.00
N1028  N     0.03694   0.72379   0.78338   0.00000  Uiso   1.00
C1029  C     0.07921   0.95978   0.74350   0.00000  Uiso   1.00
N1030  N     0.04376   0.94522   0.73948   0.00000  Uiso   1.00
C1031  C     0.02687   0.88167   0.82349   0.00000  Uiso   1.00
N1032  N     0.03655   0.90246   0.85395   0.00000  Uiso   1.00
C1033  C     0.06807   0.78336   0.67803   0.00000  Uiso   1.00
N1034  N     0.09485   0.76188   0.64826   0.00000  Uiso   1.00
C1035  C     0.28301   0.76865   0.90999   0.00000  Uiso   1.00
N1036  N     0.31950   0.75232   0.88849   0.00000  Uiso   1.00
C1037  C     0.14216   0.87317   0.58468   0.00000  Uiso   1.00
N1038  N     0.11541   0.90016   0.60046   0.00000  Uiso   1.00
C1039  C     0.25929   0.95734   0.70520   0.00000  Uiso   1.00
N1040  N     0.29637   0.94047   0.68797   0.00000  Uiso   1.00
O1041  O     0.46042   0.89345   0.75000   0.00000  Uiso   1.00
O1042  O     0.53961   0.89346   0.75000   0.00000  Uiso   1.00
C1043  C     0.50075   0.91247   0.74629   0.00000  Uiso   1.00
O1044  O     0.44108   0.83332   0.82549   0.00000  Uiso   1.00
O1045  O     0.52027   0.83333   0.82549   0.00000  Uiso   1.00
C1046  C     0.47391   0.83057   0.84997   0.00000  Uiso   1.00
Cu1047 Cu    0.45311   0.83333   0.75000   0.00000  Uiso   1.00
Cu1048 Cu    0.54689   0.83334   0.75000   0.00000  Uiso   1.00
O1049  O     0.46039   0.77321   0.74999   0.00000  Uiso   1.00
O1050  O     0.53958   0.77322   0.74999   0.00000  Uiso   1.00
O1051  O     0.47973   0.83334   0.67451   0.00000  Uiso   1.00
O1052  O     0.55892   0.83335   0.67451   0.00000  Uiso   1.00
C1053  C     0.50030   0.75402   0.74870   0.00000  Uiso   1.00
C1054  C     0.52619   0.83332   0.65005   0.00000  Uiso   1.00
C1055  C     0.59545   0.79571   0.51672   0.00000  Uiso   1.00
H1056  H     0.61021   0.79883   0.58981   0.00000  Uiso   1.00
H1057  H     0.62998   0.78015   0.99884   0.00000  Uiso   1.00
C1058  C     0.54132   0.82818   0.59337   0.00000  Uiso   1.00
C1059  C     0.40935   0.83564   0.93528   0.00000  Uiso   1.00
C1060  C     0.39454   0.83665   0.98934   0.00000  Uiso   1.00
C1061  C     0.42883   0.83146   0.51615   0.00000  Uiso   1.00
C1062  C     0.47888   0.82438   0.98915   0.00000  Uiso   1.00
C1063  C     0.49191   0.81632   0.93495   0.00000  Uiso   1.00
C1064  C     0.51562   0.82210   0.51500   0.00000  Uiso   1.00
C1065  C     0.56107   0.80232   0.98943   0.00000  Uiso   1.00
C1066  C     0.57095   0.78915   0.93739   0.00000  Uiso   1.00
C1067  C     0.53697   0.79647   0.91069   0.00000  Uiso   1.00
C1068  C     0.50928   0.83939   0.56505   0.00000  Uiso   1.00
C1069  C     0.58477   0.80714   0.56867   0.00000  Uiso   1.00
C1070  C     0.45828   0.82665   0.90727   0.00000  Uiso   1.00
H1071  H     0.38226   0.84168   0.91548   0.00000  Uiso   1.00
H1072  H     0.41512   0.83113   0.55816   0.00000  Uiso   1.00
H1073  H     0.35644   0.84233   0.51063   0.00000  Uiso   1.00
H1074  H     0.54521   0.78405   0.87162   0.00000  Uiso   1.00
C1075  C     0.54607   0.97845   0.72635   0.00000  Uiso   1.00
C1076  C     0.54572   0.68775   0.72717   0.00000  Uiso   1.00
C1077  C     0.50068   0.70929   0.74447   0.00000  Uiso   1.00
C1078  C     0.45605   0.68780   0.75421   0.00000  Uiso   1.00
C1079  C     0.45694   0.97899   0.74759   0.00000  Uiso   1.00
C1080  C     0.50133   0.95708   0.74023   0.00000  Uiso   1.00
C1081  C     0.63153   0.85630   0.78533   0.00000  Uiso   1.00
H1082  H     0.60444   0.87479   0.81334   0.00000  Uiso   1.00
C1083  C     0.34763   0.85633   0.78556   0.00000  Uiso   1.00
N1084  N     0.38265   0.83332   0.74998   0.00000  Uiso   1.00
C1085  C     0.36771   0.80985   0.71490   0.00000  Uiso   1.00
C1086  C     0.65161   0.81032   0.71480   0.00000  Uiso   1.00
H1087  H     0.64053   0.79214   0.68661   0.00000  Uiso   1.00
N1088  N     0.61735   0.83335   0.74999   0.00000  Uiso   1.00
N1089  N     0.59105   0.70895   0.70673   0.00000  Uiso   1.00
O1090  O     0.62553   0.70560   0.72895   0.00000  Uiso   1.00
O1091  O     0.60009   0.72716   0.66214   0.00000  Uiso   1.00
C1092  C     0.40837   0.70801   0.77064   0.00000  Uiso   1.00
N1093  N     0.37028   0.72379   0.78338   0.00000  Uiso   1.00
C1094  C     0.41254   0.95978   0.74350   0.00000  Uiso   1.00
N1095  N     0.37709   0.94522   0.73948   0.00000  Uiso   1.00
C1096  C     0.36020   0.88167   0.82349   0.00000  Uiso   1.00
N1097  N     0.36988   0.90246   0.85395   0.00000  Uiso   1.00
C1098  C     0.40141   0.78336   0.67803   0.00000  Uiso   1.00
N1099  N     0.42818   0.76188   0.64826   0.00000  Uiso   1.00
C1100  C     0.61635   0.76865   0.90999   0.00000  Uiso   1.00
N1101  N     0.65284   0.75232   0.88849   0.00000  Uiso   1.00
C1102  C     0.47549   0.87317   0.58468   0.00000  Uiso   1.00
N1103  N     0.44874   0.90016   0.60046   0.00000  Uiso   1.00
C1104  C     0.59263   0.95734   0.70520   0.00000  Uiso   1.00
N1105  N     0.62970   0.94047   0.68797   0.00000  Uiso   1.00
O1106  O     0.79375   0.89345   0.75000   0.00000  Uiso   1.00
O1107  O     0.87294   0.89346   0.75000   0.00000  Uiso   1.00
C1108  C     0.83409   0.91247   0.74629   0.00000  Uiso   1.00
O1109  O     0.77441   0.83332   0.82549   0.00000  Uiso   1.00
O1110  O     0.85360   0.83333   0.82549   0.00000  Uiso   1.00
C1111  C     0.80725   0.83057   0.84997   0.00000  Uiso   1.00
Cu1112 Cu    0.78645   0.83333   0.75000   0.00000  Uiso   1.00
Cu1113 Cu    0.88022   0.83334   0.75000   0.00000  Uiso   1.00
O1114  O     0.79373   0.77321   0.74999   0.00000  Uiso   1.00
O1115  O     0.87292   0.77322   0.74999   0.00000  Uiso   1.00
O1116  O     0.81306   0.83334   0.67451   0.00000  Uiso   1.00
O1117  O     0.89225   0.83335   0.67451   0.00000  Uiso   1.00
C1118  C     0.83363   0.75402   0.74870   0.00000  Uiso   1.00
C1119  C     0.85952   0.83332   0.65005   0.00000  Uiso   1.00
C1120  C     0.92879   0.79571   0.51672   0.00000  Uiso   1.00
H1121  H     0.94354   0.79883   0.58981   0.00000  Uiso   1.00
H1122  H     0.96332   0.78015   0.99884   0.00000  Uiso   1.00
C1123  C     0.87466   0.82818   0.59337   0.00000  Uiso   1.00
C1124  C     0.74268   0.83564   0.93528   0.00000  Uiso   1.00
C1125  C     0.72787   0.83665   0.98934   0.00000  Uiso   1.00
C1126  C     0.76216   0.83146   0.51615   0.00000  Uiso   1.00
C1127  C     0.81221   0.82438   0.98915   0.00000  Uiso   1.00
C1128  C     0.82524   0.81632   0.93495   0.00000  Uiso   1.00
C1129  C     0.84895   0.82210   0.51500   0.00000  Uiso   1.00
C1130  C     0.89440   0.80232   0.98943   0.00000  Uiso   1.00
C1131  C     0.90428   0.78915   0.93739   0.00000  Uiso   1.00
C1132  C     0.87030   0.79647   0.91069   0.00000  Uiso   1.00
C1133  C     0.84262   0.83939   0.56505   0.00000  Uiso   1.00
C1134  C     0.91811   0.80714   0.56867   0.00000  Uiso   1.00
C1135  C     0.79161   0.82665   0.90727   0.00000  Uiso   1.00
H1136  H     0.71559   0.84168   0.91548   0.00000  Uiso   1.00
H1137  H     0.74845   0.83113   0.55816   0.00000  Uiso   1.00
H1138  H     0.68978   0.84233   0.51063   0.00000  Uiso   1.00
H1139  H     0.87855   0.78405   0.87162   0.00000  Uiso   1.00
C1140  C     0.87941   0.97845   0.72635   0.00000  Uiso   1.00
C1141  C     0.87905   0.68775   0.72717   0.00000  Uiso   1.00
C1142  C     0.83401   0.70929   0.74447   0.00000  Uiso   1.00
C1143  C     0.78938   0.68780   0.75421   0.00000  Uiso   1.00
C1144  C     0.79027   0.97899   0.74759   0.00000  Uiso   1.00
C1145  C     0.83466   0.95708   0.74023   0.00000  Uiso   1.00
C1146  C     0.96486   0.85630   0.78533   0.00000  Uiso   1.00
H1147  H     0.93777   0.87479   0.81334   0.00000  Uiso   1.00
C1148  C     0.68096   0.85633   0.78556   0.00000  Uiso   1.00
N1149  N     0.71598   0.83332   0.74998   0.00000  Uiso   1.00
C1150  C     0.70104   0.80985   0.71490   0.00000  Uiso   1.00
C1151  C     0.98494   0.81032   0.71480   0.00000  Uiso   1.00
H1152  H     0.97386   0.79214   0.68661   0.00000  Uiso   1.00
N1153  N     0.95069   0.83335   0.74999   0.00000  Uiso   1.00
N1154  N     0.92439   0.70895   0.70673   0.00000  Uiso   1.00
O1155  O     0.95887   0.70560   0.72895   0.00000  Uiso   1.00
O1156  O     0.93343   0.72716   0.66214   0.00000  Uiso   1.00
C1157  C     0.74170   0.70801   0.77064   0.00000  Uiso   1.00
N1158  N     0.70361   0.72379   0.78338   0.00000  Uiso   1.00
C1159  C     0.74587   0.95978   0.74350   0.00000  Uiso   1.00
N1160  N     0.71043   0.94522   0.73948   0.00000  Uiso   1.00
C1161  C     0.69353   0.88167   0.82349   0.00000  Uiso   1.00
N1162  N     0.70322   0.90246   0.85395   0.00000  Uiso   1.00
C1163  C     0.73474   0.78336   0.67803   0.00000  Uiso   1.00
N1164  N     0.76151   0.76188   0.64826   0.00000  Uiso   1.00
C1165  C     0.94968   0.76865   0.90999   0.00000  Uiso   1.00
N1166  N     0.98617   0.75232   0.88849   0.00000  Uiso   1.00
C1167  C     0.80883   0.87317   0.58468   0.00000  Uiso   1.00
N1168  N     0.78207   0.90016   0.60046   0.00000  Uiso   1.00
C1169  C     0.92596   0.95734   0.70520   0.00000  Uiso   1.00
N1170  N     0.96303   0.94047   0.68797   0.00000  Uiso   1.00
loop_
_geom_bond_atom_site_label_1
_geom_bond_atom_site_label_2
_geom_bond_distance
_geom_bond_site_symmetry_2
_ccdc_geom_bond_type
O1     Cu7     1.986   .     S
O1     C3      1.293   .     A
O2     C3      1.301   .     A
O2     Cu8     1.983   .     S
C3     C40     1.475   .     S
O4     Cu7     1.956   .     S
O4     C6      1.301   .     A
O5     Cu8     1.944   .     S
O5     C6      1.296   .     A
C6     C30     1.478   .     S
Cu7    Cu8     2.681   .     S
Cu7    N44     2.015   .     S
Cu7    O11     1.944   .     S
Cu7    O9      1.983   .     S
Cu8    N48     2.014   .     S
Cu8    O12     1.956   .     S
Cu8    O10     1.986   .     S
O9     C13     1.291   .     A
O10    C13     1.300   .     A
O11    C14     1.294   .     A
O12    C14     1.295   .     A
C13    C37     1.471   .     S
C14    C18     1.463   .     S
C15    C29     1.386   .     A
C15    H602    1.083   1_554 S
C15    C610    1.409   1_554 S
H16    C29     1.084   .     S
H17    C600    1.083   .     S
C18    C29     1.396   .     A
C18    C28     1.405   .     A
C19    C20     1.388   .     A
C19    H31     1.081   .     S
C19    C30     1.404   .     A
C20    C606    1.390   .     S
C20    H618    1.082   .     S
C21    H32     1.080   .     S
C21    C605    1.390   1_554 S
C21    C607    1.414   1_554 S
C22    C23     1.414   .     A
C22    C606    1.414   .     S
C22    C609    1.424   .     S
C23    C27     1.410   .     A
C23    C30     1.422   .     A
C24    C28     1.416   .     A
C24    C607    1.424   1_554 S
C24    C610    1.425   1_554 S
C25    C26     1.406   .     A
C25    C600    1.409   .     S
C25    C609    1.425   .     S
C26    C27     1.391   .     A
C26    C60     1.445   .     S
C27    H34     1.081   .     S
C28    C62     1.453   .     S
H33    C605    1.082   1_554 S
C35    C40     1.414   .     A
C35    C64     1.450   .     S
C35    C231    1.399   .     S
C36    C37     1.414   .     A
C36    N49     1.435   .     S
C36    C425    1.399   1_545 S
C37    C38     1.418   .     A
C38    C52     1.455   .     S
C38    C429    1.392   1_545 S
C39    C54     1.453   .     S
C39    C40     1.415   .     A
C39    C233    1.392   .     S
C41    H42     1.083   .     S
C41    N48     1.362   .     A
C41    C108    1.415   .     S
C43    N44     1.376   .     A
C43    C56     1.438   .     S
C43    C171    1.415   1_455 S
N44    C45     1.377   .     A
C45    C58     1.439   .     S
C45    C176    1.414   1_455 S
C46    N48     1.360   .     A
C46    H47     1.081   .     S
C46    C110    1.414   .     S
N49    O50     1.301   .     A
N49    O51     1.301   .     A
C52    N53     1.157   .     T
C54    N55     1.156   .     T
C56    N57     1.158   .     T
C58    N59     1.158   .     T
C60    N61     1.156   .     T
C62    N63     1.158   .     T
C64    N65     1.157   .     T
O66    Cu72    1.986   .     S
O66    C68     1.293   .     A
O67    C68     1.301   .     A
O67    Cu73    1.983   .     S
C68    C105    1.475   .     S
O69    Cu72    1.956   .     S
O69    C71     1.301   .     A
O70    Cu73    1.944   .     S
O70    C71     1.296   .     A
C71    C95     1.478   .     S
Cu72   Cu73    2.681   .     S
Cu72   N109    2.015   .     S
Cu72   O76     1.944   .     S
Cu72   O74     1.983   .     S
Cu73   N113    2.014   .     S
Cu73   O77     1.956   .     S
Cu73   O75     1.986   .     S
O74    C78     1.291   .     A
O75    C78     1.300   .     A
O76    C79     1.294   .     A
O77    C79     1.295   .     A
C78    C102    1.471   .     S
C79    C83     1.463   .     S
C80    C94     1.386   .     A
C80    H667    1.083   1_554 S
C80    C675    1.409   1_554 S
H81    C94     1.084   .     S
H82    C665    1.083   .     S
C83    C94     1.396   .     A
C83    C93     1.405   .     A
C84    C85     1.388   .     A
C84    H96     1.081   .     S
C84    C95     1.404   .     A
C85    C671    1.390   .     S
C85    H683    1.082   .     S
C86    H97     1.080   .     S
C86    C670    1.390   1_554 S
C86    C672    1.414   1_554 S
C87    C88     1.414   .     A
C87    C671    1.414   .     S
C87    C674    1.424   .     S
C88    C92     1.410   .     A
C88    C95     1.422   .     A
C89    C93     1.416   .     A
C89    C672    1.424   1_554 S
C89    C675    1.425   1_554 S
C90    C91     1.406   .     A
C90    C665    1.409   .     S
C90    C674    1.425   .     S
C91    C92     1.391   .     A
C91    C125    1.445   .     S
C92    H99     1.081   .     S
C93    C127    1.453   .     S
H98    C670    1.082   1_554 S
C100   C105    1.414   .     A
C100   C129    1.450   .     S
C100   C296    1.399   .     S
C101   C102    1.414   .     A
C101   N114    1.435   .     S
C101   C490    1.399   1_545 S
C102   C103    1.418   .     A
C103   C117    1.455   .     S
C103   C494    1.392   1_545 S
C104   C119    1.453   .     S
C104   C105    1.415   .     A
C104   C298    1.392   .     S
C106   H107    1.083   .     S
C106   N113    1.362   .     A
C106   C173    1.415   .     S
C108   N109    1.376   .     A
C108   C121    1.438   .     S
N109   C110    1.377   .     A
C110   C123    1.439   .     S
C111   N113    1.360   .     A
C111   H112    1.081   .     S
C111   C175    1.414   .     S
N114   O115    1.301   .     A
N114   O116    1.301   .     A
C117   N118    1.157   .     T
C119   N120    1.156   .     T
C121   N122    1.158   .     T
C123   N124    1.158   .     T
C125   N126    1.156   .     T
C127   N128    1.158   .     T
C129   N130    1.157   .     T
O131   Cu137   1.986   .     S
O131   C133    1.293   .     A
O132   C133    1.301   .     A
O132   Cu138   1.983   .     S
C133   C170    1.475   .     S
O134   Cu137   1.956   .     S
O134   C136    1.301   .     A
O135   Cu138   1.944   .     S
O135   C136    1.296   .     A
C136   C160    1.478   .     S
Cu137  Cu138   2.681   .     S
Cu137  N174    2.015   .     S
Cu137  O141    1.944   .     S
Cu137  O139    1.983   .     S
Cu138  N178    2.014   .     S
Cu138  O142    1.956   .     S
Cu138  O140    1.986   .     S
O139   C143    1.291   .     A
O140   C143    1.300   .     A
O141   C144    1.294   .     A
O142   C144    1.295   .     A
C143   C167    1.471   .     S
C144   C148    1.463   .     S
C145   C159    1.386   .     A
C145   H732    1.083   1_554 S
C145   C740    1.409   1_554 S
H146   C159    1.084   .     S
H147   C730    1.083   .     S
C148   C159    1.396   .     A
C148   C158    1.405   .     A
C149   C150    1.388   .     A
C149   H161    1.081   .     S
C149   C160    1.404   .     A
C150   C736    1.390   .     S
C150   H748    1.082   .     S
C151   H162    1.080   .     S
C151   C735    1.390   1_554 S
C151   C737    1.414   1_554 S
C152   C153    1.414   .     A
C152   C736    1.414   .     S
C152   C739    1.424   .     S
C153   C157    1.410   .     A
C153   C160    1.422   .     A
C154   C158    1.416   .     A
C154   C737    1.424   1_554 S
C154   C740    1.425   1_554 S
C155   C156    1.406   .     A
C155   C730    1.409   .     S
C155   C739    1.425   .     S
C156   C157    1.391   .     A
C156   C190    1.445   .     S
C157   H164    1.081   .     S
C158   C192    1.453   .     S
H163   C735    1.082   1_554 S
C165   C170    1.414   .     A
C165   C194    1.450   .     S
C165   C361    1.399   .     S
C166   C167    1.414   .     A
C166   N179    1.435   .     S
C166   C555    1.399   1_545 S
C167   C168    1.418   .     A
C168   C182    1.455   .     S
C168   C559    1.392   1_545 S
C169   C184    1.453   .     S
C169   C170    1.415   .     A
C169   C363    1.392   .     S
C171   H172    1.083   .     S
C171   N178    1.362   .     A
C171   C43     1.415   1_655 S
C173   N174    1.376   .     A
C173   C186    1.438   .     S
N174   C175    1.377   .     A
C175   C188    1.439   .     S
C176   N178    1.360   .     A
C176   H177    1.081   .     S
C176   C45     1.414   1_655 S
N179   O180    1.301   .     A
N179   O181    1.301   .     A
C182   N183    1.157   .     T
C184   N185    1.156   .     T
C186   N187    1.158   .     T
C188   N189    1.158   .     T
C190   N191    1.156   .     T
C192   N193    1.158   .     T
C194   N195    1.157   .     T
O196   Cu202   1.986   .     S
O196   C198    1.293   .     A
O197   C198    1.301   .     A
O197   Cu203   1.983   .     S
C198   C235    1.475   .     S
O199   Cu202   1.956   .     S
O199   C201    1.301   .     A
O200   Cu203   1.944   .     S
O200   C201    1.296   .     A
C201   C225    1.478   .     S
Cu202  Cu203   2.681   .     S
Cu202  N239    2.015   .     S
Cu202  O206    1.944   .     S
Cu202  O204    1.983   .     S
Cu203  N243    2.014   .     S
Cu203  O207    1.956   .     S
Cu203  O205    1.986   .     S
O204   C208    1.291   .     A
O205   C208    1.300   .     A
O206   C209    1.294   .     A
O207   C209    1.295   .     A
C208   C232    1.471   .     S
C209   C213    1.463   .     S
C210   C224    1.386   .     A
C210   H797    1.083   1_554 S
C210   C805    1.409   1_554 S
H211   C224    1.084   .     S
H212   C795    1.083   .     S
C213   C224    1.396   .     A
C213   C223    1.405   .     A
C214   C215    1.388   .     A
C214   H226    1.081   .     S
C214   C225    1.404   .     A
C215   C801    1.390   .     S
C215   H813    1.082   .     S
C216   H227    1.080   .     S
C216   C800    1.390   1_554 S
C216   C802    1.414   1_554 S
C217   C218    1.414   .     A
C217   C801    1.414   .     S
C217   C804    1.424   .     S
C218   C222    1.410   .     A
C218   C225    1.422   .     A
C219   C223    1.416   .     A
C219   C802    1.424   1_554 S
C219   C805    1.425   1_554 S
C220   C221    1.406   .     A
C220   C795    1.409   .     S
C220   C804    1.425   .     S
C221   C222    1.391   .     A
C221   C255    1.445   .     S
C222   H229    1.081   .     S
C223   C257    1.453   .     S
H228   C800    1.082   1_554 S
C230   C235    1.414   .     A
C230   C259    1.450   .     S
C230   C426    1.399   .     S
C231   C232    1.414   .     A
C231   N244    1.435   .     S
C232   C233    1.418   .     A
C233   C247    1.455   .     S
C234   C249    1.453   .     S
C234   C235    1.415   .     A
C234   C428    1.392   .     S
C236   H237    1.083   .     S
C236   N243    1.362   .     A
C236   C303    1.415   .     S
C238   N239    1.376   .     A
C238   C251    1.438   .     S
C238   C366    1.415   1_455 S
N239   C240    1.377   .     A
C240   C253    1.439   .     S
C240   C371    1.414   1_455 S
C241   N243    1.360   .     A
C241   H242    1.081   .     S
C241   C305    1.414   .     S
N244   O245    1.301   .     A
N244   O246    1.301   .     A
C247   N248    1.157   .     T
C249   N250    1.156   .     T
C251   N252    1.158   .     T
C253   N254    1.158   .     T
C255   N256    1.156   .     T
C257   N258    1.158   .     T
C259   N260    1.157   .     T
O261   Cu267   1.986   .     S
O261   C263    1.293   .     A
O262   C263    1.301   .     A
O262   Cu268   1.983   .     S
C263   C300    1.475   .     S
O264   Cu267   1.956   .     S
O264   C266    1.301   .     A
O265   Cu268   1.944   .     S
O265   C266    1.296   .     A
C266   C290    1.478   .     S
Cu267  Cu268   2.681   .     S
Cu267  N304    2.015   .     S
Cu267  O271    1.944   .     S
Cu267  O269    1.983   .     S
Cu268  N308    2.014   .     S
Cu268  O272    1.956   .     S
Cu268  O270    1.986   .     S
O269   C273    1.291   .     A
O270   C273    1.300   .     A
O271   C274    1.294   .     A
O272   C274    1.295   .     A
C273   C297    1.471   .     S
C274   C278    1.463   .     S
C275   C289    1.386   .     A
C275   H862    1.083   1_554 S
C275   C870    1.409   1_554 S
H276   C289    1.084   .     S
H277   C860    1.083   .     S
C278   C289    1.396   .     A
C278   C288    1.405   .     A
C279   C280    1.388   .     A
C279   H291    1.081   .     S
C279   C290    1.404   .     A
C280   C866    1.390   .     S
C280   H878    1.082   .     S
C281   H292    1.080   .     S
C281   C865    1.390   1_554 S
C281   C867    1.414   1_554 S
C282   C283    1.414   .     A
C282   C866    1.414   .     S
C282   C869    1.424   .     S
C283   C287    1.410   .     A
C283   C290    1.422   .     A
C284   C288    1.416   .     A
C284   C867    1.424   1_554 S
C284   C870    1.425   1_554 S
C285   C286    1.406   .     A
C285   C860    1.409   .     S
C285   C869    1.425   .     S
C286   C287    1.391   .     A
C286   C320    1.445   .     S
C287   H294    1.081   .     S
C288   C322    1.453   .     S
H293   C865    1.082   1_554 S
C295   C300    1.414   .     A
C295   C324    1.450   .     S
C295   C491    1.399   .     S
C296   C297    1.414   .     A
C296   N309    1.435   .     S
C297   C298    1.418   .     A
C298   C312    1.455   .     S
C299   C314    1.453   .     S
C299   C300    1.415   .     A
C299   C493    1.392   .     S
C301   H302    1.083   .     S
C301   N308    1.362   .     A
C301   C368    1.415   .     S
C303   N304    1.376   .     A
C303   C316    1.438   .     S
N304   C305    1.377   .     A
C305   C318    1.439   .     S
C306   N308    1.360   .     A
C306   H307    1.081   .     S
C306   C370    1.414   .     S
N309   O310    1.301   .     A
N309   O311    1.301   .     A
C312   N313    1.157   .     T
C314   N315    1.156   .     T
C316   N317    1.158   .     T
C318   N319    1.158   .     T
C320   N321    1.156   .     T
C322   N323    1.158   .     T
C324   N325    1.157   .     T
O326   Cu332   1.986   .     S
O326   C328    1.293   .     A
O327   C328    1.301   .     A
O327   Cu333   1.983   .     S
C328   C365    1.475   .     S
O329   Cu332   1.956   .     S
O329   C331    1.301   .     A
O330   Cu333   1.944   .     S
O330   C331    1.296   .     A
C331   C355    1.478   .     S
Cu332  Cu333   2.681   .     S
Cu332  N369    2.015   .     S
Cu332  O336    1.944   .     S
Cu332  O334    1.983   .     S
Cu333  N373    2.014   .     S
Cu333  O337    1.956   .     S
Cu333  O335    1.986   .     S
O334   C338    1.291   .     A
O335   C338    1.300   .     A
O336   C339    1.294   .     A
O337   C339    1.295   .     A
C338   C362    1.471   .     S
C339   C343    1.463   .     S
C340   C354    1.386   .     A
C340   H927    1.083   1_554 S
C340   C935    1.409   1_554 S
H341   C354    1.084   .     S
H342   C925    1.083   .     S
C343   C354    1.396   .     A
C343   C353    1.405   .     A
C344   C345    1.388   .     A
C344   H356    1.081   .     S
C344   C355    1.404   .     A
C345   C931    1.390   .     S
C345   H943    1.082   .     S
C346   H357    1.080   .     S
C346   C930    1.390   1_554 S
C346   C932    1.414   1_554 S
C347   C348    1.414   .     A
C347   C931    1.414   .     S
C347   C934    1.424   .     S
C348   C352    1.410   .     A
C348   C355    1.422   .     A
C349   C353    1.416   .     A
C349   C932    1.424   1_554 S
C349   C935    1.425   1_554 S
C350   C351    1.406   .     A
C350   C925    1.409   .     S
C350   C934    1.425   .     S
C351   C352    1.391   .     A
C351   C385    1.445   .     S
C352   H359    1.081   .     S
C353   C387    1.453   .     S
H358   C930    1.082   1_554 S
C360   C365    1.414   .     A
C360   C389    1.450   .     S
C360   C556    1.399   .     S
C361   C362    1.414   .     A
C361   N374    1.435   .     S
C362   C363    1.418   .     A
C363   C377    1.455   .     S
C364   C379    1.453   .     S
C364   C365    1.415   .     A
C364   C558    1.392   .     S
C366   H367    1.083   .     S
C366   N373    1.362   .     A
C366   C238    1.415   1_655 S
C368   N369    1.376   .     A
C368   C381    1.438   .     S
N369   C370    1.377   .     A
C370   C383    1.439   .     S
C371   N373    1.360   .     A
C371   H372    1.081   .     S
C371   C240    1.414   1_655 S
N374   O375    1.301   .     A
N374   O376    1.301   .     A
C377   N378    1.157   .     T
C379   N380    1.156   .     T
C381   N382    1.158   .     T
C383   N384    1.158   .     T
C385   N386    1.156   .     T
C387   N388    1.158   .     T
C389   N390    1.157   .     T
O391   Cu397   1.986   .     S
O391   C393    1.293   .     A
O392   C393    1.301   .     A
O392   Cu398   1.983   .     S
C393   C430    1.475   .     S
O394   Cu397   1.956   .     S
O394   C396    1.301   .     A
O395   Cu398   1.944   .     S
O395   C396    1.296   .     A
C396   C420    1.478   .     S
Cu397  Cu398   2.681   .     S
Cu397  N434    2.015   .     S
Cu397  O401    1.944   .     S
Cu397  O399    1.983   .     S
Cu398  N438    2.014   .     S
Cu398  O402    1.956   .     S
Cu398  O400    1.986   .     S
O399   C403    1.291   .     A
O400   C403    1.300   .     A
O401   C404    1.294   .     A
O402   C404    1.295   .     A
C403   C427    1.471   .     S
C404   C408    1.463   .     S
C405   C419    1.386   .     A
C405   H992    1.083   1_554 S
C405   C1000   1.409   1_554 S
H406   C419    1.084   .     S
H407   C990    1.083   .     S
C408   C419    1.396   .     A
C408   C418    1.405   .     A
C409   C410    1.388   .     A
C409   H421    1.081   .     S
C409   C420    1.404   .     A
C410   C996    1.390   .     S
C410   H1008   1.082   .     S
C411   H422    1.080   .     S
C411   C995    1.390   1_554 S
C411   C997    1.414   1_554 S
C412   C413    1.414   .     A
C412   C996    1.414   .     S
C412   C999    1.424   .     S
C413   C417    1.410   .     A
C413   C420    1.422   .     A
C414   C418    1.416   .     A
C414   C997    1.424   1_554 S
C414   C1000   1.425   1_554 S
C415   C416    1.406   .     A
C415   C990    1.409   .     S
C415   C999    1.425   .     S
C416   C417    1.391   .     A
C416   C450    1.445   .     S
C417   H424    1.081   .     S
C418   C452    1.453   .     S
H423   C995    1.082   1_554 S
C425   C430    1.414   .     A
C425   C454    1.450   .     S
C425   C36     1.399   1_565 S
C426   C427    1.414   .     A
C426   N439    1.435   .     S
C427   C428    1.418   .     A
C428   C442    1.455   .     S
C429   C444    1.453   .     S
C429   C430    1.415   .     A
C429   C38     1.392   1_565 S
C431   H432    1.083   .     S
C431   N438    1.362   .     A
C431   C498    1.415   .     S
C433   N434    1.376   .     A
C433   C446    1.438   .     S
C433   C561    1.415   1_455 S
N434   C435    1.377   .     A
C435   C448    1.439   .     S
C435   C566    1.414   1_455 S
C436   N438    1.360   .     A
C436   H437    1.081   .     S
C436   C500    1.414   .     S
N439   O440    1.301   .     A
N439   O441    1.301   .     A
C442   N443    1.157   .     T
C444   N445    1.156   .     T
C446   N447    1.158   .     T
C448   N449    1.158   .     T
C450   N451    1.156   .     T
C452   N453    1.158   .     T
C454   N455    1.157   .     T
O456   Cu462   1.986   .     S
O456   C458    1.293   .     A
O457   C458    1.301   .     A
O457   Cu463   1.983   .     S
C458   C495    1.475   .     S
O459   Cu462   1.956   .     S
O459   C461    1.301   .     A
O460   Cu463   1.944   .     S
O460   C461    1.296   .     A
C461   C485    1.478   .     S
Cu462  Cu463   2.681   .     S
Cu462  N499    2.015   .     S
Cu462  O466    1.944   .     S
Cu462  O464    1.983   .     S
Cu463  N503    2.014   .     S
Cu463  O467    1.956   .     S
Cu463  O465    1.986   .     S
O464   C468    1.291   .     A
O465   C468    1.300   .     A
O466   C469    1.294   .     A
O467   C469    1.295   .     A
C468   C492    1.471   .     S
C469   C473    1.463   .     S
C470   C484    1.386   .     A
C470   H1057   1.083   1_554 S
C470   C1065   1.409   1_554 S
H471   C484    1.084   .     S
H472   C1055   1.083   .     S
C473   C484    1.396   .     A
C473   C483    1.405   .     A
C474   C475    1.388   .     A
C474   H486    1.081   .     S
C474   C485    1.404   .     A
C475   C1061   1.390   .     S
C475   H1073   1.082   .     S
C476   H487    1.080   .     S
C476   C1060   1.390   1_554 S
C476   C1062   1.414   1_554 S
C477   C478    1.414   .     A
C477   C1061   1.414   .     S
C477   C1064   1.424   .     S
C478   C482    1.410   .     A
C478   C485    1.422   .     A
C479   C483    1.416   .     A
C479   C1062   1.424   1_554 S
C479   C1065   1.425   1_554 S
C480   C481    1.406   .     A
C480   C1055   1.409   .     S
C480   C1064   1.425   .     S
C481   C482    1.391   .     A
C481   C515    1.445   .     S
C482   H489    1.081   .     S
C483   C517    1.453   .     S
H488   C1060   1.082   1_554 S
C490   C495    1.414   .     A
C490   C519    1.450   .     S
C490   C101    1.399   1_565 S
C491   C492    1.414   .     A
C491   N504    1.435   .     S
C492   C493    1.418   .     A
C493   C507    1.455   .     S
C494   C509    1.453   .     S
C494   C495    1.415   .     A
C494   C103    1.392   1_565 S
C496   H497    1.083   .     S
C496   N503    1.362   .     A
C496   C563    1.415   .     S
C498   N499    1.376   .     A
C498   C511    1.438   .     S
N499   C500    1.377   .     A
C500   C513    1.439   .     S
C501   N503    1.360   .     A
C501   H502    1.081   .     S
C501   C565    1.414   .     S
N504   O505    1.301   .     A
N504   O506    1.301   .     A
C507   N508    1.157   .     T
C509   N510    1.156   .     T
C511   N512    1.158   .     T
C513   N514    1.158   .     T
C515   N516    1.156   .     T
C517   N518    1.158   .     T
C519   N520    1.157   .     T
O521   Cu527   1.986   .     S
O521   C523    1.293   .     A
O522   C523    1.301   .     A
O522   Cu528   1.983   .     S
C523   C560    1.475   .     S
O524   Cu527   1.956   .     S
O524   C526    1.301   .     A
O525   Cu528   1.944   .     S
O525   C526    1.296   .     A
C526   C550    1.478   .     S
Cu527  Cu528   2.681   .     S
Cu527  N564    2.015   .     S
Cu527  O531    1.944   .     S
Cu527  O529    1.983   .     S
Cu528  N568    2.014   .     S
Cu528  O532    1.956   .     S
Cu528  O530    1.986   .     S
O529   C533    1.291   .     A
O530   C533    1.300   .     A
O531   C534    1.294   .     A
O532   C534    1.295   .     A
C533   C557    1.471   .     S
C534   C538    1.463   .     S
C535   C549    1.386   .     A
C535   H1122   1.083   1_554 S
C535   C1130   1.409   1_554 S
H536   C549    1.084   .     S
H537   C1120   1.083   .     S
C538   C549    1.396   .     A
C538   C548    1.405   .     A
C539   C540    1.388   .     A
C539   H551    1.081   .     S
C539   C550    1.404   .     A
C540   C1126   1.390   .     S
C540   H1138   1.082   .     S
C541   H552    1.080   .     S
C541   C1125   1.390   1_554 S
C541   C1127   1.414   1_554 S
C542   C543    1.414   .     A
C542   C1126   1.414   .     S
C542   C1129   1.424   .     S
C543   C547    1.410   .     A
C543   C550    1.422   .     A
C544   C548    1.416   .     A
C544   C1127   1.424   1_554 S
C544   C1130   1.425   1_554 S
C545   C546    1.406   .     A
C545   C1120   1.409   .     S
C545   C1129   1.425   .     S
C546   C547    1.391   .     A
C546   C580    1.445   .     S
C547   H554    1.081   .     S
C548   C582    1.453   .     S
H553   C1125   1.082   1_554 S
C555   C560    1.414   .     A
C555   C584    1.450   .     S
C555   C166    1.399   1_565 S
C556   C557    1.414   .     A
C556   N569    1.435   .     S
C557   C558    1.418   .     A
C558   C572    1.455   .     S
C559   C574    1.453   .     S
C559   C560    1.415   .     A
C559   C168    1.392   1_565 S
C561   H562    1.083   .     S
C561   N568    1.362   .     A
C561   C433    1.415   1_655 S
C563   N564    1.376   .     A
C563   C576    1.438   .     S
N564   C565    1.377   .     A
C565   C578    1.439   .     S
C566   N568    1.360   .     A
C566   H567    1.081   .     S
C566   C435    1.414   1_655 S
N569   O570    1.301   .     A
N569   O571    1.301   .     A
C572   N573    1.157   .     T
C574   N575    1.156   .     T
C576   N577    1.158   .     T
C578   N579    1.158   .     T
C580   N581    1.156   .     T
C582   N583    1.158   .     T
C584   N585    1.157   .     T
O586   Cu592   1.986   .     S
O586   C588    1.293   .     A
O587   C588    1.301   .     A
O587   Cu593   1.983   .     S
C588   C625    1.475   .     S
O589   Cu592   1.956   .     S
O589   C591    1.301   .     A
O590   Cu593   1.944   .     S
O590   C591    1.296   .     A
C591   C615    1.478   .     S
Cu592  Cu593   2.681   .     S
Cu592  N629    2.015   .     S
Cu592  O596    1.944   .     S
Cu592  O594    1.983   .     S
Cu593  N633    2.014   .     S
Cu593  O597    1.956   .     S
Cu593  O595    1.986   .     S
O594   C598    1.291   .     A
O595   C598    1.300   .     A
O596   C599    1.294   .     A
O597   C599    1.295   .     A
C598   C622    1.471   .     S
C599   C603    1.463   .     S
C600   C614    1.386   .     A
H601   C614    1.084   .     S
H602   C15     1.083   1_556 S
C603   C614    1.396   .     A
C603   C613    1.405   .     A
C604   C605    1.388   .     A
C604   H616    1.081   .     S
C604   C615    1.404   .     A
C605   C21     1.390   1_556 S
C605   H33     1.082   1_556 S
C606   H617    1.080   .     S
C607   C608    1.414   .     A
C607   C21     1.414   1_556 S
C607   C24     1.424   1_556 S
C608   C612    1.410   .     A
C608   C615    1.422   .     A
C609   C613    1.416   .     A
C610   C611    1.406   .     A
C610   C15     1.409   1_556 S
C610   C24     1.425   1_556 S
C611   C612    1.391   .     A
C611   C645    1.445   .     S
C612   H619    1.081   .     S
C613   C647    1.453   .     S
C620   C625    1.414   .     A
C620   C649    1.450   .     S
C620   C816    1.399   .     S
C621   C622    1.414   .     A
C621   N634    1.435   .     S
C621   C1010   1.399   1_545 S
C622   C623    1.418   .     A
C623   C637    1.455   .     S
C623   C1014   1.392   1_545 S
C624   C639    1.453   .     S
C624   C625    1.415   .     A
C624   C818    1.392   .     S
C626   H627    1.083   .     S
C626   N633    1.362   .     A
C626   C693    1.415   .     S
C628   N629    1.376   .     A
C628   C641    1.438   .     S
C628   C756    1.415   1_455 S
N629   C630    1.377   .     A
C630   C643    1.439   .     S
C630   C761    1.414   1_455 S
C631   N633    1.360   .     A
C631   H632    1.081   .     S
C631   C695    1.414   .     S
N634   O635    1.301   .     A
N634   O636    1.301   .     A
C637   N638    1.157   .     T
C639   N640    1.156   .     T
C641   N642    1.158   .     T
C643   N644    1.158   .     T
C645   N646    1.156   .     T
C647   N648    1.158   .     T
C649   N650    1.157   .     T
O651   Cu657   1.986   .     S
O651   C653    1.293   .     A
O652   C653    1.301   .     A
O652   Cu658   1.983   .     S
C653   C690    1.475   .     S
O654   Cu657   1.956   .     S
O654   C656    1.301   .     A
O655   Cu658   1.944   .     S
O655   C656    1.296   .     A
C656   C680    1.478   .     S
Cu657  Cu658   2.681   .     S
Cu657  N694    2.015   .     S
Cu657  O661    1.944   .     S
Cu657  O659    1.983   .     S
Cu658  N698    2.014   .     S
Cu658  O662    1.956   .     S
Cu658  O660    1.986   .     S
O659   C663    1.291   .     A
O660   C663    1.300   .     A
O661   C664    1.294   .     A
O662   C664    1.295   .     A
C663   C687    1.471   .     S
C664   C668    1.463   .     S
C665   C679    1.386   .     A
H666   C679    1.084   .     S
H667   C80     1.083   1_556 S
C668   C679    1.396   .     A
C668   C678    1.405   .     A
C669   C670    1.388   .     A
C669   H681    1.081   .     S
C669   C680    1.404   .     A
C670   C86     1.390   1_556 S
C670   H98     1.082   1_556 S
C671   H682    1.080   .     S
C672   C673    1.414   .     A
C672   C86     1.414   1_556 S
C672   C89     1.424   1_556 S
C673   C677    1.410   .     A
C673   C680    1.422   .     A
C674   C678    1.416   .     A
C675   C676    1.406   .     A
C675   C80     1.409   1_556 S
C675   C89     1.425   1_556 S
C676   C677    1.391   .     A
C676   C710    1.445   .     S
C677   H684    1.081   .     S
C678   C712    1.453   .     S
C685   C690    1.414   .     A
C685   C714    1.450   .     S
C685   C881    1.399   .     S
C686   C687    1.414   .     A
C686   N699    1.435   .     S
C686   C1075   1.399   1_545 S
C687   C688    1.418   .     A
C688   C702    1.455   .     S
C688   C1079   1.392   1_545 S
C689   C704    1.453   .     S
C689   C690    1.415   .     A
C689   C883    1.392   .     S
C691   H692    1.083   .     S
C691   N698    1.362   .     A
C691   C758    1.415   .     S
C693   N694    1.376   .     A
C693   C706    1.438   .     S
N694   C695    1.377   .     A
C695   C708    1.439   .     S
C696   N698    1.360   .     A
C696   H697    1.081   .     S
C696   C760    1.414   .     S
N699   O700    1.301   .     A
N699   O701    1.301   .     A
C702   N703    1.157   .     T
C704   N705    1.156   .     T
C706   N707    1.158   .     T
C708   N709    1.158   .     T
C710   N711    1.156   .     T
C712   N713    1.158   .     T
C714   N715    1.157   .     T
O716   Cu722   1.986   .     S
O716   C718    1.293   .     A
O717   C718    1.301   .     A
O717   Cu723   1.983   .     S
C718   C755    1.475   .     S
O719   Cu722   1.956   .     S
O719   C721    1.301   .     A
O720   Cu723   1.944   .     S
O720   C721    1.296   .     A
C721   C745    1.478   .     S
Cu722  Cu723   2.681   .     S
Cu722  N759    2.015   .     S
Cu722  O726    1.944   .     S
Cu722  O724    1.983   .     S
Cu723  N763    2.014   .     S
Cu723  O727    1.956   .     S
Cu723  O725    1.986   .     S
O724   C728    1.291   .     A
O725   C728    1.300   .     A
O726   C729    1.294   .     A
O727   C729    1.295   .     A
C728   C752    1.471   .     S
C729   C733    1.463   .     S
C730   C744    1.386   .     A
H731   C744    1.084   .     S
H732   C145    1.083   1_556 S
C733   C744    1.396   .     A
C733   C743    1.405   .     A
C734   C735    1.388   .     A
C734   H746    1.081   .     S
C734   C745    1.404   .     A
C735   C151    1.390   1_556 S
C735   H163    1.082   1_556 S
C736   H747    1.080   .     S
C737   C738    1.414   .     A
C737   C151    1.414   1_556 S
C737   C154    1.424   1_556 S
C738   C742    1.410   .     A
C738   C745    1.422   .     A
C739   C743    1.416   .     A
C740   C741    1.406   .     A
C740   C145    1.409   1_556 S
C740   C154    1.425   1_556 S
C741   C742    1.391   .     A
C741   C775    1.445   .     S
C742   H749    1.081   .     S
C743   C777    1.453   .     S
C750   C755    1.414   .     A
C750   C779    1.450   .     S
C750   C946    1.399   .     S
C751   C752    1.414   .     A
C751   N764    1.435   .     S
C751   C1140   1.399   1_545 S
C752   C753    1.418   .     A
C753   C767    1.455   .     S
C753   C1144   1.392   1_545 S
C754   C769    1.453   .     S
C754   C755    1.415   .     A
C754   C948    1.392   .     S
C756   H757    1.083   .     S
C756   N763    1.362   .     A
C756   C628    1.415   1_655 S
C758   N759    1.376   .     A
C758   C771    1.438   .     S
N759   C760    1.377   .     A
C760   C773    1.439   .     S
C761   N763    1.360   .     A
C761   H762    1.081   .     S
C761   C630    1.414   1_655 S
N764   O765    1.301   .     A
N764   O766    1.301   .     A
C767   N768    1.157   .     T
C769   N770    1.156   .     T
C771   N772    1.158   .     T
C773   N774    1.158   .     T
C775   N776    1.156   .     T
C777   N778    1.158   .     T
C779   N780    1.157   .     T
O781   Cu787   1.986   .     S
O781   C783    1.293   .     A
O782   C783    1.301   .     A
O782   Cu788   1.983   .     S
C783   C820    1.475   .     S
O784   Cu787   1.956   .     S
O784   C786    1.301   .     A
O785   Cu788   1.944   .     S
O785   C786    1.296   .     A
C786   C810    1.478   .     S
Cu787  Cu788   2.681   .     S
Cu787  N824    2.015   .     S
Cu787  O791    1.944   .     S
Cu787  O789    1.983   .     S
Cu788  N828    2.014   .     S
Cu788  O792    1.956   .     S
Cu788  O790    1.986   .     S
O789   C793    1.291   .     A
O790   C793    1.300   .     A
O791   C794    1.294   .     A
O792   C794    1.295   .     A
C793   C817    1.471   .     S
C794   C798    1.463   .     S
C795   C809    1.386   .     A
H796   C809    1.084   .     S
H797   C210    1.083   1_556 S
C798   C809    1.396   .     A
C798   C808    1.405   .     A
C799   C800    1.388   .     A
C799   H811    1.081   .     S
C799   C810    1.404   .     A
C800   C216    1.390   1_556 S
C800   H228    1.082   1_556 S
C801   H812    1.080   .     S
C802   C803    1.414   .     A
C802   C216    1.414   1_556 S
C802   C219    1.424   1_556 S
C803   C807    1.410   .     A
C803   C810    1.422   .     A
C804   C808    1.416   .     A
C805   C806    1.406   .     A
C805   C210    1.409   1_556 S
C805   C219    1.425   1_556 S
C806   C807    1.391   .     A
C806   C840    1.445   .     S
C807   H814    1.081   .     S
C808   C842    1.453   .     S
C815   C820    1.414   .     A
C815   C844    1.450   .     S
C815   C1011   1.399   .     S
C816   C817    1.414   .     A
C816   N829    1.435   .     S
C817   C818    1.418   .     A
C818   C832    1.455   .     S
C819   C834    1.453   .     S
C819   C820    1.415   .     A
C819   C1013   1.392   .     S
C821   H822    1.083   .     S
C821   N828    1.362   .     A
C821   C888    1.415   .     S
C823   N824    1.376   .     A
C823   C836    1.438   .     S
C823   C951    1.415   1_455 S
N824   C825    1.377   .     A
C825   C838    1.439   .     S
C825   C956    1.414   1_455 S
C826   N828    1.360   .     A
C826   H827    1.081   .     S
C826   C890    1.414   .     S
N829   O830    1.301   .     A
N829   O831    1.301   .     A
C832   N833    1.157   .     T
C834   N835    1.156   .     T
C836   N837    1.158   .     T
C838   N839    1.158   .     T
C840   N841    1.156   .     T
C842   N843    1.158   .     T
C844   N845    1.157   .     T
O846   Cu852   1.986   .     S
O846   C848    1.293   .     A
O847   C848    1.301   .     A
O847   Cu853   1.983   .     S
C848   C885    1.475   .     S
O849   Cu852   1.956   .     S
O849   C851    1.301   .     A
O850   Cu853   1.944   .     S
O850   C851    1.296   .     A
C851   C875    1.478   .     S
Cu852  Cu853   2.681   .     S
Cu852  N889    2.015   .     S
Cu852  O856    1.944   .     S
Cu852  O854    1.983   .     S
Cu853  N893    2.014   .     S
Cu853  O857    1.956   .     S
Cu853  O855    1.986   .     S
O854   C858    1.291   .     A
O855   C858    1.300   .     A
O856   C859    1.294   .     A
O857   C859    1.295   .     A
C858   C882    1.471   .     S
C859   C863    1.463   .     S
C860   C874    1.386   .     A
H861   C874    1.084   .     S
H862   C275    1.083   1_556 S
C863   C874    1.396   .     A
C863   C873    1.405   .     A
C864   C865    1.388   .     A
C864   H876    1.081   .     S
C864   C875    1.404   .     A
C865   C281    1.390   1_556 S
C865   H293    1.082   1_556 S
C866   H877    1.080   .     S
C867   C868    1.414   .     A
C867   C281    1.414   1_556 S
C867   C284    1.424   1_556 S
C868   C872    1.410   .     A
C868   C875    1.422   .     A
C869   C873    1.416   .     A
C870   C871    1.406   .     A
C870   C275    1.409   1_556 S
C870   C284    1.425   1_556 S
C871   C872    1.391   .     A
C871   C905    1.445   .     S
C872   H879    1.081   .     S
C873   C907    1.453   .     S
C880   C885    1.414   .     A
C880   C909    1.450   .     S
C880   C1076   1.399   .     S
C881   C882    1.414   .     A
C881   N894    1.435   .     S
C882   C883    1.418   .     A
C883   C897    1.455   .     S
C884   C899    1.453   .     S
C884   C885    1.415   .     A
C884   C1078   1.392   .     S
C886   H887    1.083   .     S
C886   N893    1.362   .     A
C886   C953    1.415   .     S
C888   N889    1.376   .     A
C888   C901    1.438   .     S
N889   C890    1.377   .     A
C890   C903    1.439   .     S
C891   N893    1.360   .     A
C891   H892    1.081   .     S
C891   C955    1.414   .     S
N894   O895    1.301   .     A
N894   O896    1.301   .     A
C897   N898    1.157   .     T
C899   N900    1.156   .     T
C901   N902    1.158   .     T
C903   N904    1.158   .     T
C905   N906    1.156   .     T
C907   N908    1.158   .     T
C909   N910    1.157   .     T
O911   Cu917   1.986   .     S
O911   C913    1.293   .     A
O912   C913    1.301   .     A
O912   Cu918   1.983   .     S
C913   C950    1.475   .     S
O914   Cu917   1.956   .     S
O914   C916    1.301   .     A
O915   Cu918   1.944   .     S
O915   C916    1.296   .     A
C916   C940    1.478   .     S
Cu917  Cu918   2.681   .     S
Cu917  N954    2.015   .     S
Cu917  O921    1.944   .     S
Cu917  O919    1.983   .     S
Cu918  N958    2.014   .     S
Cu918  O922    1.956   .     S
Cu918  O920    1.986   .     S
O919   C923    1.291   .     A
O920   C923    1.300   .     A
O921   C924    1.294   .     A
O922   C924    1.295   .     A
C923   C947    1.471   .     S
C924   C928    1.463   .     S
C925   C939    1.386   .     A
H926   C939    1.084   .     S
H927   C340    1.083   1_556 S
C928   C939    1.396   .     A
C928   C938    1.405   .     A
C929   C930    1.388   .     A
C929   H941    1.081   .     S
C929   C940    1.404   .     A
C930   C346    1.390   1_556 S
C930   H358    1.082   1_556 S
C931   H942    1.080   .     S
C932   C933    1.414   .     A
C932   C346    1.414   1_556 S
C932   C349    1.424   1_556 S
C933   C937    1.410   .     A
C933   C940    1.422   .     A
C934   C938    1.416   .     A
C935   C936    1.406   .     A
C935   C340    1.409   1_556 S
C935   C349    1.425   1_556 S
C936   C937    1.391   .     A
C936   C970    1.445   .     S
C937   H944    1.081   .     S
C938   C972    1.453   .     S
C945   C950    1.414   .     A
C945   C974    1.450   .     S
C945   C1141   1.399   .     S
C946   C947    1.414   .     A
C946   N959    1.435   .     S
C947   C948    1.418   .     A
C948   C962    1.455   .     S
C949   C964    1.453   .     S
C949   C950    1.415   .     A
C949   C1143   1.392   .     S
C951   H952    1.083   .     S
C951   N958    1.362   .     A
C951   C823    1.415   1_655 S
C953   N954    1.376   .     A
C953   C966    1.438   .     S
N954   C955    1.377   .     A
C955   C968    1.439   .     S
C956   N958    1.360   .     A
C956   H957    1.081   .     S
C956   C825    1.414   1_655 S
N959   O960    1.301   .     A
N959   O961    1.301   .     A
C962   N963    1.157   .     T
C964   N965    1.156   .     T
C966   N967    1.158   .     T
C968   N969    1.158   .     T
C970   N971    1.156   .     T
C972   N973    1.158   .     T
C974   N975    1.157   .     T
O976   Cu982   1.986   .     S
O976   C978    1.293   .     A
O977   C978    1.301   .     A
O977   Cu983   1.983   .     S
C978   C1015   1.475   .     S
O979   Cu982   1.956   .     S
O979   C981    1.301   .     A
O980   Cu983   1.944   .     S
O980   C981    1.296   .     A
C981   C1005   1.478   .     S
Cu982  Cu983   2.681   .     S
Cu982  N1019   2.015   .     S
Cu982  O986    1.944   .     S
Cu982  O984    1.983   .     S
Cu983  N1023   2.014   .     S
Cu983  O987    1.956   .     S
Cu983  O985    1.986   .     S
O984   C988    1.291   .     A
O985   C988    1.300   .     A
O986   C989    1.294   .     A
O987   C989    1.295   .     A
C988   C1012   1.471   .     S
C989   C993    1.463   .     S
C990   C1004   1.386   .     A
H991   C1004   1.084   .     S
H992   C405    1.083   1_556 S
C993   C1004   1.396   .     A
C993   C1003   1.405   .     A
C994   C995    1.388   .     A
C994   H1006   1.081   .     S
C994   C1005   1.404   .     A
C995   C411    1.390   1_556 S
C995   H423    1.082   1_556 S
C996   H1007   1.080   .     S
C997   C998    1.414   .     A
C997   C411    1.414   1_556 S
C997   C414    1.424   1_556 S
C998   C1002   1.410   .     A
C998   C1005   1.422   .     A
C999   C1003   1.416   .     A
C1000  C1001   1.406   .     A
C1000  C405    1.409   1_556 S
C1000  C414    1.425   1_556 S
C1001  C1002   1.391   .     A
C1001  C1035   1.445   .     S
C1002  H1009   1.081   .     S
C1003  C1037   1.453   .     S
C1010  C1015   1.414   .     A
C1010  C1039   1.450   .     S
C1010  C621    1.399   1_565 S
C1011  C1012   1.414   .     A
C1011  N1024   1.435   .     S
C1012  C1013   1.418   .     A
C1013  C1027   1.455   .     S
C1014  C1029   1.453   .     S
C1014  C1015   1.415   .     A
C1014  C623    1.392   1_565 S
C1016  H1017   1.083   .     S
C1016  N1023   1.362   .     A
C1016  C1083   1.415   .     S
C1018  N1019   1.376   .     A
C1018  C1031   1.438   .     S
C1018  C1146   1.415   1_455 S
N1019  C1020   1.377   .     A
C1020  C1033   1.439   .     S
C1020  C1151   1.414   1_455 S
C1021  N1023   1.360   .     A
C1021  H1022   1.081   .     S
C1021  C1085   1.414   .     S
N1024  O1025   1.301   .     A
N1024  O1026   1.301   .     A
C1027  N1028   1.157   .     T
C1029  N1030   1.156   .     T
C1031  N1032   1.158   .     T
C1033  N1034   1.158   .     T
C1035  N1036   1.156   .     T
C1037  N1038   1.158   .     T
C1039  N1040   1.157   .     T
O1041  Cu1047  1.986   .     S
O1041  C1043   1.293   .     A
O1042  C1043   1.301   .     A
O1042  Cu1048  1.983   .     S
C1043  C1080   1.475   .     S
O1044  Cu1047  1.956   .     S
O1044  C1046   1.301   .     A
O1045  Cu1048  1.944   .     S
O1045  C1046   1.296   .     A
C1046  C1070   1.478   .     S
Cu1047 Cu1048  2.681   .     S
Cu1047 N1084   2.015   .     S
Cu1047 O1051   1.944   .     S
Cu1047 O1049   1.983   .     S
Cu1048 N1088   2.014   .     S
Cu1048 O1052   1.956   .     S
Cu1048 O1050   1.986   .     S
O1049  C1053   1.291   .     A
O1050  C1053   1.300   .     A
O1051  C1054   1.294   .     A
O1052  C1054   1.295   .     A
C1053  C1077   1.471   .     S
C1054  C1058   1.463   .     S
C1055  C1069   1.386   .     A
H1056  C1069   1.084   .     S
H1057  C470    1.083   1_556 S
C1058  C1069   1.396   .     A
C1058  C1068   1.405   .     A
C1059  C1060   1.388   .     A
C1059  H1071   1.081   .     S
C1059  C1070   1.404   .     A
C1060  C476    1.390   1_556 S
C1060  H488    1.082   1_556 S
C1061  H1072   1.080   .     S
C1062  C1063   1.414   .     A
C1062  C476    1.414   1_556 S
C1062  C479    1.424   1_556 S
C1063  C1067   1.410   .     A
C1063  C1070   1.422   .     A
C1064  C1068   1.416   .     A
C1065  C1066   1.406   .     A
C1065  C470    1.409   1_556 S
C1065  C479    1.425   1_556 S
C1066  C1067   1.391   .     A
C1066  C1100   1.445   .     S
C1067  H1074   1.081   .     S
C1068  C1102   1.453   .     S
C1075  C1080   1.414   .     A
C1075  C1104   1.450   .     S
C1075  C686    1.399   1_565 S
C1076  C1077   1.414   .     A
C1076  N1089   1.435   .     S
C1077  C1078   1.418   .     A
C1078  C1092   1.455   .     S
C1079  C1094   1.453   .     S
C1079  C1080   1.415   .     A
C1079  C688    1.392   1_565 S
C1081  H1082   1.083   .     S
C1081  N1088   1.362   .     A
C1081  C1148   1.415   .     S
C1083  N1084   1.376   .     A
C1083  C1096   1.438   .     S
N1084  C1085   1.377   .     A
C1085  C1098   1.439   .     S
C1086  N1088   1.360   .     A
C1086  H1087   1.081   .     S
C1086  C1150   1.414   .     S
N1089  O1090   1.301   .     A
N1089  O1091   1.301   .     A
C1092  N1093   1.157   .     T
C1094  N1095   1.156   .     T
C1096  N1097   1.158   .     T
C1098  N1099   1.158   .     T
C1100  N1101   1.156   .     T
C1102  N1103   1.158   .     T
C1104  N1105   1.157   .     T
O1106  Cu1112  1.986   .     S
O1106  C1108   1.293   .     A
O1107  C1108   1.301   .     A
O1107  Cu1113  1.983   .     S
C1108  C1145   1.475   .     S
O1109  Cu1112  1.956   .     S
O1109  C1111   1.301   .     A
O1110  Cu1113  1.944   .     S
O1110  C1111   1.296   .     A
C1111  C1135   1.478   .     S
Cu1112 Cu1113  2.681   .     S
Cu1112 N1149   2.015   .     S
Cu1112 O1116   1.944   .     S
Cu1112 O1114   1.983   .     S
Cu1113 N1153   2.014   .     S
Cu1113 O1117   1.956   .     S
Cu1113 O1115   1.986   .     S
O1114  C1118   1.291   .     A
O1115  C1118   1.300   .     A
O1116  C1119   1.294   .     A
O1117  C1119   1.295   .     A
C1118  C1142   1.471   .     S
C1119  C1123   1.463   .     S
C1120  C1134   1.386   .     A
H1121  C1134   1.084   .     S
H1122  C535    1.083   1_556 S
C1123  C1134   1.396   .     A
C1123  C1133   1.405   .     A
C1124  C1125   1.388   .     A
C1124  H1136   1.081   .     S
C1124  C1135   1.404   .     A
C1125  C541    1.390   1_556 S
C1125  H553    1.082   1_556 S
C1126  H1137   1.080   .     S
C1127  C1128   1.414   .     A
C1127  C541    1.414   1_556 S
C1127  C544    1.424   1_556 S
C1128  C1132   1.410   .     A
C1128  C1135   1.422   .     A
C1129  C1133   1.416   .     A
C1130  C1131   1.406   .     A
C1130  C535    1.409   1_556 S
C1130  C544    1.425   1_556 S
C1131  C1132   1.391   .     A
C1131  C1165   1.445   .     S
C1132  H1139   1.081   .     S
C1133  C1167   1.453   .     S
C1140  C1145   1.414   .     A
C1140  C1169   1.450   .     S
C1140  C751    1.399   1_565 S
C1141  C1142   1.414   .     A
C1141  N1154   1.435   .     S
C1142  C1143   1.418   .     A
C1143  C1157   1.455   .     S
C1144  C1159   1.453   .     S
C1144  C1145   1.415   .     A
C1144  C753    1.392   1_565 S
C1146  H1147   1.083   .     S
C1146  N1153   1.362   .     A
C1146  C1018   1.415   1_655 S
C1148  N1149   1.376   .     A
C1148  C1161   1.438   .     S
N1149  C1150   1.377   .     A
C1150  C1163   1.439   .     S
C1151  N1153   1.360   .     A
C1151  H1152   1.081   .     S
C1151  C1020   1.414   1_655 S
N1154  O1155   1.301   .     A
N1154  O1156   1.301   .     A
C1157  N1158   1.157   .     T
C1159  N1160   1.156   .     T
C1161  N1162   1.158   .     T
C1163  N1164   1.158   .     T
C1165  N1166   1.156   .     T
C1167  N1168   1.158   .     T
C1169  N1170   1.157   .     T
