data_str_m2_o2_o10_pcu_sym.162
_audit_creation_date              2020-01-03
_audit_creation_method            'Materials Studio'
_symmetry_space_group_name_H-M    'P1'
_symmetry_Int_Tables_number       1
_symmetry_cell_setting            triclinic
loop_
_symmetry_equiv_pos_as_xyz
  x,y,z
_cell_length_a                    26.6297
_cell_length_b                    30.3633
_cell_length_c                    28.0419
_cell_angle_alpha                 89.4443
_cell_angle_beta                  97.6954
_cell_angle_gamma                 93.6585
loop_
_atom_site_label
_atom_site_type_symbol
_atom_site_fract_x
_atom_site_fract_y
_atom_site_fract_z
_atom_site_U_iso_or_equiv
_atom_site_adp_type
_atom_site_occupancy
C1     C     0.16596   0.16528   0.25011   0.00000  Uiso   1.00
C2     C     0.16393   0.33508   0.24943   0.00000  Uiso   1.00
C3     C     0.20403   0.27323   0.05845   0.00000  Uiso   1.00
C4     C     0.12932   0.22698   0.44166   0.00000  Uiso   1.00
C5     C     0.20240   0.27538   0.10798   0.00000  Uiso   1.00
C6     C     0.13109   0.22459   0.39217   0.00000  Uiso   1.00
C7     C     0.13601   0.21937   0.10112   0.00000  Uiso   1.00
C8     C     0.19752   0.28051   0.39891   0.00000  Uiso   1.00
C9     C     0.13956   0.21510   0.05129   0.00000  Uiso   1.00
C10    C     0.19392   0.28495   0.44872   0.00000  Uiso   1.00
C11    C     0.16819   0.24766   0.02755   0.00000  Uiso   1.00
C12    C     0.16515   0.25257   0.47252   0.00000  Uiso   1.00
C13    C     0.06824   0.25005   0.23785   0.00000  Uiso   1.00
C14    C     0.26516   0.25054   0.26209   0.00000  Uiso   1.00
C15    C     0.01335   0.24673   0.23130   0.00000  Uiso   1.00
C16    C     0.32009   0.25486   0.26822   0.00000  Uiso   1.00
C17    C     0.11703   0.04672   0.25833   0.00000  Uiso   1.00
C18    C     0.16142   0.45491   0.20665   0.00000  Uiso   1.00
C19    C     0.11914   0.09324   0.25884   0.00000  Uiso   1.00
C20    C     0.16286   0.40899   0.20595   0.00000  Uiso   1.00
C21    C     0.16406   0.11722   0.25037   0.00000  Uiso   1.00
C22    C     0.15867   0.38372   0.24848   0.00000  Uiso   1.00
C23    C     0.20696   0.09549   0.24169   0.00000  Uiso   1.00
C24    C     0.14900   0.40602   0.29042   0.00000  Uiso   1.00
C25    C     0.20595   0.04910   0.24392   0.00000  Uiso   1.00
C26    C     0.15237   0.45208   0.29237   0.00000  Uiso   1.00
C27    C     0.16073   0.02529   0.25149   0.00000  Uiso   1.00
C28    C     0.15859   0.47673   0.25036   0.00000  Uiso   1.00
Cu29   Cu    0.16667   0.24999   0.29821   0.00000  Uiso   1.00
Cu30   Cu    0.16667   0.25000   0.20178   0.00000  Uiso   1.00
H31    H     0.23607   0.29026   0.04538   0.00000  Uiso   1.00
H32    H     0.09727   0.20997   0.45477   0.00000  Uiso   1.00
N33    N     0.16667   0.25001   0.12934   0.00000  Uiso   1.00
N34    N     0.16667   0.24999   0.37065   0.00000  Uiso   1.00
O35    O     0.16667   0.18572   0.29071   0.00000  Uiso   1.00
O36    O     0.16666   0.31427   0.20928   0.00000  Uiso   1.00
O37    O     0.16667   0.18573   0.20928   0.00000  Uiso   1.00
O38    O     0.16666   0.31427   0.29072   0.00000  Uiso   1.00
O39    O     0.09161   0.24999   0.28132   0.00000  Uiso   1.00
O40    O     0.24172   0.25000   0.21868   0.00000  Uiso   1.00
O41    O     0.09161   0.25000   0.19988   0.00000  Uiso   1.00
O42    O     0.24172   0.25000   0.30011   0.00000  Uiso   1.00
Br43   Br    0.31715   0.22616   0.16767   0.00000  Uiso   1.00
Br44   Br    0.01680   0.27796   0.33061   0.00000  Uiso   1.00
O45    O     0.07355   0.02079   0.26402   0.00000  Uiso   1.00
H46    H     0.04523   0.03933   0.26769   0.00000  Uiso   1.00
O47    O     0.16333   0.47740   0.16364   0.00000  Uiso   1.00
H48    H     0.15021   0.00698   0.16557   0.00000  Uiso   1.00
Br49   Br    0.06083   0.12471   0.26885   0.00000  Uiso   1.00
Br50   Br    0.16682   0.38408   0.14345   0.00000  Uiso   1.00
Br51   Br    0.26548   0.12970   0.22504   0.00000  Uiso   1.00
Br52   Br    0.12645   0.37648   0.34600   0.00000  Uiso   1.00
O53    O     0.24756   0.02558   0.23815   0.00000  Uiso   1.00
H54    H     0.27830   0.04571   0.23916   0.00000  Uiso   1.00
O55    O     0.14862   0.47168   0.33604   0.00000  Uiso   1.00
H56    H     0.16217   0.00276   0.33617   0.00000  Uiso   1.00
O57    O     0.23944   0.30285   0.13330   0.00000  Uiso   1.00
H58    H     0.23101   0.30720   0.16566   0.00000  Uiso   1.00
O59    O     0.09458   0.19660   0.36707   0.00000  Uiso   1.00
H60    H     0.10313   0.19286   0.33473   0.00000  Uiso   1.00
Br61   Br    0.08872   0.17893   0.12809   0.00000  Uiso   1.00
Br62   Br    0.24556   0.32030   0.37218   0.00000  Uiso   1.00
Br63   Br    0.12173   0.15684   0.02398   0.00000  Uiso   1.00
Br64   Br    0.21205   0.34322   0.47591   0.00000  Uiso   1.00
C65    C     0.49929   0.16528   0.25011   0.00000  Uiso   1.00
C66    C     0.49727   0.33508   0.24943   0.00000  Uiso   1.00
C67    C     0.53736   0.27323   0.05845   0.00000  Uiso   1.00
C68    C     0.46265   0.22698   0.44166   0.00000  Uiso   1.00
C69    C     0.53573   0.27538   0.10798   0.00000  Uiso   1.00
C70    C     0.46442   0.22459   0.39217   0.00000  Uiso   1.00
C71    C     0.46934   0.21937   0.10112   0.00000  Uiso   1.00
C72    C     0.53085   0.28051   0.39891   0.00000  Uiso   1.00
C73    C     0.47290   0.21510   0.05129   0.00000  Uiso   1.00
C74    C     0.52725   0.28495   0.44872   0.00000  Uiso   1.00
C75    C     0.50152   0.24766   0.02755   0.00000  Uiso   1.00
C76    C     0.49848   0.25257   0.47252   0.00000  Uiso   1.00
C77    C     0.40157   0.25005   0.23785   0.00000  Uiso   1.00
C78    C     0.59849   0.25054   0.26209   0.00000  Uiso   1.00
C79    C     0.34669   0.24673   0.23130   0.00000  Uiso   1.00
C80    C     0.65342   0.25486   0.26822   0.00000  Uiso   1.00
C81    C     0.45037   0.04672   0.25833   0.00000  Uiso   1.00
C82    C     0.49475   0.45491   0.20665   0.00000  Uiso   1.00
C83    C     0.45247   0.09324   0.25884   0.00000  Uiso   1.00
C84    C     0.49619   0.40899   0.20595   0.00000  Uiso   1.00
C85    C     0.49739   0.11722   0.25037   0.00000  Uiso   1.00
C86    C     0.49201   0.38372   0.24848   0.00000  Uiso   1.00
C87    C     0.54029   0.09549   0.24169   0.00000  Uiso   1.00
C88    C     0.48234   0.40602   0.29042   0.00000  Uiso   1.00
C89    C     0.53928   0.04910   0.24392   0.00000  Uiso   1.00
C90    C     0.48570   0.45208   0.29237   0.00000  Uiso   1.00
C91    C     0.49406   0.02529   0.25149   0.00000  Uiso   1.00
C92    C     0.49192   0.47673   0.25036   0.00000  Uiso   1.00
Cu93   Cu    0.50000   0.24999   0.29821   0.00000  Uiso   1.00
Cu94   Cu    0.50000   0.25000   0.20178   0.00000  Uiso   1.00
H95    H     0.56940   0.29026   0.04538   0.00000  Uiso   1.00
H96    H     0.43060   0.20997   0.45477   0.00000  Uiso   1.00
N97    N     0.50000   0.25001   0.12934   0.00000  Uiso   1.00
N98    N     0.50000   0.24999   0.37065   0.00000  Uiso   1.00
O99    O     0.50000   0.18572   0.29071   0.00000  Uiso   1.00
O100   O     0.50000   0.31427   0.20928   0.00000  Uiso   1.00
O101   O     0.50000   0.18573   0.20928   0.00000  Uiso   1.00
O102   O     0.50000   0.31427   0.29072   0.00000  Uiso   1.00
O103   O     0.42495   0.24999   0.28132   0.00000  Uiso   1.00
O104   O     0.57505   0.25000   0.21868   0.00000  Uiso   1.00
O105   O     0.42495   0.25000   0.19988   0.00000  Uiso   1.00
O106   O     0.57505   0.25000   0.30011   0.00000  Uiso   1.00
Br107  Br    0.65048   0.22616   0.16767   0.00000  Uiso   1.00
Br108  Br    0.35013   0.27796   0.33061   0.00000  Uiso   1.00
O109   O     0.40688   0.02079   0.26402   0.00000  Uiso   1.00
H110   H     0.37857   0.03933   0.26769   0.00000  Uiso   1.00
O111   O     0.49666   0.47740   0.16364   0.00000  Uiso   1.00
H112   H     0.48354   0.00698   0.16557   0.00000  Uiso   1.00
Br113  Br    0.39416   0.12471   0.26885   0.00000  Uiso   1.00
Br114  Br    0.50015   0.38408   0.14345   0.00000  Uiso   1.00
Br115  Br    0.59882   0.12970   0.22504   0.00000  Uiso   1.00
Br116  Br    0.45978   0.37648   0.34600   0.00000  Uiso   1.00
O117   O     0.58089   0.02558   0.23815   0.00000  Uiso   1.00
H118   H     0.61163   0.04571   0.23916   0.00000  Uiso   1.00
O119   O     0.48195   0.47168   0.33604   0.00000  Uiso   1.00
H120   H     0.49550   0.00276   0.33617   0.00000  Uiso   1.00
O121   O     0.57278   0.30285   0.13330   0.00000  Uiso   1.00
H122   H     0.56435   0.30720   0.16566   0.00000  Uiso   1.00
O123   O     0.42791   0.19660   0.36707   0.00000  Uiso   1.00
H124   H     0.43646   0.19286   0.33473   0.00000  Uiso   1.00
Br125  Br    0.42206   0.17893   0.12809   0.00000  Uiso   1.00
Br126  Br    0.57889   0.32030   0.37218   0.00000  Uiso   1.00
Br127  Br    0.45506   0.15684   0.02398   0.00000  Uiso   1.00
Br128  Br    0.54539   0.34322   0.47591   0.00000  Uiso   1.00
C129   C     0.83263   0.16528   0.25011   0.00000  Uiso   1.00
C130   C     0.83060   0.33508   0.24943   0.00000  Uiso   1.00
C131   C     0.87070   0.27323   0.05845   0.00000  Uiso   1.00
C132   C     0.79598   0.22698   0.44166   0.00000  Uiso   1.00
C133   C     0.86907   0.27538   0.10798   0.00000  Uiso   1.00
C134   C     0.79775   0.22459   0.39217   0.00000  Uiso   1.00
C135   C     0.80268   0.21937   0.10112   0.00000  Uiso   1.00
C136   C     0.86418   0.28051   0.39891   0.00000  Uiso   1.00
C137   C     0.80623   0.21510   0.05129   0.00000  Uiso   1.00
C138   C     0.86059   0.28495   0.44872   0.00000  Uiso   1.00
C139   C     0.83485   0.24766   0.02755   0.00000  Uiso   1.00
C140   C     0.83181   0.25257   0.47252   0.00000  Uiso   1.00
C141   C     0.73490   0.25005   0.23785   0.00000  Uiso   1.00
C142   C     0.93183   0.25054   0.26209   0.00000  Uiso   1.00
C143   C     0.68002   0.24673   0.23130   0.00000  Uiso   1.00
C144   C     0.98676   0.25486   0.26822   0.00000  Uiso   1.00
C145   C     0.78370   0.04672   0.25833   0.00000  Uiso   1.00
C146   C     0.82809   0.45491   0.20665   0.00000  Uiso   1.00
C147   C     0.78581   0.09324   0.25884   0.00000  Uiso   1.00
C148   C     0.82952   0.40899   0.20595   0.00000  Uiso   1.00
C149   C     0.83073   0.11722   0.25037   0.00000  Uiso   1.00
C150   C     0.82534   0.38372   0.24848   0.00000  Uiso   1.00
C151   C     0.87363   0.09549   0.24169   0.00000  Uiso   1.00
C152   C     0.81567   0.40602   0.29042   0.00000  Uiso   1.00
C153   C     0.87262   0.04910   0.24392   0.00000  Uiso   1.00
C154   C     0.81904   0.45208   0.29237   0.00000  Uiso   1.00
C155   C     0.82739   0.02529   0.25149   0.00000  Uiso   1.00
C156   C     0.82526   0.47673   0.25036   0.00000  Uiso   1.00
Cu157  Cu    0.83333   0.24999   0.29821   0.00000  Uiso   1.00
Cu158  Cu    0.83333   0.25000   0.20178   0.00000  Uiso   1.00
H159   H     0.90274   0.29026   0.04538   0.00000  Uiso   1.00
H160   H     0.76394   0.20997   0.45477   0.00000  Uiso   1.00
N161   N     0.83333   0.25001   0.12934   0.00000  Uiso   1.00
N162   N     0.83333   0.24999   0.37065   0.00000  Uiso   1.00
O163   O     0.83334   0.18572   0.29071   0.00000  Uiso   1.00
O164   O     0.83333   0.31427   0.20928   0.00000  Uiso   1.00
O165   O     0.83334   0.18573   0.20928   0.00000  Uiso   1.00
O166   O     0.83333   0.31427   0.29072   0.00000  Uiso   1.00
O167   O     0.75828   0.24999   0.28132   0.00000  Uiso   1.00
O168   O     0.90839   0.25000   0.21868   0.00000  Uiso   1.00
O169   O     0.75828   0.25000   0.19988   0.00000  Uiso   1.00
O170   O     0.90839   0.25000   0.30011   0.00000  Uiso   1.00
Br171  Br    0.98382   0.22616   0.16767   0.00000  Uiso   1.00
Br172  Br    0.68347   0.27796   0.33061   0.00000  Uiso   1.00
O173   O     0.74021   0.02079   0.26402   0.00000  Uiso   1.00
H174   H     0.71190   0.03933   0.26769   0.00000  Uiso   1.00
O175   O     0.83000   0.47740   0.16364   0.00000  Uiso   1.00
H176   H     0.81687   0.00698   0.16557   0.00000  Uiso   1.00
Br177  Br    0.72749   0.12471   0.26885   0.00000  Uiso   1.00
Br178  Br    0.83348   0.38408   0.14345   0.00000  Uiso   1.00
Br179  Br    0.93215   0.12970   0.22504   0.00000  Uiso   1.00
Br180  Br    0.79311   0.37648   0.34600   0.00000  Uiso   1.00
O181   O     0.91423   0.02558   0.23815   0.00000  Uiso   1.00
H182   H     0.94496   0.04571   0.23916   0.00000  Uiso   1.00
O183   O     0.81529   0.47168   0.33604   0.00000  Uiso   1.00
H184   H     0.82883   0.00276   0.33617   0.00000  Uiso   1.00
O185   O     0.90611   0.30285   0.13330   0.00000  Uiso   1.00
H186   H     0.89768   0.30720   0.16566   0.00000  Uiso   1.00
O187   O     0.76124   0.19660   0.36707   0.00000  Uiso   1.00
H188   H     0.76980   0.19286   0.33473   0.00000  Uiso   1.00
Br189  Br    0.75539   0.17893   0.12809   0.00000  Uiso   1.00
Br190  Br    0.91222   0.32030   0.37218   0.00000  Uiso   1.00
Br191  Br    0.78839   0.15684   0.02398   0.00000  Uiso   1.00
Br192  Br    0.87872   0.34322   0.47591   0.00000  Uiso   1.00
C193   C     0.16596   0.66528   0.25011   0.00000  Uiso   1.00
C194   C     0.16393   0.83508   0.24943   0.00000  Uiso   1.00
C195   C     0.20403   0.77323   0.05845   0.00000  Uiso   1.00
C196   C     0.12932   0.72698   0.44166   0.00000  Uiso   1.00
C197   C     0.20240   0.77538   0.10798   0.00000  Uiso   1.00
C198   C     0.13109   0.72459   0.39217   0.00000  Uiso   1.00
C199   C     0.13601   0.71937   0.10112   0.00000  Uiso   1.00
C200   C     0.19752   0.78051   0.39891   0.00000  Uiso   1.00
C201   C     0.13956   0.71510   0.05129   0.00000  Uiso   1.00
C202   C     0.19392   0.78495   0.44872   0.00000  Uiso   1.00
C203   C     0.16819   0.74766   0.02755   0.00000  Uiso   1.00
C204   C     0.16515   0.75257   0.47252   0.00000  Uiso   1.00
C205   C     0.06824   0.75005   0.23785   0.00000  Uiso   1.00
C206   C     0.26516   0.75054   0.26209   0.00000  Uiso   1.00
C207   C     0.01335   0.74673   0.23130   0.00000  Uiso   1.00
C208   C     0.32009   0.75486   0.26822   0.00000  Uiso   1.00
C209   C     0.11703   0.54672   0.25833   0.00000  Uiso   1.00
C210   C     0.16142   0.95491   0.20665   0.00000  Uiso   1.00
C211   C     0.11914   0.59324   0.25884   0.00000  Uiso   1.00
C212   C     0.16286   0.90899   0.20595   0.00000  Uiso   1.00
C213   C     0.16406   0.61722   0.25037   0.00000  Uiso   1.00
C214   C     0.15867   0.88372   0.24848   0.00000  Uiso   1.00
C215   C     0.20696   0.59549   0.24169   0.00000  Uiso   1.00
C216   C     0.14900   0.90602   0.29042   0.00000  Uiso   1.00
C217   C     0.20595   0.54910   0.24392   0.00000  Uiso   1.00
C218   C     0.15237   0.95208   0.29237   0.00000  Uiso   1.00
C219   C     0.16073   0.52529   0.25149   0.00000  Uiso   1.00
C220   C     0.15859   0.97673   0.25036   0.00000  Uiso   1.00
Cu221  Cu    0.16667   0.74999   0.29821   0.00000  Uiso   1.00
Cu222  Cu    0.16667   0.75000   0.20178   0.00000  Uiso   1.00
H223   H     0.23607   0.79026   0.04538   0.00000  Uiso   1.00
H224   H     0.09727   0.70997   0.45477   0.00000  Uiso   1.00
N225   N     0.16667   0.75001   0.12934   0.00000  Uiso   1.00
N226   N     0.16667   0.74999   0.37065   0.00000  Uiso   1.00
O227   O     0.16667   0.68572   0.29071   0.00000  Uiso   1.00
O228   O     0.16666   0.81427   0.20928   0.00000  Uiso   1.00
O229   O     0.16667   0.68573   0.20928   0.00000  Uiso   1.00
O230   O     0.16666   0.81427   0.29072   0.00000  Uiso   1.00
O231   O     0.09161   0.74999   0.28132   0.00000  Uiso   1.00
O232   O     0.24172   0.75000   0.21868   0.00000  Uiso   1.00
O233   O     0.09161   0.75000   0.19988   0.00000  Uiso   1.00
O234   O     0.24172   0.75000   0.30011   0.00000  Uiso   1.00
Br235  Br    0.31715   0.72616   0.16767   0.00000  Uiso   1.00
Br236  Br    0.01680   0.77796   0.33061   0.00000  Uiso   1.00
O237   O     0.07355   0.52079   0.26402   0.00000  Uiso   1.00
H238   H     0.04523   0.53933   0.26769   0.00000  Uiso   1.00
O239   O     0.16333   0.97740   0.16364   0.00000  Uiso   1.00
H240   H     0.15021   0.50698   0.16557   0.00000  Uiso   1.00
Br241  Br    0.06083   0.62471   0.26885   0.00000  Uiso   1.00
Br242  Br    0.16682   0.88408   0.14345   0.00000  Uiso   1.00
Br243  Br    0.26548   0.62970   0.22504   0.00000  Uiso   1.00
Br244  Br    0.12645   0.87648   0.34600   0.00000  Uiso   1.00
O245   O     0.24756   0.52558   0.23815   0.00000  Uiso   1.00
H246   H     0.27830   0.54571   0.23916   0.00000  Uiso   1.00
O247   O     0.14862   0.97168   0.33604   0.00000  Uiso   1.00
H248   H     0.16217   0.50276   0.33617   0.00000  Uiso   1.00
O249   O     0.23944   0.80285   0.13330   0.00000  Uiso   1.00
H250   H     0.23101   0.80720   0.16566   0.00000  Uiso   1.00
O251   O     0.09458   0.69660   0.36707   0.00000  Uiso   1.00
H252   H     0.10313   0.69286   0.33473   0.00000  Uiso   1.00
Br253  Br    0.08872   0.67893   0.12809   0.00000  Uiso   1.00
Br254  Br    0.24556   0.82030   0.37218   0.00000  Uiso   1.00
Br255  Br    0.12173   0.65684   0.02398   0.00000  Uiso   1.00
Br256  Br    0.21205   0.84322   0.47591   0.00000  Uiso   1.00
C257   C     0.49929   0.66528   0.25011   0.00000  Uiso   1.00
C258   C     0.49727   0.83508   0.24943   0.00000  Uiso   1.00
C259   C     0.53736   0.77323   0.05845   0.00000  Uiso   1.00
C260   C     0.46265   0.72698   0.44166   0.00000  Uiso   1.00
C261   C     0.53573   0.77538   0.10798   0.00000  Uiso   1.00
C262   C     0.46442   0.72459   0.39217   0.00000  Uiso   1.00
C263   C     0.46934   0.71937   0.10112   0.00000  Uiso   1.00
C264   C     0.53085   0.78051   0.39891   0.00000  Uiso   1.00
C265   C     0.47290   0.71510   0.05129   0.00000  Uiso   1.00
C266   C     0.52725   0.78495   0.44872   0.00000  Uiso   1.00
C267   C     0.50152   0.74766   0.02755   0.00000  Uiso   1.00
C268   C     0.49848   0.75257   0.47252   0.00000  Uiso   1.00
C269   C     0.40157   0.75005   0.23785   0.00000  Uiso   1.00
C270   C     0.59849   0.75054   0.26209   0.00000  Uiso   1.00
C271   C     0.34669   0.74673   0.23130   0.00000  Uiso   1.00
C272   C     0.65342   0.75486   0.26822   0.00000  Uiso   1.00
C273   C     0.45037   0.54672   0.25833   0.00000  Uiso   1.00
C274   C     0.49475   0.95491   0.20665   0.00000  Uiso   1.00
C275   C     0.45247   0.59324   0.25884   0.00000  Uiso   1.00
C276   C     0.49619   0.90899   0.20595   0.00000  Uiso   1.00
C277   C     0.49739   0.61722   0.25037   0.00000  Uiso   1.00
C278   C     0.49201   0.88372   0.24848   0.00000  Uiso   1.00
C279   C     0.54029   0.59549   0.24169   0.00000  Uiso   1.00
C280   C     0.48234   0.90602   0.29042   0.00000  Uiso   1.00
C281   C     0.53928   0.54910   0.24392   0.00000  Uiso   1.00
C282   C     0.48570   0.95208   0.29237   0.00000  Uiso   1.00
C283   C     0.49406   0.52529   0.25149   0.00000  Uiso   1.00
C284   C     0.49192   0.97673   0.25036   0.00000  Uiso   1.00
Cu285  Cu    0.50000   0.74999   0.29821   0.00000  Uiso   1.00
Cu286  Cu    0.50000   0.75000   0.20178   0.00000  Uiso   1.00
H287   H     0.56940   0.79026   0.04538   0.00000  Uiso   1.00
H288   H     0.43060   0.70997   0.45477   0.00000  Uiso   1.00
N289   N     0.50000   0.75001   0.12934   0.00000  Uiso   1.00
N290   N     0.50000   0.74999   0.37065   0.00000  Uiso   1.00
O291   O     0.50000   0.68572   0.29071   0.00000  Uiso   1.00
O292   O     0.50000   0.81427   0.20928   0.00000  Uiso   1.00
O293   O     0.50000   0.68573   0.20928   0.00000  Uiso   1.00
O294   O     0.50000   0.81427   0.29072   0.00000  Uiso   1.00
O295   O     0.42495   0.74999   0.28132   0.00000  Uiso   1.00
O296   O     0.57505   0.75000   0.21868   0.00000  Uiso   1.00
O297   O     0.42495   0.75000   0.19988   0.00000  Uiso   1.00
O298   O     0.57505   0.75000   0.30011   0.00000  Uiso   1.00
Br299  Br    0.65048   0.72616   0.16767   0.00000  Uiso   1.00
Br300  Br    0.35013   0.77796   0.33061   0.00000  Uiso   1.00
O301   O     0.40688   0.52079   0.26402   0.00000  Uiso   1.00
H302   H     0.37857   0.53933   0.26769   0.00000  Uiso   1.00
O303   O     0.49666   0.97740   0.16364   0.00000  Uiso   1.00
H304   H     0.48354   0.50698   0.16557   0.00000  Uiso   1.00
Br305  Br    0.39416   0.62471   0.26885   0.00000  Uiso   1.00
Br306  Br    0.50015   0.88408   0.14345   0.00000  Uiso   1.00
Br307  Br    0.59882   0.62970   0.22504   0.00000  Uiso   1.00
Br308  Br    0.45978   0.87648   0.34600   0.00000  Uiso   1.00
O309   O     0.58089   0.52558   0.23815   0.00000  Uiso   1.00
H310   H     0.61163   0.54571   0.23916   0.00000  Uiso   1.00
O311   O     0.48195   0.97168   0.33604   0.00000  Uiso   1.00
H312   H     0.49550   0.50276   0.33617   0.00000  Uiso   1.00
O313   O     0.57278   0.80285   0.13330   0.00000  Uiso   1.00
H314   H     0.56435   0.80720   0.16566   0.00000  Uiso   1.00
O315   O     0.42791   0.69660   0.36707   0.00000  Uiso   1.00
H316   H     0.43646   0.69286   0.33473   0.00000  Uiso   1.00
Br317  Br    0.42206   0.67893   0.12809   0.00000  Uiso   1.00
Br318  Br    0.57889   0.82030   0.37218   0.00000  Uiso   1.00
Br319  Br    0.45506   0.65684   0.02398   0.00000  Uiso   1.00
Br320  Br    0.54539   0.84322   0.47591   0.00000  Uiso   1.00
C321   C     0.83263   0.66528   0.25011   0.00000  Uiso   1.00
C322   C     0.83060   0.83508   0.24943   0.00000  Uiso   1.00
C323   C     0.87070   0.77323   0.05845   0.00000  Uiso   1.00
C324   C     0.79598   0.72698   0.44166   0.00000  Uiso   1.00
C325   C     0.86907   0.77538   0.10798   0.00000  Uiso   1.00
C326   C     0.79775   0.72459   0.39217   0.00000  Uiso   1.00
C327   C     0.80268   0.71937   0.10112   0.00000  Uiso   1.00
C328   C     0.86418   0.78051   0.39891   0.00000  Uiso   1.00
C329   C     0.80623   0.71510   0.05129   0.00000  Uiso   1.00
C330   C     0.86059   0.78495   0.44872   0.00000  Uiso   1.00
C331   C     0.83485   0.74766   0.02755   0.00000  Uiso   1.00
C332   C     0.83181   0.75257   0.47252   0.00000  Uiso   1.00
C333   C     0.73490   0.75005   0.23785   0.00000  Uiso   1.00
C334   C     0.93183   0.75054   0.26209   0.00000  Uiso   1.00
C335   C     0.68002   0.74673   0.23130   0.00000  Uiso   1.00
C336   C     0.98676   0.75486   0.26822   0.00000  Uiso   1.00
C337   C     0.78370   0.54672   0.25833   0.00000  Uiso   1.00
C338   C     0.82809   0.95491   0.20665   0.00000  Uiso   1.00
C339   C     0.78581   0.59324   0.25884   0.00000  Uiso   1.00
C340   C     0.82952   0.90899   0.20595   0.00000  Uiso   1.00
C341   C     0.83073   0.61722   0.25037   0.00000  Uiso   1.00
C342   C     0.82534   0.88372   0.24848   0.00000  Uiso   1.00
C343   C     0.87363   0.59549   0.24169   0.00000  Uiso   1.00
C344   C     0.81567   0.90602   0.29042   0.00000  Uiso   1.00
C345   C     0.87262   0.54910   0.24392   0.00000  Uiso   1.00
C346   C     0.81904   0.95208   0.29237   0.00000  Uiso   1.00
C347   C     0.82739   0.52529   0.25149   0.00000  Uiso   1.00
C348   C     0.82526   0.97673   0.25036   0.00000  Uiso   1.00
Cu349  Cu    0.83333   0.74999   0.29821   0.00000  Uiso   1.00
Cu350  Cu    0.83333   0.75000   0.20178   0.00000  Uiso   1.00
H351   H     0.90274   0.79026   0.04538   0.00000  Uiso   1.00
H352   H     0.76394   0.70997   0.45477   0.00000  Uiso   1.00
N353   N     0.83333   0.75001   0.12934   0.00000  Uiso   1.00
N354   N     0.83333   0.74999   0.37065   0.00000  Uiso   1.00
O355   O     0.83334   0.68572   0.29071   0.00000  Uiso   1.00
O356   O     0.83333   0.81427   0.20928   0.00000  Uiso   1.00
O357   O     0.83334   0.68573   0.20928   0.00000  Uiso   1.00
O358   O     0.83333   0.81427   0.29072   0.00000  Uiso   1.00
O359   O     0.75828   0.74999   0.28132   0.00000  Uiso   1.00
O360   O     0.90839   0.75000   0.21868   0.00000  Uiso   1.00
O361   O     0.75828   0.75000   0.19988   0.00000  Uiso   1.00
O362   O     0.90839   0.75000   0.30011   0.00000  Uiso   1.00
Br363  Br    0.98382   0.72616   0.16767   0.00000  Uiso   1.00
Br364  Br    0.68347   0.77796   0.33061   0.00000  Uiso   1.00
O365   O     0.74021   0.52079   0.26402   0.00000  Uiso   1.00
H366   H     0.71190   0.53933   0.26769   0.00000  Uiso   1.00
O367   O     0.83000   0.97740   0.16364   0.00000  Uiso   1.00
H368   H     0.81687   0.50698   0.16557   0.00000  Uiso   1.00
Br369  Br    0.72749   0.62471   0.26885   0.00000  Uiso   1.00
Br370  Br    0.83348   0.88408   0.14345   0.00000  Uiso   1.00
Br371  Br    0.93215   0.62970   0.22504   0.00000  Uiso   1.00
Br372  Br    0.79311   0.87648   0.34600   0.00000  Uiso   1.00
O373   O     0.91423   0.52558   0.23815   0.00000  Uiso   1.00
H374   H     0.94496   0.54571   0.23916   0.00000  Uiso   1.00
O375   O     0.81529   0.97168   0.33604   0.00000  Uiso   1.00
H376   H     0.82883   0.50276   0.33617   0.00000  Uiso   1.00
O377   O     0.90611   0.80285   0.13330   0.00000  Uiso   1.00
H378   H     0.89768   0.80720   0.16566   0.00000  Uiso   1.00
O379   O     0.76124   0.69660   0.36707   0.00000  Uiso   1.00
H380   H     0.76980   0.69286   0.33473   0.00000  Uiso   1.00
Br381  Br    0.75539   0.67893   0.12809   0.00000  Uiso   1.00
Br382  Br    0.91222   0.82030   0.37218   0.00000  Uiso   1.00
Br383  Br    0.78839   0.65684   0.02398   0.00000  Uiso   1.00
Br384  Br    0.87872   0.84322   0.47591   0.00000  Uiso   1.00
C385   C     0.16596   0.16528   0.75011   0.00000  Uiso   1.00
C386   C     0.16393   0.33508   0.74943   0.00000  Uiso   1.00
C387   C     0.20403   0.27323   0.55845   0.00000  Uiso   1.00
C388   C     0.12932   0.22698   0.94166   0.00000  Uiso   1.00
C389   C     0.20240   0.27538   0.60798   0.00000  Uiso   1.00
C390   C     0.13109   0.22459   0.89217   0.00000  Uiso   1.00
C391   C     0.13601   0.21937   0.60112   0.00000  Uiso   1.00
C392   C     0.19752   0.28051   0.89891   0.00000  Uiso   1.00
C393   C     0.13956   0.21510   0.55129   0.00000  Uiso   1.00
C394   C     0.19392   0.28495   0.94872   0.00000  Uiso   1.00
C395   C     0.16819   0.24766   0.52755   0.00000  Uiso   1.00
C396   C     0.16515   0.25257   0.97252   0.00000  Uiso   1.00
C397   C     0.06824   0.25005   0.73785   0.00000  Uiso   1.00
C398   C     0.26516   0.25054   0.76209   0.00000  Uiso   1.00
C399   C     0.01335   0.24673   0.73130   0.00000  Uiso   1.00
C400   C     0.32009   0.25486   0.76822   0.00000  Uiso   1.00
C401   C     0.11703   0.04672   0.75833   0.00000  Uiso   1.00
C402   C     0.16142   0.45491   0.70665   0.00000  Uiso   1.00
C403   C     0.11914   0.09324   0.75884   0.00000  Uiso   1.00
C404   C     0.16286   0.40899   0.70595   0.00000  Uiso   1.00
C405   C     0.16406   0.11722   0.75037   0.00000  Uiso   1.00
C406   C     0.15867   0.38372   0.74848   0.00000  Uiso   1.00
C407   C     0.20696   0.09549   0.74169   0.00000  Uiso   1.00
C408   C     0.14900   0.40602   0.79042   0.00000  Uiso   1.00
C409   C     0.20595   0.04910   0.74392   0.00000  Uiso   1.00
C410   C     0.15237   0.45208   0.79237   0.00000  Uiso   1.00
C411   C     0.16073   0.02529   0.75149   0.00000  Uiso   1.00
C412   C     0.15859   0.47673   0.75036   0.00000  Uiso   1.00
Cu413  Cu    0.16667   0.24999   0.79821   0.00000  Uiso   1.00
Cu414  Cu    0.16667   0.25000   0.70178   0.00000  Uiso   1.00
H415   H     0.23607   0.29026   0.54538   0.00000  Uiso   1.00
H416   H     0.09727   0.20997   0.95477   0.00000  Uiso   1.00
N417   N     0.16667   0.25001   0.62934   0.00000  Uiso   1.00
N418   N     0.16667   0.24999   0.87065   0.00000  Uiso   1.00
O419   O     0.16667   0.18572   0.79071   0.00000  Uiso   1.00
O420   O     0.16666   0.31427   0.70928   0.00000  Uiso   1.00
O421   O     0.16667   0.18573   0.70928   0.00000  Uiso   1.00
O422   O     0.16666   0.31427   0.79072   0.00000  Uiso   1.00
O423   O     0.09161   0.24999   0.78132   0.00000  Uiso   1.00
O424   O     0.24172   0.25000   0.71868   0.00000  Uiso   1.00
O425   O     0.09161   0.25000   0.69988   0.00000  Uiso   1.00
O426   O     0.24172   0.25000   0.80011   0.00000  Uiso   1.00
Br427  Br    0.31715   0.22616   0.66767   0.00000  Uiso   1.00
Br428  Br    0.01680   0.27796   0.83061   0.00000  Uiso   1.00
O429   O     0.07355   0.02079   0.76402   0.00000  Uiso   1.00
H430   H     0.04523   0.03933   0.76769   0.00000  Uiso   1.00
O431   O     0.16333   0.47740   0.66364   0.00000  Uiso   1.00
H432   H     0.15021   0.00698   0.66557   0.00000  Uiso   1.00
Br433  Br    0.06083   0.12471   0.76885   0.00000  Uiso   1.00
Br434  Br    0.16682   0.38408   0.64345   0.00000  Uiso   1.00
Br435  Br    0.26548   0.12970   0.72504   0.00000  Uiso   1.00
Br436  Br    0.12645   0.37648   0.84600   0.00000  Uiso   1.00
O437   O     0.24756   0.02558   0.73815   0.00000  Uiso   1.00
H438   H     0.27830   0.04571   0.73916   0.00000  Uiso   1.00
O439   O     0.14862   0.47168   0.83604   0.00000  Uiso   1.00
H440   H     0.16217   0.00276   0.83617   0.00000  Uiso   1.00
O441   O     0.23944   0.30285   0.63330   0.00000  Uiso   1.00
H442   H     0.23101   0.30720   0.66566   0.00000  Uiso   1.00
O443   O     0.09458   0.19660   0.86707   0.00000  Uiso   1.00
H444   H     0.10313   0.19286   0.83473   0.00000  Uiso   1.00
Br445  Br    0.08872   0.17893   0.62809   0.00000  Uiso   1.00
Br446  Br    0.24556   0.32030   0.87218   0.00000  Uiso   1.00
Br447  Br    0.12173   0.15684   0.52398   0.00000  Uiso   1.00
Br448  Br    0.21205   0.34322   0.97591   0.00000  Uiso   1.00
C449   C     0.49929   0.16528   0.75011   0.00000  Uiso   1.00
C450   C     0.49727   0.33508   0.74943   0.00000  Uiso   1.00
C451   C     0.53736   0.27323   0.55845   0.00000  Uiso   1.00
C452   C     0.46265   0.22698   0.94166   0.00000  Uiso   1.00
C453   C     0.53573   0.27538   0.60798   0.00000  Uiso   1.00
C454   C     0.46442   0.22459   0.89217   0.00000  Uiso   1.00
C455   C     0.46934   0.21937   0.60112   0.00000  Uiso   1.00
C456   C     0.53085   0.28051   0.89891   0.00000  Uiso   1.00
C457   C     0.47290   0.21510   0.55129   0.00000  Uiso   1.00
C458   C     0.52725   0.28495   0.94872   0.00000  Uiso   1.00
C459   C     0.50152   0.24766   0.52755   0.00000  Uiso   1.00
C460   C     0.49848   0.25257   0.97252   0.00000  Uiso   1.00
C461   C     0.40157   0.25005   0.73785   0.00000  Uiso   1.00
C462   C     0.59849   0.25054   0.76209   0.00000  Uiso   1.00
C463   C     0.34669   0.24673   0.73130   0.00000  Uiso   1.00
C464   C     0.65342   0.25486   0.76822   0.00000  Uiso   1.00
C465   C     0.45037   0.04672   0.75833   0.00000  Uiso   1.00
C466   C     0.49475   0.45491   0.70665   0.00000  Uiso   1.00
C467   C     0.45247   0.09324   0.75884   0.00000  Uiso   1.00
C468   C     0.49619   0.40899   0.70595   0.00000  Uiso   1.00
C469   C     0.49739   0.11722   0.75037   0.00000  Uiso   1.00
C470   C     0.49201   0.38372   0.74848   0.00000  Uiso   1.00
C471   C     0.54029   0.09549   0.74169   0.00000  Uiso   1.00
C472   C     0.48234   0.40602   0.79042   0.00000  Uiso   1.00
C473   C     0.53928   0.04910   0.74392   0.00000  Uiso   1.00
C474   C     0.48570   0.45208   0.79237   0.00000  Uiso   1.00
C475   C     0.49406   0.02529   0.75149   0.00000  Uiso   1.00
C476   C     0.49192   0.47673   0.75036   0.00000  Uiso   1.00
Cu477  Cu    0.50000   0.24999   0.79821   0.00000  Uiso   1.00
Cu478  Cu    0.50000   0.25000   0.70178   0.00000  Uiso   1.00
H479   H     0.56940   0.29026   0.54538   0.00000  Uiso   1.00
H480   H     0.43060   0.20997   0.95477   0.00000  Uiso   1.00
N481   N     0.50000   0.25001   0.62934   0.00000  Uiso   1.00
N482   N     0.50000   0.24999   0.87065   0.00000  Uiso   1.00
O483   O     0.50000   0.18572   0.79071   0.00000  Uiso   1.00
O484   O     0.50000   0.31427   0.70928   0.00000  Uiso   1.00
O485   O     0.50000   0.18573   0.70928   0.00000  Uiso   1.00
O486   O     0.50000   0.31427   0.79072   0.00000  Uiso   1.00
O487   O     0.42495   0.24999   0.78132   0.00000  Uiso   1.00
O488   O     0.57505   0.25000   0.71868   0.00000  Uiso   1.00
O489   O     0.42495   0.25000   0.69988   0.00000  Uiso   1.00
O490   O     0.57505   0.25000   0.80011   0.00000  Uiso   1.00
Br491  Br    0.65048   0.22616   0.66767   0.00000  Uiso   1.00
Br492  Br    0.35013   0.27796   0.83061   0.00000  Uiso   1.00
O493   O     0.40688   0.02079   0.76402   0.00000  Uiso   1.00
H494   H     0.37857   0.03933   0.76769   0.00000  Uiso   1.00
O495   O     0.49666   0.47740   0.66364   0.00000  Uiso   1.00
H496   H     0.48354   0.00698   0.66557   0.00000  Uiso   1.00
Br497  Br    0.39416   0.12471   0.76885   0.00000  Uiso   1.00
Br498  Br    0.50015   0.38408   0.64345   0.00000  Uiso   1.00
Br499  Br    0.59882   0.12970   0.72504   0.00000  Uiso   1.00
Br500  Br    0.45978   0.37648   0.84600   0.00000  Uiso   1.00
O501   O     0.58089   0.02558   0.73815   0.00000  Uiso   1.00
H502   H     0.61163   0.04571   0.73916   0.00000  Uiso   1.00
O503   O     0.48195   0.47168   0.83604   0.00000  Uiso   1.00
H504   H     0.49550   0.00276   0.83617   0.00000  Uiso   1.00
O505   O     0.57278   0.30285   0.63330   0.00000  Uiso   1.00
H506   H     0.56435   0.30720   0.66566   0.00000  Uiso   1.00
O507   O     0.42791   0.19660   0.86707   0.00000  Uiso   1.00
H508   H     0.43646   0.19286   0.83473   0.00000  Uiso   1.00
Br509  Br    0.42206   0.17893   0.62809   0.00000  Uiso   1.00
Br510  Br    0.57889   0.32030   0.87218   0.00000  Uiso   1.00
Br511  Br    0.45506   0.15684   0.52398   0.00000  Uiso   1.00
Br512  Br    0.54539   0.34322   0.97591   0.00000  Uiso   1.00
C513   C     0.83263   0.16528   0.75011   0.00000  Uiso   1.00
C514   C     0.83060   0.33508   0.74943   0.00000  Uiso   1.00
C515   C     0.87070   0.27323   0.55845   0.00000  Uiso   1.00
C516   C     0.79598   0.22698   0.94166   0.00000  Uiso   1.00
C517   C     0.86907   0.27538   0.60798   0.00000  Uiso   1.00
C518   C     0.79775   0.22459   0.89217   0.00000  Uiso   1.00
C519   C     0.80268   0.21937   0.60112   0.00000  Uiso   1.00
C520   C     0.86418   0.28051   0.89891   0.00000  Uiso   1.00
C521   C     0.80623   0.21510   0.55129   0.00000  Uiso   1.00
C522   C     0.86059   0.28495   0.94872   0.00000  Uiso   1.00
C523   C     0.83485   0.24766   0.52755   0.00000  Uiso   1.00
C524   C     0.83181   0.25257   0.97252   0.00000  Uiso   1.00
C525   C     0.73490   0.25005   0.73785   0.00000  Uiso   1.00
C526   C     0.93183   0.25054   0.76209   0.00000  Uiso   1.00
C527   C     0.68002   0.24673   0.73130   0.00000  Uiso   1.00
C528   C     0.98676   0.25486   0.76822   0.00000  Uiso   1.00
C529   C     0.78370   0.04672   0.75833   0.00000  Uiso   1.00
C530   C     0.82809   0.45491   0.70665   0.00000  Uiso   1.00
C531   C     0.78581   0.09324   0.75884   0.00000  Uiso   1.00
C532   C     0.82952   0.40899   0.70595   0.00000  Uiso   1.00
C533   C     0.83073   0.11722   0.75037   0.00000  Uiso   1.00
C534   C     0.82534   0.38372   0.74848   0.00000  Uiso   1.00
C535   C     0.87363   0.09549   0.74169   0.00000  Uiso   1.00
C536   C     0.81567   0.40602   0.79042   0.00000  Uiso   1.00
C537   C     0.87262   0.04910   0.74392   0.00000  Uiso   1.00
C538   C     0.81904   0.45208   0.79237   0.00000  Uiso   1.00
C539   C     0.82739   0.02529   0.75149   0.00000  Uiso   1.00
C540   C     0.82526   0.47673   0.75036   0.00000  Uiso   1.00
Cu541  Cu    0.83333   0.24999   0.79821   0.00000  Uiso   1.00
Cu542  Cu    0.83333   0.25000   0.70178   0.00000  Uiso   1.00
H543   H     0.90274   0.29026   0.54538   0.00000  Uiso   1.00
H544   H     0.76394   0.20997   0.95477   0.00000  Uiso   1.00
N545   N     0.83333   0.25001   0.62934   0.00000  Uiso   1.00
N546   N     0.83333   0.24999   0.87065   0.00000  Uiso   1.00
O547   O     0.83334   0.18572   0.79071   0.00000  Uiso   1.00
O548   O     0.83333   0.31427   0.70928   0.00000  Uiso   1.00
O549   O     0.83334   0.18573   0.70928   0.00000  Uiso   1.00
O550   O     0.83333   0.31427   0.79072   0.00000  Uiso   1.00
O551   O     0.75828   0.24999   0.78132   0.00000  Uiso   1.00
O552   O     0.90839   0.25000   0.71868   0.00000  Uiso   1.00
O553   O     0.75828   0.25000   0.69988   0.00000  Uiso   1.00
O554   O     0.90839   0.25000   0.80011   0.00000  Uiso   1.00
Br555  Br    0.98382   0.22616   0.66767   0.00000  Uiso   1.00
Br556  Br    0.68347   0.27796   0.83061   0.00000  Uiso   1.00
O557   O     0.74021   0.02079   0.76402   0.00000  Uiso   1.00
H558   H     0.71190   0.03933   0.76769   0.00000  Uiso   1.00
O559   O     0.83000   0.47740   0.66364   0.00000  Uiso   1.00
H560   H     0.81687   0.00698   0.66557   0.00000  Uiso   1.00
Br561  Br    0.72749   0.12471   0.76885   0.00000  Uiso   1.00
Br562  Br    0.83348   0.38408   0.64345   0.00000  Uiso   1.00
Br563  Br    0.93215   0.12970   0.72504   0.00000  Uiso   1.00
Br564  Br    0.79311   0.37648   0.84600   0.00000  Uiso   1.00
O565   O     0.91423   0.02558   0.73815   0.00000  Uiso   1.00
H566   H     0.94496   0.04571   0.73916   0.00000  Uiso   1.00
O567   O     0.81529   0.47168   0.83604   0.00000  Uiso   1.00
H568   H     0.82883   0.00276   0.83617   0.00000  Uiso   1.00
O569   O     0.90611   0.30285   0.63330   0.00000  Uiso   1.00
H570   H     0.89768   0.30720   0.66566   0.00000  Uiso   1.00
O571   O     0.76124   0.19660   0.86707   0.00000  Uiso   1.00
H572   H     0.76980   0.19286   0.83473   0.00000  Uiso   1.00
Br573  Br    0.75539   0.17893   0.62809   0.00000  Uiso   1.00
Br574  Br    0.91222   0.32030   0.87218   0.00000  Uiso   1.00
Br575  Br    0.78839   0.15684   0.52398   0.00000  Uiso   1.00
Br576  Br    0.87872   0.34322   0.97591   0.00000  Uiso   1.00
C577   C     0.16596   0.66528   0.75011   0.00000  Uiso   1.00
C578   C     0.16393   0.83508   0.74943   0.00000  Uiso   1.00
C579   C     0.20403   0.77323   0.55845   0.00000  Uiso   1.00
C580   C     0.12932   0.72698   0.94166   0.00000  Uiso   1.00
C581   C     0.20240   0.77538   0.60798   0.00000  Uiso   1.00
C582   C     0.13109   0.72459   0.89217   0.00000  Uiso   1.00
C583   C     0.13601   0.71937   0.60112   0.00000  Uiso   1.00
C584   C     0.19752   0.78051   0.89891   0.00000  Uiso   1.00
C585   C     0.13956   0.71510   0.55129   0.00000  Uiso   1.00
C586   C     0.19392   0.78495   0.94872   0.00000  Uiso   1.00
C587   C     0.16819   0.74766   0.52755   0.00000  Uiso   1.00
C588   C     0.16515   0.75257   0.97252   0.00000  Uiso   1.00
C589   C     0.06824   0.75005   0.73785   0.00000  Uiso   1.00
C590   C     0.26516   0.75054   0.76209   0.00000  Uiso   1.00
C591   C     0.01335   0.74673   0.73130   0.00000  Uiso   1.00
C592   C     0.32009   0.75486   0.76822   0.00000  Uiso   1.00
C593   C     0.11703   0.54672   0.75833   0.00000  Uiso   1.00
C594   C     0.16142   0.95491   0.70665   0.00000  Uiso   1.00
C595   C     0.11914   0.59324   0.75884   0.00000  Uiso   1.00
C596   C     0.16286   0.90899   0.70595   0.00000  Uiso   1.00
C597   C     0.16406   0.61722   0.75037   0.00000  Uiso   1.00
C598   C     0.15867   0.88372   0.74848   0.00000  Uiso   1.00
C599   C     0.20696   0.59549   0.74169   0.00000  Uiso   1.00
C600   C     0.14900   0.90602   0.79042   0.00000  Uiso   1.00
C601   C     0.20595   0.54910   0.74392   0.00000  Uiso   1.00
C602   C     0.15237   0.95208   0.79237   0.00000  Uiso   1.00
C603   C     0.16073   0.52529   0.75149   0.00000  Uiso   1.00
C604   C     0.15859   0.97673   0.75036   0.00000  Uiso   1.00
Cu605  Cu    0.16667   0.74999   0.79821   0.00000  Uiso   1.00
Cu606  Cu    0.16667   0.75000   0.70178   0.00000  Uiso   1.00
H607   H     0.23607   0.79026   0.54538   0.00000  Uiso   1.00
H608   H     0.09727   0.70997   0.95477   0.00000  Uiso   1.00
N609   N     0.16667   0.75001   0.62934   0.00000  Uiso   1.00
N610   N     0.16667   0.74999   0.87065   0.00000  Uiso   1.00
O611   O     0.16667   0.68572   0.79071   0.00000  Uiso   1.00
O612   O     0.16666   0.81427   0.70928   0.00000  Uiso   1.00
O613   O     0.16667   0.68573   0.70928   0.00000  Uiso   1.00
O614   O     0.16666   0.81427   0.79072   0.00000  Uiso   1.00
O615   O     0.09161   0.74999   0.78132   0.00000  Uiso   1.00
O616   O     0.24172   0.75000   0.71868   0.00000  Uiso   1.00
O617   O     0.09161   0.75000   0.69988   0.00000  Uiso   1.00
O618   O     0.24172   0.75000   0.80011   0.00000  Uiso   1.00
Br619  Br    0.31715   0.72616   0.66767   0.00000  Uiso   1.00
Br620  Br    0.01680   0.77796   0.83061   0.00000  Uiso   1.00
O621   O     0.07355   0.52079   0.76402   0.00000  Uiso   1.00
H622   H     0.04523   0.53933   0.76769   0.00000  Uiso   1.00
O623   O     0.16333   0.97740   0.66364   0.00000  Uiso   1.00
H624   H     0.15021   0.50698   0.66557   0.00000  Uiso   1.00
Br625  Br    0.06083   0.62471   0.76885   0.00000  Uiso   1.00
Br626  Br    0.16682   0.88408   0.64345   0.00000  Uiso   1.00
Br627  Br    0.26548   0.62970   0.72504   0.00000  Uiso   1.00
Br628  Br    0.12645   0.87648   0.84600   0.00000  Uiso   1.00
O629   O     0.24756   0.52558   0.73815   0.00000  Uiso   1.00
H630   H     0.27830   0.54571   0.73916   0.00000  Uiso   1.00
O631   O     0.14862   0.97168   0.83604   0.00000  Uiso   1.00
H632   H     0.16217   0.50276   0.83617   0.00000  Uiso   1.00
O633   O     0.23944   0.80285   0.63330   0.00000  Uiso   1.00
H634   H     0.23101   0.80720   0.66566   0.00000  Uiso   1.00
O635   O     0.09458   0.69660   0.86707   0.00000  Uiso   1.00
H636   H     0.10313   0.69286   0.83473   0.00000  Uiso   1.00
Br637  Br    0.08872   0.67893   0.62809   0.00000  Uiso   1.00
Br638  Br    0.24556   0.82030   0.87218   0.00000  Uiso   1.00
Br639  Br    0.12173   0.65684   0.52398   0.00000  Uiso   1.00
Br640  Br    0.21205   0.84322   0.97591   0.00000  Uiso   1.00
C641   C     0.49929   0.66528   0.75011   0.00000  Uiso   1.00
C642   C     0.49727   0.83508   0.74943   0.00000  Uiso   1.00
C643   C     0.53736   0.77323   0.55845   0.00000  Uiso   1.00
C644   C     0.46265   0.72698   0.94166   0.00000  Uiso   1.00
C645   C     0.53573   0.77538   0.60798   0.00000  Uiso   1.00
C646   C     0.46442   0.72459   0.89217   0.00000  Uiso   1.00
C647   C     0.46934   0.71937   0.60112   0.00000  Uiso   1.00
C648   C     0.53085   0.78051   0.89891   0.00000  Uiso   1.00
C649   C     0.47290   0.71510   0.55129   0.00000  Uiso   1.00
C650   C     0.52725   0.78495   0.94872   0.00000  Uiso   1.00
C651   C     0.50152   0.74766   0.52755   0.00000  Uiso   1.00
C652   C     0.49848   0.75257   0.97252   0.00000  Uiso   1.00
C653   C     0.40157   0.75005   0.73785   0.00000  Uiso   1.00
C654   C     0.59849   0.75054   0.76209   0.00000  Uiso   1.00
C655   C     0.34669   0.74673   0.73130   0.00000  Uiso   1.00
C656   C     0.65342   0.75486   0.76822   0.00000  Uiso   1.00
C657   C     0.45037   0.54672   0.75833   0.00000  Uiso   1.00
C658   C     0.49475   0.95491   0.70665   0.00000  Uiso   1.00
C659   C     0.45247   0.59324   0.75884   0.00000  Uiso   1.00
C660   C     0.49619   0.90899   0.70595   0.00000  Uiso   1.00
C661   C     0.49739   0.61722   0.75037   0.00000  Uiso   1.00
C662   C     0.49201   0.88372   0.74848   0.00000  Uiso   1.00
C663   C     0.54029   0.59549   0.74169   0.00000  Uiso   1.00
C664   C     0.48234   0.90602   0.79042   0.00000  Uiso   1.00
C665   C     0.53928   0.54910   0.74392   0.00000  Uiso   1.00
C666   C     0.48570   0.95208   0.79237   0.00000  Uiso   1.00
C667   C     0.49406   0.52529   0.75149   0.00000  Uiso   1.00
C668   C     0.49192   0.97673   0.75036   0.00000  Uiso   1.00
Cu669  Cu    0.50000   0.74999   0.79821   0.00000  Uiso   1.00
Cu670  Cu    0.50000   0.75000   0.70178   0.00000  Uiso   1.00
H671   H     0.56940   0.79026   0.54538   0.00000  Uiso   1.00
H672   H     0.43060   0.70997   0.95477   0.00000  Uiso   1.00
N673   N     0.50000   0.75001   0.62934   0.00000  Uiso   1.00
N674   N     0.50000   0.74999   0.87065   0.00000  Uiso   1.00
O675   O     0.50000   0.68572   0.79071   0.00000  Uiso   1.00
O676   O     0.50000   0.81427   0.70928   0.00000  Uiso   1.00
O677   O     0.50000   0.68573   0.70928   0.00000  Uiso   1.00
O678   O     0.50000   0.81427   0.79072   0.00000  Uiso   1.00
O679   O     0.42495   0.74999   0.78132   0.00000  Uiso   1.00
O680   O     0.57505   0.75000   0.71868   0.00000  Uiso   1.00
O681   O     0.42495   0.75000   0.69988   0.00000  Uiso   1.00
O682   O     0.57505   0.75000   0.80011   0.00000  Uiso   1.00
Br683  Br    0.65048   0.72616   0.66767   0.00000  Uiso   1.00
Br684  Br    0.35013   0.77796   0.83061   0.00000  Uiso   1.00
O685   O     0.40688   0.52079   0.76402   0.00000  Uiso   1.00
H686   H     0.37857   0.53933   0.76769   0.00000  Uiso   1.00
O687   O     0.49666   0.97740   0.66364   0.00000  Uiso   1.00
H688   H     0.48354   0.50698   0.66557   0.00000  Uiso   1.00
Br689  Br    0.39416   0.62471   0.76885   0.00000  Uiso   1.00
Br690  Br    0.50015   0.88408   0.64345   0.00000  Uiso   1.00
Br691  Br    0.59882   0.62970   0.72504   0.00000  Uiso   1.00
Br692  Br    0.45978   0.87648   0.84600   0.00000  Uiso   1.00
O693   O     0.58089   0.52558   0.73815   0.00000  Uiso   1.00
H694   H     0.61163   0.54571   0.73916   0.00000  Uiso   1.00
O695   O     0.48195   0.97168   0.83604   0.00000  Uiso   1.00
H696   H     0.49550   0.50276   0.83617   0.00000  Uiso   1.00
O697   O     0.57278   0.80285   0.63330   0.00000  Uiso   1.00
H698   H     0.56435   0.80720   0.66566   0.00000  Uiso   1.00
O699   O     0.42791   0.69660   0.86707   0.00000  Uiso   1.00
H700   H     0.43646   0.69286   0.83473   0.00000  Uiso   1.00
Br701  Br    0.42206   0.67893   0.62809   0.00000  Uiso   1.00
Br702  Br    0.57889   0.82030   0.87218   0.00000  Uiso   1.00
Br703  Br    0.45506   0.65684   0.52398   0.00000  Uiso   1.00
Br704  Br    0.54539   0.84322   0.97591   0.00000  Uiso   1.00
C705   C     0.83263   0.66528   0.75011   0.00000  Uiso   1.00
C706   C     0.83060   0.83508   0.74943   0.00000  Uiso   1.00
C707   C     0.87070   0.77323   0.55845   0.00000  Uiso   1.00
C708   C     0.79598   0.72698   0.94166   0.00000  Uiso   1.00
C709   C     0.86907   0.77538   0.60798   0.00000  Uiso   1.00
C710   C     0.79775   0.72459   0.89217   0.00000  Uiso   1.00
C711   C     0.80268   0.71937   0.60112   0.00000  Uiso   1.00
C712   C     0.86418   0.78051   0.89891   0.00000  Uiso   1.00
C713   C     0.80623   0.71510   0.55129   0.00000  Uiso   1.00
C714   C     0.86059   0.78495   0.94872   0.00000  Uiso   1.00
C715   C     0.83485   0.74766   0.52755   0.00000  Uiso   1.00
C716   C     0.83181   0.75257   0.97252   0.00000  Uiso   1.00
C717   C     0.73490   0.75005   0.73785   0.00000  Uiso   1.00
C718   C     0.93183   0.75054   0.76209   0.00000  Uiso   1.00
C719   C     0.68002   0.74673   0.73130   0.00000  Uiso   1.00
C720   C     0.98676   0.75486   0.76822   0.00000  Uiso   1.00
C721   C     0.78370   0.54672   0.75833   0.00000  Uiso   1.00
C722   C     0.82809   0.95491   0.70665   0.00000  Uiso   1.00
C723   C     0.78581   0.59324   0.75884   0.00000  Uiso   1.00
C724   C     0.82952   0.90899   0.70595   0.00000  Uiso   1.00
C725   C     0.83073   0.61722   0.75037   0.00000  Uiso   1.00
C726   C     0.82534   0.88372   0.74848   0.00000  Uiso   1.00
C727   C     0.87363   0.59549   0.74169   0.00000  Uiso   1.00
C728   C     0.81567   0.90602   0.79042   0.00000  Uiso   1.00
C729   C     0.87262   0.54910   0.74392   0.00000  Uiso   1.00
C730   C     0.81904   0.95208   0.79237   0.00000  Uiso   1.00
C731   C     0.82739   0.52529   0.75149   0.00000  Uiso   1.00
C732   C     0.82526   0.97673   0.75036   0.00000  Uiso   1.00
Cu733  Cu    0.83333   0.74999   0.79821   0.00000  Uiso   1.00
Cu734  Cu    0.83333   0.75000   0.70178   0.00000  Uiso   1.00
H735   H     0.90274   0.79026   0.54538   0.00000  Uiso   1.00
H736   H     0.76394   0.70997   0.95477   0.00000  Uiso   1.00
N737   N     0.83333   0.75001   0.62934   0.00000  Uiso   1.00
N738   N     0.83333   0.74999   0.87065   0.00000  Uiso   1.00
O739   O     0.83334   0.68572   0.79071   0.00000  Uiso   1.00
O740   O     0.83333   0.81427   0.70928   0.00000  Uiso   1.00
O741   O     0.83334   0.68573   0.70928   0.00000  Uiso   1.00
O742   O     0.83333   0.81427   0.79072   0.00000  Uiso   1.00
O743   O     0.75828   0.74999   0.78132   0.00000  Uiso   1.00
O744   O     0.90839   0.75000   0.71868   0.00000  Uiso   1.00
O745   O     0.75828   0.75000   0.69988   0.00000  Uiso   1.00
O746   O     0.90839   0.75000   0.80011   0.00000  Uiso   1.00
Br747  Br    0.98382   0.72616   0.66767   0.00000  Uiso   1.00
Br748  Br    0.68347   0.77796   0.83061   0.00000  Uiso   1.00
O749   O     0.74021   0.52079   0.76402   0.00000  Uiso   1.00
H750   H     0.71190   0.53933   0.76769   0.00000  Uiso   1.00
O751   O     0.83000   0.97740   0.66364   0.00000  Uiso   1.00
H752   H     0.81687   0.50698   0.66557   0.00000  Uiso   1.00
Br753  Br    0.72749   0.62471   0.76885   0.00000  Uiso   1.00
Br754  Br    0.83348   0.88408   0.64345   0.00000  Uiso   1.00
Br755  Br    0.93215   0.62970   0.72504   0.00000  Uiso   1.00
Br756  Br    0.79311   0.87648   0.84600   0.00000  Uiso   1.00
O757   O     0.91423   0.52558   0.73815   0.00000  Uiso   1.00
H758   H     0.94496   0.54571   0.73916   0.00000  Uiso   1.00
O759   O     0.81529   0.97168   0.83604   0.00000  Uiso   1.00
H760   H     0.82883   0.50276   0.83617   0.00000  Uiso   1.00
O761   O     0.90611   0.80285   0.63330   0.00000  Uiso   1.00
H762   H     0.89768   0.80720   0.66566   0.00000  Uiso   1.00
O763   O     0.76124   0.69660   0.86707   0.00000  Uiso   1.00
H764   H     0.76980   0.69286   0.83473   0.00000  Uiso   1.00
Br765  Br    0.75539   0.67893   0.62809   0.00000  Uiso   1.00
Br766  Br    0.91222   0.82030   0.87218   0.00000  Uiso   1.00
Br767  Br    0.78839   0.65684   0.52398   0.00000  Uiso   1.00
Br768  Br    0.87872   0.84322   0.97591   0.00000  Uiso   1.00
loop_
_geom_bond_atom_site_label_1
_geom_bond_atom_site_label_2
_geom_bond_distance
_geom_bond_site_symmetry_2
_ccdc_geom_bond_type
C1     C21     1.457   .     S
C1     O37     1.299   .     A
C1     O35     1.300   .     A
C2     C22     1.492   .     S
C2     O38     1.309   .     A
C2     O36     1.309   .     A
C3     H31     1.074   .     S
C3     C11     1.401   .     A
C3     C5      1.398   .     A
C4     H32     1.074   .     S
C4     C6      1.398   .     A
C4     C12     1.400   .     A
C5     O57     1.375   .     S
C5     N33     1.381   .     A
C6     O59     1.373   .     S
C6     N34     1.381   .     A
C7     N33     1.379   .     A
C7     C9      1.421   .     A
C7     Br61    1.925   .     S
C8     N34     1.380   .     A
C8     C10     1.421   .     A
C8     Br62    1.924   .     S
C9     C11     1.424   .     A
C9     Br63    1.940   .     S
C10    C12     1.424   .     A
C10    Br64    1.940   .     S
C11    C396    1.541   1_554 S
C12    C395    1.541   .     S
C13    C15     1.446   .     S
C13    O39     1.293   .     A
C13    O41     1.303   .     A
C14    O40     1.291   .     A
C14    C16     1.447   .     S
C14    O42     1.305   .     A
C15    C144    1.363   1_455 S
C15    Br171   1.943   1_455 S
C16    C79     1.363   .     S
C16    Br108   1.942   .     S
C17    O45     1.385   .     S
C17    C27     1.405   .     A
C17    C19     1.410   .     A
C18    O47     1.385   .     S
C18    C28     1.412   .     A
C18    C20     1.398   .     A
C19    C21     1.407   .     A
C19    Br49    1.927   .     S
C20    C22     1.425   .     A
C20    Br50    1.934   .     S
C21    C23     1.405   .     A
C22    C24     1.424   .     A
C23    Br51    1.925   .     S
C23    C25     1.408   .     A
C24    Br52    1.936   .     S
C24    C26     1.397   .     A
C25    C27     1.404   .     A
C25    O53     1.384   .     S
C26    O55     1.385   .     S
C26    C28     1.412   .     A
C27    C220    1.472   1_545 S
C28    C219    1.472   .     S
Cu29   O38     1.961   .     S
Cu29   Cu30    2.704   .     S
Cu29   O42     1.992   .     S
Cu29   O39     1.991   .     S
Cu29   O35     1.965   .     S
Cu29   N34     2.031   .     S
Cu30   O41     1.992   .     S
Cu30   O40     1.991   .     S
Cu30   N33     2.031   .     S
Cu30   O37     1.961   .     S
Cu30   O36     1.965   .     S
Br43   C79     1.943   .     S
Br44   C144    1.942   1_455 S
O45    H46     0.986   .     S
O47    H240    0.989   .     S
H48    O239    0.989   1_545 S
O53    H54     0.987   .     S
O55    H248    0.989   .     S
H56    O247    0.989   1_545 S
O57    H58     0.976   .     S
O59    H60     0.973   .     S
C65    C85     1.457   .     S
C65    O101    1.299   .     A
C65    O99     1.300   .     A
C66    C86     1.492   .     S
C66    O102    1.309   .     A
C66    O100    1.309   .     A
C67    H95     1.074   .     S
C67    C75     1.401   .     A
C67    C69     1.398   .     A
C68    H96     1.074   .     S
C68    C70     1.398   .     A
C68    C76     1.400   .     A
C69    O121    1.375   .     S
C69    N97     1.381   .     A
C70    O123    1.373   .     S
C70    N98     1.381   .     A
C71    N97     1.379   .     A
C71    C73     1.421   .     A
C71    Br125   1.925   .     S
C72    N98     1.380   .     A
C72    C74     1.421   .     A
C72    Br126   1.924   .     S
C73    C75     1.424   .     A
C73    Br127   1.940   .     S
C74    C76     1.424   .     A
C74    Br128   1.940   .     S
C75    C460    1.541   1_554 S
C76    C459    1.541   .     S
C77    C79     1.446   .     S
C77    O103    1.293   .     A
C77    O105    1.303   .     A
C78    O104    1.291   .     A
C78    C80     1.447   .     S
C78    O106    1.305   .     A
C80    C143    1.363   .     S
C80    Br172   1.942   .     S
C81    O109    1.385   .     S
C81    C91     1.405   .     A
C81    C83     1.410   .     A
C82    O111    1.385   .     S
C82    C92     1.412   .     A
C82    C84     1.398   .     A
C83    C85     1.407   .     A
C83    Br113   1.927   .     S
C84    C86     1.425   .     A
C84    Br114   1.934   .     S
C85    C87     1.405   .     A
C86    C88     1.424   .     A
C87    Br115   1.925   .     S
C87    C89     1.408   .     A
C88    Br116   1.936   .     S
C88    C90     1.397   .     A
C89    C91     1.404   .     A
C89    O117    1.384   .     S
C90    O119    1.385   .     S
C90    C92     1.412   .     A
C91    C284    1.472   1_545 S
C92    C283    1.472   .     S
Cu93   O102    1.961   .     S
Cu93   Cu94    2.704   .     S
Cu93   O106    1.992   .     S
Cu93   O103    1.991   .     S
Cu93   O99     1.965   .     S
Cu93   N98     2.031   .     S
Cu94   O105    1.992   .     S
Cu94   O104    1.991   .     S
Cu94   N97     2.031   .     S
Cu94   O101    1.961   .     S
Cu94   O100    1.965   .     S
Br107  C143    1.943   .     S
O109   H110    0.986   .     S
O111   H304    0.989   .     S
H112   O303    0.989   1_545 S
O117   H118    0.987   .     S
O119   H312    0.989   .     S
H120   O311    0.989   1_545 S
O121   H122    0.976   .     S
O123   H124    0.973   .     S
C129   C149    1.457   .     S
C129   O165    1.299   .     A
C129   O163    1.300   .     A
C130   C150    1.492   .     S
C130   O166    1.309   .     A
C130   O164    1.309   .     A
C131   H159    1.074   .     S
C131   C139    1.401   .     A
C131   C133    1.398   .     A
C132   H160    1.074   .     S
C132   C134    1.398   .     A
C132   C140    1.400   .     A
C133   O185    1.375   .     S
C133   N161    1.381   .     A
C134   O187    1.373   .     S
C134   N162    1.381   .     A
C135   N161    1.379   .     A
C135   C137    1.421   .     A
C135   Br189   1.925   .     S
C136   N162    1.380   .     A
C136   C138    1.421   .     A
C136   Br190   1.924   .     S
C137   C139    1.424   .     A
C137   Br191   1.940   .     S
C138   C140    1.424   .     A
C138   Br192   1.940   .     S
C139   C524    1.541   1_554 S
C140   C523    1.541   .     S
C141   C143    1.446   .     S
C141   O167    1.293   .     A
C141   O169    1.303   .     A
C142   O168    1.291   .     A
C142   C144    1.447   .     S
C142   O170    1.305   .     A
C144   C15     1.363   1_655 S
C144   Br44    1.942   1_655 S
C145   O173    1.385   .     S
C145   C155    1.405   .     A
C145   C147    1.410   .     A
C146   O175    1.385   .     S
C146   C156    1.412   .     A
C146   C148    1.398   .     A
C147   C149    1.407   .     A
C147   Br177   1.927   .     S
C148   C150    1.425   .     A
C148   Br178   1.934   .     S
C149   C151    1.405   .     A
C150   C152    1.424   .     A
C151   Br179   1.925   .     S
C151   C153    1.408   .     A
C152   Br180   1.936   .     S
C152   C154    1.397   .     A
C153   C155    1.404   .     A
C153   O181    1.384   .     S
C154   O183    1.385   .     S
C154   C156    1.412   .     A
C155   C348    1.472   1_545 S
C156   C347    1.472   .     S
Cu157  O166    1.961   .     S
Cu157  Cu158   2.704   .     S
Cu157  O170    1.992   .     S
Cu157  O167    1.991   .     S
Cu157  O163    1.965   .     S
Cu157  N162    2.031   .     S
Cu158  O169    1.992   .     S
Cu158  O168    1.991   .     S
Cu158  N161    2.031   .     S
Cu158  O165    1.961   .     S
Cu158  O164    1.965   .     S
Br171  C15     1.943   1_655 S
O173   H174    0.986   .     S
O175   H368    0.989   .     S
H176   O367    0.989   1_545 S
O181   H182    0.987   .     S
O183   H376    0.989   .     S
H184   O375    0.989   1_545 S
O185   H186    0.976   .     S
O187   H188    0.973   .     S
C193   C213    1.457   .     S
C193   O229    1.299   .     A
C193   O227    1.300   .     A
C194   C214    1.492   .     S
C194   O230    1.309   .     A
C194   O228    1.309   .     A
C195   H223    1.074   .     S
C195   C203    1.401   .     A
C195   C197    1.398   .     A
C196   H224    1.074   .     S
C196   C198    1.398   .     A
C196   C204    1.400   .     A
C197   O249    1.375   .     S
C197   N225    1.381   .     A
C198   O251    1.373   .     S
C198   N226    1.381   .     A
C199   N225    1.379   .     A
C199   C201    1.421   .     A
C199   Br253   1.925   .     S
C200   N226    1.380   .     A
C200   C202    1.421   .     A
C200   Br254   1.924   .     S
C201   C203    1.424   .     A
C201   Br255   1.940   .     S
C202   C204    1.424   .     A
C202   Br256   1.940   .     S
C203   C588    1.541   1_554 S
C204   C587    1.541   .     S
C205   C207    1.446   .     S
C205   O231    1.293   .     A
C205   O233    1.303   .     A
C206   O232    1.291   .     A
C206   C208    1.447   .     S
C206   O234    1.305   .     A
C207   C336    1.363   1_455 S
C207   Br363   1.943   1_455 S
C208   C271    1.363   .     S
C208   Br300   1.942   .     S
C209   O237    1.385   .     S
C209   C219    1.405   .     A
C209   C211    1.410   .     A
C210   O239    1.385   .     S
C210   C220    1.412   .     A
C210   C212    1.398   .     A
C211   C213    1.407   .     A
C211   Br241   1.927   .     S
C212   C214    1.425   .     A
C212   Br242   1.934   .     S
C213   C215    1.405   .     A
C214   C216    1.424   .     A
C215   Br243   1.925   .     S
C215   C217    1.408   .     A
C216   Br244   1.936   .     S
C216   C218    1.397   .     A
C217   C219    1.404   .     A
C217   O245    1.384   .     S
C218   O247    1.385   .     S
C218   C220    1.412   .     A
C220   C27     1.472   1_565 S
Cu221  O230    1.961   .     S
Cu221  Cu222   2.704   .     S
Cu221  O234    1.992   .     S
Cu221  O231    1.991   .     S
Cu221  O227    1.965   .     S
Cu221  N226    2.031   .     S
Cu222  O233    1.992   .     S
Cu222  O232    1.991   .     S
Cu222  N225    2.031   .     S
Cu222  O229    1.961   .     S
Cu222  O228    1.965   .     S
Br235  C271    1.943   .     S
Br236  C336    1.942   1_455 S
O237   H238    0.986   .     S
O239   H48     0.989   1_565 S
O245   H246    0.987   .     S
O247   H56     0.989   1_565 S
O249   H250    0.976   .     S
O251   H252    0.973   .     S
C257   C277    1.457   .     S
C257   O293    1.299   .     A
C257   O291    1.300   .     A
C258   C278    1.492   .     S
C258   O294    1.309   .     A
C258   O292    1.309   .     A
C259   H287    1.074   .     S
C259   C267    1.401   .     A
C259   C261    1.398   .     A
C260   H288    1.074   .     S
C260   C262    1.398   .     A
C260   C268    1.400   .     A
C261   O313    1.375   .     S
C261   N289    1.381   .     A
C262   O315    1.373   .     S
C262   N290    1.381   .     A
C263   N289    1.379   .     A
C263   C265    1.421   .     A
C263   Br317   1.925   .     S
C264   N290    1.380   .     A
C264   C266    1.421   .     A
C264   Br318   1.924   .     S
C265   C267    1.424   .     A
C265   Br319   1.940   .     S
C266   C268    1.424   .     A
C266   Br320   1.940   .     S
C267   C652    1.541   1_554 S
C268   C651    1.541   .     S
C269   C271    1.446   .     S
C269   O295    1.293   .     A
C269   O297    1.303   .     A
C270   O296    1.291   .     A
C270   C272    1.447   .     S
C270   O298    1.305   .     A
C272   C335    1.363   .     S
C272   Br364   1.942   .     S
C273   O301    1.385   .     S
C273   C283    1.405   .     A
C273   C275    1.410   .     A
C274   O303    1.385   .     S
C274   C284    1.412   .     A
C274   C276    1.398   .     A
C275   C277    1.407   .     A
C275   Br305   1.927   .     S
C276   C278    1.425   .     A
C276   Br306   1.934   .     S
C277   C279    1.405   .     A
C278   C280    1.424   .     A
C279   Br307   1.925   .     S
C279   C281    1.408   .     A
C280   Br308   1.936   .     S
C280   C282    1.397   .     A
C281   C283    1.404   .     A
C281   O309    1.384   .     S
C282   O311    1.385   .     S
C282   C284    1.412   .     A
C284   C91     1.472   1_565 S
Cu285  O294    1.961   .     S
Cu285  Cu286   2.704   .     S
Cu285  O298    1.992   .     S
Cu285  O295    1.991   .     S
Cu285  O291    1.965   .     S
Cu285  N290    2.031   .     S
Cu286  O297    1.992   .     S
Cu286  O296    1.991   .     S
Cu286  N289    2.031   .     S
Cu286  O293    1.961   .     S
Cu286  O292    1.965   .     S
Br299  C335    1.943   .     S
O301   H302    0.986   .     S
O303   H112    0.989   1_565 S
O309   H310    0.987   .     S
O311   H120    0.989   1_565 S
O313   H314    0.976   .     S
O315   H316    0.973   .     S
C321   C341    1.457   .     S
C321   O357    1.299   .     A
C321   O355    1.300   .     A
C322   C342    1.492   .     S
C322   O358    1.309   .     A
C322   O356    1.309   .     A
C323   H351    1.074   .     S
C323   C331    1.401   .     A
C323   C325    1.398   .     A
C324   H352    1.074   .     S
C324   C326    1.398   .     A
C324   C332    1.400   .     A
C325   O377    1.375   .     S
C325   N353    1.381   .     A
C326   O379    1.373   .     S
C326   N354    1.381   .     A
C327   N353    1.379   .     A
C327   C329    1.421   .     A
C327   Br381   1.925   .     S
C328   N354    1.380   .     A
C328   C330    1.421   .     A
C328   Br382   1.924   .     S
C329   C331    1.424   .     A
C329   Br383   1.940   .     S
C330   C332    1.424   .     A
C330   Br384   1.940   .     S
C331   C716    1.541   1_554 S
C332   C715    1.541   .     S
C333   C335    1.446   .     S
C333   O359    1.293   .     A
C333   O361    1.303   .     A
C334   O360    1.291   .     A
C334   C336    1.447   .     S
C334   O362    1.305   .     A
C336   C207    1.363   1_655 S
C336   Br236   1.942   1_655 S
C337   O365    1.385   .     S
C337   C347    1.405   .     A
C337   C339    1.410   .     A
C338   O367    1.385   .     S
C338   C348    1.412   .     A
C338   C340    1.398   .     A
C339   C341    1.407   .     A
C339   Br369   1.927   .     S
C340   C342    1.425   .     A
C340   Br370   1.934   .     S
C341   C343    1.405   .     A
C342   C344    1.424   .     A
C343   Br371   1.925   .     S
C343   C345    1.408   .     A
C344   Br372   1.936   .     S
C344   C346    1.397   .     A
C345   C347    1.404   .     A
C345   O373    1.384   .     S
C346   O375    1.385   .     S
C346   C348    1.412   .     A
C348   C155    1.472   1_565 S
Cu349  O358    1.961   .     S
Cu349  Cu350   2.704   .     S
Cu349  O362    1.992   .     S
Cu349  O359    1.991   .     S
Cu349  O355    1.965   .     S
Cu349  N354    2.031   .     S
Cu350  O361    1.992   .     S
Cu350  O360    1.991   .     S
Cu350  N353    2.031   .     S
Cu350  O357    1.961   .     S
Cu350  O356    1.965   .     S
Br363  C207    1.943   1_655 S
O365   H366    0.986   .     S
O367   H176    0.989   1_565 S
O373   H374    0.987   .     S
O375   H184    0.989   1_565 S
O377   H378    0.976   .     S
O379   H380    0.973   .     S
C385   C405    1.457   .     S
C385   O421    1.299   .     A
C385   O419    1.300   .     A
C386   C406    1.492   .     S
C386   O422    1.309   .     A
C386   O420    1.309   .     A
C387   H415    1.074   .     S
C387   C395    1.401   .     A
C387   C389    1.398   .     A
C388   H416    1.074   .     S
C388   C390    1.398   .     A
C388   C396    1.400   .     A
C389   O441    1.375   .     S
C389   N417    1.381   .     A
C390   O443    1.373   .     S
C390   N418    1.381   .     A
C391   N417    1.379   .     A
C391   C393    1.421   .     A
C391   Br445   1.925   .     S
C392   N418    1.380   .     A
C392   C394    1.421   .     A
C392   Br446   1.924   .     S
C393   C395    1.424   .     A
C393   Br447   1.940   .     S
C394   C396    1.424   .     A
C394   Br448   1.940   .     S
C396   C11     1.541   1_556 S
C397   C399    1.446   .     S
C397   O423    1.293   .     A
C397   O425    1.303   .     A
C398   O424    1.291   .     A
C398   C400    1.447   .     S
C398   O426    1.305   .     A
C399   C528    1.363   1_455 S
C399   Br555   1.943   1_455 S
C400   C463    1.363   .     S
C400   Br492   1.942   .     S
C401   O429    1.385   .     S
C401   C411    1.405   .     A
C401   C403    1.410   .     A
C402   O431    1.385   .     S
C402   C412    1.412   .     A
C402   C404    1.398   .     A
C403   C405    1.407   .     A
C403   Br433   1.927   .     S
C404   C406    1.425   .     A
C404   Br434   1.934   .     S
C405   C407    1.405   .     A
C406   C408    1.424   .     A
C407   Br435   1.925   .     S
C407   C409    1.408   .     A
C408   Br436   1.936   .     S
C408   C410    1.397   .     A
C409   C411    1.404   .     A
C409   O437    1.384   .     S
C410   O439    1.385   .     S
C410   C412    1.412   .     A
C411   C604    1.472   1_545 S
C412   C603    1.472   .     S
Cu413  O422    1.961   .     S
Cu413  Cu414   2.704   .     S
Cu413  O426    1.992   .     S
Cu413  O423    1.991   .     S
Cu413  O419    1.965   .     S
Cu413  N418    2.031   .     S
Cu414  O425    1.992   .     S
Cu414  O424    1.991   .     S
Cu414  N417    2.031   .     S
Cu414  O421    1.961   .     S
Cu414  O420    1.965   .     S
Br427  C463    1.943   .     S
Br428  C528    1.942   1_455 S
O429   H430    0.986   .     S
O431   H624    0.989   .     S
H432   O623    0.989   1_545 S
O437   H438    0.987   .     S
O439   H632    0.989   .     S
H440   O631    0.989   1_545 S
O441   H442    0.976   .     S
O443   H444    0.973   .     S
C449   C469    1.457   .     S
C449   O485    1.299   .     A
C449   O483    1.300   .     A
C450   C470    1.492   .     S
C450   O486    1.309   .     A
C450   O484    1.309   .     A
C451   H479    1.074   .     S
C451   C459    1.401   .     A
C451   C453    1.398   .     A
C452   H480    1.074   .     S
C452   C454    1.398   .     A
C452   C460    1.400   .     A
C453   O505    1.375   .     S
C453   N481    1.381   .     A
C454   O507    1.373   .     S
C454   N482    1.381   .     A
C455   N481    1.379   .     A
C455   C457    1.421   .     A
C455   Br509   1.925   .     S
C456   N482    1.380   .     A
C456   C458    1.421   .     A
C456   Br510   1.924   .     S
C457   C459    1.424   .     A
C457   Br511   1.940   .     S
C458   C460    1.424   .     A
C458   Br512   1.940   .     S
C460   C75     1.541   1_556 S
C461   C463    1.446   .     S
C461   O487    1.293   .     A
C461   O489    1.303   .     A
C462   O488    1.291   .     A
C462   C464    1.447   .     S
C462   O490    1.305   .     A
C464   C527    1.363   .     S
C464   Br556   1.942   .     S
C465   O493    1.385   .     S
C465   C475    1.405   .     A
C465   C467    1.410   .     A
C466   O495    1.385   .     S
C466   C476    1.412   .     A
C466   C468    1.398   .     A
C467   C469    1.407   .     A
C467   Br497   1.927   .     S
C468   C470    1.425   .     A
C468   Br498   1.934   .     S
C469   C471    1.405   .     A
C470   C472    1.424   .     A
C471   Br499   1.925   .     S
C471   C473    1.408   .     A
C472   Br500   1.936   .     S
C472   C474    1.397   .     A
C473   C475    1.404   .     A
C473   O501    1.384   .     S
C474   O503    1.385   .     S
C474   C476    1.412   .     A
C475   C668    1.472   1_545 S
C476   C667    1.472   .     S
Cu477  O486    1.961   .     S
Cu477  Cu478   2.704   .     S
Cu477  O490    1.992   .     S
Cu477  O487    1.991   .     S
Cu477  O483    1.965   .     S
Cu477  N482    2.031   .     S
Cu478  O489    1.992   .     S
Cu478  O488    1.991   .     S
Cu478  N481    2.031   .     S
Cu478  O485    1.961   .     S
Cu478  O484    1.965   .     S
Br491  C527    1.943   .     S
O493   H494    0.986   .     S
O495   H688    0.989   .     S
H496   O687    0.989   1_545 S
O501   H502    0.987   .     S
O503   H696    0.989   .     S
H504   O695    0.989   1_545 S
O505   H506    0.976   .     S
O507   H508    0.973   .     S
C513   C533    1.457   .     S
C513   O549    1.299   .     A
C513   O547    1.300   .     A
C514   C534    1.492   .     S
C514   O550    1.309   .     A
C514   O548    1.309   .     A
C515   H543    1.074   .     S
C515   C523    1.401   .     A
C515   C517    1.398   .     A
C516   H544    1.074   .     S
C516   C518    1.398   .     A
C516   C524    1.400   .     A
C517   O569    1.375   .     S
C517   N545    1.381   .     A
C518   O571    1.373   .     S
C518   N546    1.381   .     A
C519   N545    1.379   .     A
C519   C521    1.421   .     A
C519   Br573   1.925   .     S
C520   N546    1.380   .     A
C520   C522    1.421   .     A
C520   Br574   1.924   .     S
C521   C523    1.424   .     A
C521   Br575   1.940   .     S
C522   C524    1.424   .     A
C522   Br576   1.940   .     S
C524   C139    1.541   1_556 S
C525   C527    1.446   .     S
C525   O551    1.293   .     A
C525   O553    1.303   .     A
C526   O552    1.291   .     A
C526   C528    1.447   .     S
C526   O554    1.305   .     A
C528   C399    1.363   1_655 S
C528   Br428   1.942   1_655 S
C529   O557    1.385   .     S
C529   C539    1.405   .     A
C529   C531    1.410   .     A
C530   O559    1.385   .     S
C530   C540    1.412   .     A
C530   C532    1.398   .     A
C531   C533    1.407   .     A
C531   Br561   1.927   .     S
C532   C534    1.425   .     A
C532   Br562   1.934   .     S
C533   C535    1.405   .     A
C534   C536    1.424   .     A
C535   Br563   1.925   .     S
C535   C537    1.408   .     A
C536   Br564   1.936   .     S
C536   C538    1.397   .     A
C537   C539    1.404   .     A
C537   O565    1.384   .     S
C538   O567    1.385   .     S
C538   C540    1.412   .     A
C539   C732    1.472   1_545 S
C540   C731    1.472   .     S
Cu541  O550    1.961   .     S
Cu541  Cu542   2.704   .     S
Cu541  O554    1.992   .     S
Cu541  O551    1.991   .     S
Cu541  O547    1.965   .     S
Cu541  N546    2.031   .     S
Cu542  O553    1.992   .     S
Cu542  O552    1.991   .     S
Cu542  N545    2.031   .     S
Cu542  O549    1.961   .     S
Cu542  O548    1.965   .     S
Br555  C399    1.943   1_655 S
O557   H558    0.986   .     S
O559   H752    0.989   .     S
H560   O751    0.989   1_545 S
O565   H566    0.987   .     S
O567   H760    0.989   .     S
H568   O759    0.989   1_545 S
O569   H570    0.976   .     S
O571   H572    0.973   .     S
C577   C597    1.457   .     S
C577   O613    1.299   .     A
C577   O611    1.300   .     A
C578   C598    1.492   .     S
C578   O614    1.309   .     A
C578   O612    1.309   .     A
C579   H607    1.074   .     S
C579   C587    1.401   .     A
C579   C581    1.398   .     A
C580   H608    1.074   .     S
C580   C582    1.398   .     A
C580   C588    1.400   .     A
C581   O633    1.375   .     S
C581   N609    1.381   .     A
C582   O635    1.373   .     S
C582   N610    1.381   .     A
C583   N609    1.379   .     A
C583   C585    1.421   .     A
C583   Br637   1.925   .     S
C584   N610    1.380   .     A
C584   C586    1.421   .     A
C584   Br638   1.924   .     S
C585   C587    1.424   .     A
C585   Br639   1.940   .     S
C586   C588    1.424   .     A
C586   Br640   1.940   .     S
C588   C203    1.541   1_556 S
C589   C591    1.446   .     S
C589   O615    1.293   .     A
C589   O617    1.303   .     A
C590   O616    1.291   .     A
C590   C592    1.447   .     S
C590   O618    1.305   .     A
C591   C720    1.363   1_455 S
C591   Br747   1.943   1_455 S
C592   C655    1.363   .     S
C592   Br684   1.942   .     S
C593   O621    1.385   .     S
C593   C603    1.405   .     A
C593   C595    1.410   .     A
C594   O623    1.385   .     S
C594   C604    1.412   .     A
C594   C596    1.398   .     A
C595   C597    1.407   .     A
C595   Br625   1.927   .     S
C596   C598    1.425   .     A
C596   Br626   1.934   .     S
C597   C599    1.405   .     A
C598   C600    1.424   .     A
C599   Br627   1.925   .     S
C599   C601    1.408   .     A
C600   Br628   1.936   .     S
C600   C602    1.397   .     A
C601   C603    1.404   .     A
C601   O629    1.384   .     S
C602   O631    1.385   .     S
C602   C604    1.412   .     A
C604   C411    1.472   1_565 S
Cu605  O614    1.961   .     S
Cu605  Cu606   2.704   .     S
Cu605  O618    1.992   .     S
Cu605  O615    1.991   .     S
Cu605  O611    1.965   .     S
Cu605  N610    2.031   .     S
Cu606  O617    1.992   .     S
Cu606  O616    1.991   .     S
Cu606  N609    2.031   .     S
Cu606  O613    1.961   .     S
Cu606  O612    1.965   .     S
Br619  C655    1.943   .     S
Br620  C720    1.942   1_455 S
O621   H622    0.986   .     S
O623   H432    0.989   1_565 S
O629   H630    0.987   .     S
O631   H440    0.989   1_565 S
O633   H634    0.976   .     S
O635   H636    0.973   .     S
C641   C661    1.457   .     S
C641   O677    1.299   .     A
C641   O675    1.300   .     A
C642   C662    1.492   .     S
C642   O678    1.309   .     A
C642   O676    1.309   .     A
C643   H671    1.074   .     S
C643   C651    1.401   .     A
C643   C645    1.398   .     A
C644   H672    1.074   .     S
C644   C646    1.398   .     A
C644   C652    1.400   .     A
C645   O697    1.375   .     S
C645   N673    1.381   .     A
C646   O699    1.373   .     S
C646   N674    1.381   .     A
C647   N673    1.379   .     A
C647   C649    1.421   .     A
C647   Br701   1.925   .     S
C648   N674    1.380   .     A
C648   C650    1.421   .     A
C648   Br702   1.924   .     S
C649   C651    1.424   .     A
C649   Br703   1.940   .     S
C650   C652    1.424   .     A
C650   Br704   1.940   .     S
C652   C267    1.541   1_556 S
C653   C655    1.446   .     S
C653   O679    1.293   .     A
C653   O681    1.303   .     A
C654   O680    1.291   .     A
C654   C656    1.447   .     S
C654   O682    1.305   .     A
C656   C719    1.363   .     S
C656   Br748   1.942   .     S
C657   O685    1.385   .     S
C657   C667    1.405   .     A
C657   C659    1.410   .     A
C658   O687    1.385   .     S
C658   C668    1.412   .     A
C658   C660    1.398   .     A
C659   C661    1.407   .     A
C659   Br689   1.927   .     S
C660   C662    1.425   .     A
C660   Br690   1.934   .     S
C661   C663    1.405   .     A
C662   C664    1.424   .     A
C663   Br691   1.925   .     S
C663   C665    1.408   .     A
C664   Br692   1.936   .     S
C664   C666    1.397   .     A
C665   C667    1.404   .     A
C665   O693    1.384   .     S
C666   O695    1.385   .     S
C666   C668    1.412   .     A
C668   C475    1.472   1_565 S
Cu669  O678    1.961   .     S
Cu669  Cu670   2.704   .     S
Cu669  O682    1.992   .     S
Cu669  O679    1.991   .     S
Cu669  O675    1.965   .     S
Cu669  N674    2.031   .     S
Cu670  O681    1.992   .     S
Cu670  O680    1.991   .     S
Cu670  N673    2.031   .     S
Cu670  O677    1.961   .     S
Cu670  O676    1.965   .     S
Br683  C719    1.943   .     S
O685   H686    0.986   .     S
O687   H496    0.989   1_565 S
O693   H694    0.987   .     S
O695   H504    0.989   1_565 S
O697   H698    0.976   .     S
O699   H700    0.973   .     S
C705   C725    1.457   .     S
C705   O741    1.299   .     A
C705   O739    1.300   .     A
C706   C726    1.492   .     S
C706   O742    1.309   .     A
C706   O740    1.309   .     A
C707   H735    1.074   .     S
C707   C715    1.401   .     A
C707   C709    1.398   .     A
C708   H736    1.074   .     S
C708   C710    1.398   .     A
C708   C716    1.400   .     A
C709   O761    1.375   .     S
C709   N737    1.381   .     A
C710   O763    1.373   .     S
C710   N738    1.381   .     A
C711   N737    1.379   .     A
C711   C713    1.421   .     A
C711   Br765   1.925   .     S
C712   N738    1.380   .     A
C712   C714    1.421   .     A
C712   Br766   1.924   .     S
C713   C715    1.424   .     A
C713   Br767   1.940   .     S
C714   C716    1.424   .     A
C714   Br768   1.940   .     S
C716   C331    1.541   1_556 S
C717   C719    1.446   .     S
C717   O743    1.293   .     A
C717   O745    1.303   .     A
C718   O744    1.291   .     A
C718   C720    1.447   .     S
C718   O746    1.305   .     A
C720   C591    1.363   1_655 S
C720   Br620   1.942   1_655 S
C721   O749    1.385   .     S
C721   C731    1.405   .     A
C721   C723    1.410   .     A
C722   O751    1.385   .     S
C722   C732    1.412   .     A
C722   C724    1.398   .     A
C723   C725    1.407   .     A
C723   Br753   1.927   .     S
C724   C726    1.425   .     A
C724   Br754   1.934   .     S
C725   C727    1.405   .     A
C726   C728    1.424   .     A
C727   Br755   1.925   .     S
C727   C729    1.408   .     A
C728   Br756   1.936   .     S
C728   C730    1.397   .     A
C729   C731    1.404   .     A
C729   O757    1.384   .     S
C730   O759    1.385   .     S
C730   C732    1.412   .     A
C732   C539    1.472   1_565 S
Cu733  O742    1.961   .     S
Cu733  Cu734   2.704   .     S
Cu733  O746    1.992   .     S
Cu733  O743    1.991   .     S
Cu733  O739    1.965   .     S
Cu733  N738    2.031   .     S
Cu734  O745    1.992   .     S
Cu734  O744    1.991   .     S
Cu734  N737    2.031   .     S
Cu734  O741    1.961   .     S
Cu734  O740    1.965   .     S
Br747  C591    1.943   1_655 S
O749   H750    0.986   .     S
O751   H560    0.989   1_565 S
O757   H758    0.987   .     S
O759   H568    0.989   1_565 S
O761   H762    0.976   .     S
O763   H764    0.973   .     S
