data_str_m1_o10_o16_pcu_sym.82
_audit_creation_date              2020-01-03
_audit_creation_method            'Materials Studio'
_symmetry_space_group_name_H-M    'P1'
_symmetry_Int_Tables_number       1
_symmetry_cell_setting            triclinic
loop_
_symmetry_equiv_pos_as_xyz
  x,y,z
_cell_length_a                    32.5976
_cell_length_b                    32.5637
_cell_length_c                    31.0743
_cell_angle_alpha                 96.1978
_cell_angle_beta                  74.3890
_cell_angle_gamma                 98.2850
loop_
_atom_site_label
_atom_site_type_symbol
_atom_site_fract_x
_atom_site_fract_y
_atom_site_fract_z
_atom_site_U_iso_or_equiv
_atom_site_adp_type
_atom_site_occupancy
C1     C     0.05293   0.15996   0.25989   0.00000  Uiso   1.00
C2     C     0.16592   0.15448   0.06008   0.00000  Uiso   1.00
C3     C     0.23515   0.13316   0.05608   0.00000  Uiso   1.00
C4     C     0.28080   0.17373   0.23996   0.00000  Uiso   1.00
C5     C     0.13764   0.18898   0.42019   0.00000  Uiso   1.00
C6     C     0.32667   0.17562   0.23542   0.00000  Uiso   1.00
C7     C     0.00771   0.15777   0.26460   0.00000  Uiso   1.00
C8     C     0.18015   0.32249   0.23675   0.00000  Uiso   1.00
C9     C     0.15182   0.01217   0.26440   0.00000  Uiso   1.00
C10    C     0.15649   0.05601   0.25999   0.00000  Uiso   1.00
C11    C     0.17654   0.27794   0.24022   0.00000  Uiso   1.00
C12    C     0.07840   0.18573   0.48654   0.00000  Uiso   1.00
C13    C     0.18563   0.14833   0.12942   0.00000  Uiso   1.00
C14    C     0.14907   0.18517   0.37084   0.00000  Uiso   1.00
C15    C     0.24780   0.13810   0.01043   0.00000  Uiso   1.00
C16    C     0.19462   0.14249   0.08102   0.00000  Uiso   1.00
C17    C     0.09523   0.19485   0.44229   0.00000  Uiso   1.00
C18    C     0.06937   0.11195   0.04419   0.00000  Uiso   1.00
C19    C     0.04809   0.09472   0.08953   0.00000  Uiso   1.00
C20    C     0.10333   0.17004   0.00966   0.00000  Uiso   1.00
C21    C     0.14840   0.16924   0.49024   0.00000  Uiso   1.00
C22    C     0.16551   0.17951   0.44477   0.00000  Uiso   1.00
C23    C     0.17701   0.15766   0.01339   0.00000  Uiso   1.00
C24    C     0.21987   0.15198   0.48939   0.00000  Uiso   1.00
C25    C     0.23584   0.16359   0.44574   0.00000  Uiso   1.00
C26    C     0.21002   0.17984   0.42482   0.00000  Uiso   1.00
F27    F     0.26354   0.12234   0.07655   0.00000  Uiso   1.00
F28    F     0.31433   0.13877   0.30044   0.00000  Uiso   1.00
F29    F     0.11825   0.32913   0.29686   0.00000  Uiso   1.00
F30    F     0.03621   0.18854   0.00605   0.00000  Uiso   1.00
F31    F     0.22963   0.19796   0.38597   0.00000  Uiso   1.00
F32    F     0.02141   0.19558   0.20100   0.00000  Uiso   1.00
H33    H     0.20643   0.00357   0.21118   0.00000  Uiso   1.00
H34    H     0.07111   0.09945   0.11078   0.00000  Uiso   1.00
H35    H     0.26942   0.16253   0.42858   0.00000  Uiso   1.00
H36    H     0.28023   0.13315   0.49196   0.00000  Uiso   1.00
H37    H     0.13738   0.16549   0.08184   0.00000  Uiso   1.00
H38    H     0.07379   0.20311   0.42423   0.00000  Uiso   1.00
H39    H     0.09741   0.09481   0.02772   0.00000  Uiso   1.00
H40    H     0.04574   0.10634   0.02348   0.00000  Uiso   1.00
H41    H     0.01961   0.11082   0.10666   0.00000  Uiso   1.00
H42    H     0.03765   0.06090   0.08494   0.00000  Uiso   1.00
O43    O     0.16667   0.16667   0.25000   0.00000  Uiso   1.00
O44    O     0.15451   0.12637   0.15458   0.00000  Uiso   1.00
O45    O     0.12940   0.20391   0.34968   0.00000  Uiso   1.00
O46    O     0.20824   0.17759   0.14606   0.00000  Uiso   1.00
O47    O     0.17451   0.15880   0.34968   0.00000  Uiso   1.00
O48    O     0.08227   0.15495   0.05069   0.00000  Uiso   1.00
O49    O     0.17930   0.08019   0.28213   0.00000  Uiso   1.00
O50    O     0.14632   0.26085   0.27013   0.00000  Uiso   1.00
O51    O     0.07412   0.13291   0.23413   0.00000  Uiso   1.00
O52    O     0.26693   0.19272   0.21360   0.00000  Uiso   1.00
O53    O     0.07071   0.18878   0.28213   0.00000  Uiso   1.00
O54    O     0.25491   0.15226   0.27013   0.00000  Uiso   1.00
O55    O     0.13760   0.06944   0.23413   0.00000  Uiso   1.00
O56    O     0.20345   0.25620   0.21360   0.00000  Uiso   1.00
Zn57   Zn    0.19338   0.13994   0.28734   0.00000  Uiso   1.00
Zn58   Zn    0.13379   0.12458   0.21875   0.00000  Uiso   1.00
Zn59   Zn    0.21056   0.19775   0.20657   0.00000  Uiso   1.00
Zn60   Zn    0.12893   0.20439   0.28733   0.00000  Uiso   1.00
C61    C     0.38626   0.15996   0.25989   0.00000  Uiso   1.00
C62    C     0.49926   0.15448   0.06008   0.00000  Uiso   1.00
C63    C     0.56848   0.13316   0.05608   0.00000  Uiso   1.00
C64    C     0.61414   0.17373   0.23996   0.00000  Uiso   1.00
C65    C     0.47097   0.18898   0.42019   0.00000  Uiso   1.00
C66    C     0.66000   0.17562   0.23542   0.00000  Uiso   1.00
C67    C     0.34104   0.15777   0.26460   0.00000  Uiso   1.00
C68    C     0.51349   0.32249   0.23675   0.00000  Uiso   1.00
C69    C     0.48515   0.01217   0.26440   0.00000  Uiso   1.00
C70    C     0.48982   0.05601   0.25999   0.00000  Uiso   1.00
C71    C     0.50987   0.27794   0.24022   0.00000  Uiso   1.00
C72    C     0.41173   0.18573   0.48654   0.00000  Uiso   1.00
C73    C     0.51896   0.14833   0.12942   0.00000  Uiso   1.00
C74    C     0.48241   0.18517   0.37084   0.00000  Uiso   1.00
C75    C     0.58113   0.13810   0.01043   0.00000  Uiso   1.00
C76    C     0.52796   0.14249   0.08102   0.00000  Uiso   1.00
C77    C     0.42857   0.19485   0.44229   0.00000  Uiso   1.00
C78    C     0.40270   0.11195   0.04419   0.00000  Uiso   1.00
C79    C     0.38142   0.09472   0.08953   0.00000  Uiso   1.00
C80    C     0.43666   0.17004   0.00966   0.00000  Uiso   1.00
C81    C     0.48173   0.16924   0.49024   0.00000  Uiso   1.00
C82    C     0.49884   0.17951   0.44477   0.00000  Uiso   1.00
C83    C     0.51034   0.15766   0.01339   0.00000  Uiso   1.00
C84    C     0.55320   0.15198   0.48939   0.00000  Uiso   1.00
C85    C     0.56918   0.16359   0.44574   0.00000  Uiso   1.00
C86    C     0.54335   0.17984   0.42482   0.00000  Uiso   1.00
F87    F     0.59688   0.12234   0.07655   0.00000  Uiso   1.00
F88    F     0.64766   0.13877   0.30044   0.00000  Uiso   1.00
F89    F     0.45158   0.32913   0.29686   0.00000  Uiso   1.00
F90    F     0.36954   0.18854   0.00605   0.00000  Uiso   1.00
F91    F     0.56297   0.19796   0.38597   0.00000  Uiso   1.00
F92    F     0.35475   0.19558   0.20100   0.00000  Uiso   1.00
H93    H     0.53977   0.00357   0.21118   0.00000  Uiso   1.00
H94    H     0.40445   0.09945   0.11078   0.00000  Uiso   1.00
H95    H     0.60275   0.16253   0.42858   0.00000  Uiso   1.00
H96    H     0.61357   0.13315   0.49196   0.00000  Uiso   1.00
H97    H     0.47071   0.16549   0.08184   0.00000  Uiso   1.00
H98    H     0.40712   0.20311   0.42423   0.00000  Uiso   1.00
H99    H     0.43075   0.09481   0.02772   0.00000  Uiso   1.00
H100   H     0.37907   0.10634   0.02348   0.00000  Uiso   1.00
H101   H     0.35294   0.11082   0.10666   0.00000  Uiso   1.00
H102   H     0.37099   0.06090   0.08494   0.00000  Uiso   1.00
O103   O     0.50000   0.16667   0.25000   0.00000  Uiso   1.00
O104   O     0.48784   0.12637   0.15458   0.00000  Uiso   1.00
O105   O     0.46274   0.20391   0.34968   0.00000  Uiso   1.00
O106   O     0.54157   0.17759   0.14606   0.00000  Uiso   1.00
O107   O     0.50785   0.15880   0.34968   0.00000  Uiso   1.00
O108   O     0.41561   0.15495   0.05069   0.00000  Uiso   1.00
O109   O     0.51264   0.08019   0.28213   0.00000  Uiso   1.00
O110   O     0.47965   0.26085   0.27013   0.00000  Uiso   1.00
O111   O     0.40745   0.13291   0.23413   0.00000  Uiso   1.00
O112   O     0.60026   0.19272   0.21360   0.00000  Uiso   1.00
O113   O     0.40405   0.18878   0.28213   0.00000  Uiso   1.00
O114   O     0.58824   0.15226   0.27013   0.00000  Uiso   1.00
O115   O     0.47093   0.06944   0.23413   0.00000  Uiso   1.00
O116   O     0.53678   0.25620   0.21360   0.00000  Uiso   1.00
Zn117  Zn    0.52672   0.13994   0.28734   0.00000  Uiso   1.00
Zn118  Zn    0.46713   0.12458   0.21875   0.00000  Uiso   1.00
Zn119  Zn    0.54389   0.19775   0.20657   0.00000  Uiso   1.00
Zn120  Zn    0.46226   0.20439   0.28733   0.00000  Uiso   1.00
C121   C     0.71960   0.15996   0.25989   0.00000  Uiso   1.00
C122   C     0.83259   0.15448   0.06008   0.00000  Uiso   1.00
C123   C     0.90182   0.13316   0.05608   0.00000  Uiso   1.00
C124   C     0.94747   0.17373   0.23996   0.00000  Uiso   1.00
C125   C     0.80430   0.18898   0.42019   0.00000  Uiso   1.00
C126   C     0.99334   0.17562   0.23542   0.00000  Uiso   1.00
C127   C     0.67438   0.15777   0.26460   0.00000  Uiso   1.00
C128   C     0.84682   0.32249   0.23675   0.00000  Uiso   1.00
C129   C     0.81848   0.01217   0.26440   0.00000  Uiso   1.00
C130   C     0.82316   0.05601   0.25999   0.00000  Uiso   1.00
C131   C     0.84321   0.27794   0.24022   0.00000  Uiso   1.00
C132   C     0.74507   0.18573   0.48654   0.00000  Uiso   1.00
C133   C     0.85229   0.14833   0.12942   0.00000  Uiso   1.00
C134   C     0.81574   0.18517   0.37084   0.00000  Uiso   1.00
C135   C     0.91447   0.13810   0.01043   0.00000  Uiso   1.00
C136   C     0.86129   0.14249   0.08102   0.00000  Uiso   1.00
C137   C     0.76190   0.19485   0.44229   0.00000  Uiso   1.00
C138   C     0.73603   0.11195   0.04419   0.00000  Uiso   1.00
C139   C     0.71475   0.09472   0.08953   0.00000  Uiso   1.00
C140   C     0.76999   0.17004   0.00966   0.00000  Uiso   1.00
C141   C     0.81507   0.16924   0.49024   0.00000  Uiso   1.00
C142   C     0.83218   0.17951   0.44477   0.00000  Uiso   1.00
C143   C     0.84367   0.15766   0.01339   0.00000  Uiso   1.00
C144   C     0.88653   0.15198   0.48939   0.00000  Uiso   1.00
C145   C     0.90251   0.16359   0.44574   0.00000  Uiso   1.00
C146   C     0.87668   0.17984   0.42482   0.00000  Uiso   1.00
F147   F     0.93021   0.12234   0.07655   0.00000  Uiso   1.00
F148   F     0.98100   0.13877   0.30044   0.00000  Uiso   1.00
F149   F     0.78492   0.32913   0.29686   0.00000  Uiso   1.00
F150   F     0.70288   0.18854   0.00605   0.00000  Uiso   1.00
F151   F     0.89630   0.19796   0.38597   0.00000  Uiso   1.00
F152   F     0.68808   0.19558   0.20100   0.00000  Uiso   1.00
H153   H     0.87310   0.00357   0.21118   0.00000  Uiso   1.00
H154   H     0.73778   0.09945   0.11078   0.00000  Uiso   1.00
H155   H     0.93609   0.16253   0.42858   0.00000  Uiso   1.00
H156   H     0.94690   0.13315   0.49196   0.00000  Uiso   1.00
H157   H     0.80405   0.16549   0.08184   0.00000  Uiso   1.00
H158   H     0.74045   0.20311   0.42423   0.00000  Uiso   1.00
H159   H     0.76408   0.09481   0.02772   0.00000  Uiso   1.00
H160   H     0.71241   0.10634   0.02348   0.00000  Uiso   1.00
H161   H     0.68627   0.11082   0.10666   0.00000  Uiso   1.00
H162   H     0.70432   0.06090   0.08494   0.00000  Uiso   1.00
O163   O     0.83333   0.16667   0.25000   0.00000  Uiso   1.00
O164   O     0.82118   0.12637   0.15458   0.00000  Uiso   1.00
O165   O     0.79607   0.20391   0.34968   0.00000  Uiso   1.00
O166   O     0.87491   0.17759   0.14606   0.00000  Uiso   1.00
O167   O     0.84118   0.15880   0.34968   0.00000  Uiso   1.00
O168   O     0.74894   0.15495   0.05069   0.00000  Uiso   1.00
O169   O     0.84597   0.08019   0.28213   0.00000  Uiso   1.00
O170   O     0.81298   0.26085   0.27013   0.00000  Uiso   1.00
O171   O     0.74078   0.13291   0.23413   0.00000  Uiso   1.00
O172   O     0.93360   0.19272   0.21360   0.00000  Uiso   1.00
O173   O     0.73738   0.18878   0.28213   0.00000  Uiso   1.00
O174   O     0.92158   0.15226   0.27013   0.00000  Uiso   1.00
O175   O     0.80426   0.06944   0.23413   0.00000  Uiso   1.00
O176   O     0.87012   0.25620   0.21360   0.00000  Uiso   1.00
Zn177  Zn    0.86005   0.13994   0.28734   0.00000  Uiso   1.00
Zn178  Zn    0.80046   0.12458   0.21875   0.00000  Uiso   1.00
Zn179  Zn    0.87723   0.19775   0.20657   0.00000  Uiso   1.00
Zn180  Zn    0.79560   0.20439   0.28733   0.00000  Uiso   1.00
C181   C     0.05293   0.49330   0.25989   0.00000  Uiso   1.00
C182   C     0.16592   0.48781   0.06008   0.00000  Uiso   1.00
C183   C     0.23515   0.46649   0.05608   0.00000  Uiso   1.00
C184   C     0.28080   0.50706   0.23996   0.00000  Uiso   1.00
C185   C     0.13764   0.52232   0.42019   0.00000  Uiso   1.00
C186   C     0.32667   0.50895   0.23542   0.00000  Uiso   1.00
C187   C     0.00771   0.49110   0.26460   0.00000  Uiso   1.00
C188   C     0.18015   0.65582   0.23675   0.00000  Uiso   1.00
C189   C     0.15182   0.34550   0.26440   0.00000  Uiso   1.00
C190   C     0.15649   0.38934   0.25999   0.00000  Uiso   1.00
C191   C     0.17654   0.61127   0.24022   0.00000  Uiso   1.00
C192   C     0.07840   0.51907   0.48654   0.00000  Uiso   1.00
C193   C     0.18563   0.48166   0.12942   0.00000  Uiso   1.00
C194   C     0.14907   0.51850   0.37084   0.00000  Uiso   1.00
C195   C     0.24780   0.47143   0.01043   0.00000  Uiso   1.00
C196   C     0.19462   0.47582   0.08102   0.00000  Uiso   1.00
C197   C     0.09523   0.52818   0.44229   0.00000  Uiso   1.00
C198   C     0.06937   0.44529   0.04419   0.00000  Uiso   1.00
C199   C     0.04809   0.42805   0.08953   0.00000  Uiso   1.00
C200   C     0.10333   0.50337   0.00966   0.00000  Uiso   1.00
C201   C     0.14840   0.50257   0.49024   0.00000  Uiso   1.00
C202   C     0.16551   0.51284   0.44477   0.00000  Uiso   1.00
C203   C     0.17701   0.49099   0.01339   0.00000  Uiso   1.00
C204   C     0.21987   0.48531   0.48939   0.00000  Uiso   1.00
C205   C     0.23584   0.49693   0.44574   0.00000  Uiso   1.00
C206   C     0.21002   0.51317   0.42482   0.00000  Uiso   1.00
F207   F     0.26354   0.45568   0.07655   0.00000  Uiso   1.00
F208   F     0.31433   0.47210   0.30044   0.00000  Uiso   1.00
F209   F     0.11825   0.66246   0.29686   0.00000  Uiso   1.00
F210   F     0.03621   0.52187   0.00605   0.00000  Uiso   1.00
F211   F     0.22963   0.53130   0.38597   0.00000  Uiso   1.00
F212   F     0.02141   0.52891   0.20100   0.00000  Uiso   1.00
H213   H     0.20643   0.33690   0.21118   0.00000  Uiso   1.00
H214   H     0.07111   0.43278   0.11078   0.00000  Uiso   1.00
H215   H     0.26942   0.49586   0.42858   0.00000  Uiso   1.00
H216   H     0.28023   0.46648   0.49196   0.00000  Uiso   1.00
H217   H     0.13738   0.49882   0.08184   0.00000  Uiso   1.00
H218   H     0.07379   0.53644   0.42423   0.00000  Uiso   1.00
H219   H     0.09741   0.42815   0.02772   0.00000  Uiso   1.00
H220   H     0.04574   0.43967   0.02348   0.00000  Uiso   1.00
H221   H     0.01961   0.44415   0.10666   0.00000  Uiso   1.00
H222   H     0.03765   0.39424   0.08494   0.00000  Uiso   1.00
O223   O     0.16667   0.50000   0.25000   0.00000  Uiso   1.00
O224   O     0.15451   0.45970   0.15458   0.00000  Uiso   1.00
O225   O     0.12940   0.53724   0.34968   0.00000  Uiso   1.00
O226   O     0.20824   0.51092   0.14606   0.00000  Uiso   1.00
O227   O     0.17451   0.49213   0.34968   0.00000  Uiso   1.00
O228   O     0.08227   0.48828   0.05069   0.00000  Uiso   1.00
O229   O     0.17930   0.41352   0.28213   0.00000  Uiso   1.00
O230   O     0.14632   0.59418   0.27013   0.00000  Uiso   1.00
O231   O     0.07412   0.46625   0.23413   0.00000  Uiso   1.00
O232   O     0.26693   0.52605   0.21360   0.00000  Uiso   1.00
O233   O     0.07071   0.52211   0.28213   0.00000  Uiso   1.00
O234   O     0.25491   0.48559   0.27013   0.00000  Uiso   1.00
O235   O     0.13760   0.40277   0.23413   0.00000  Uiso   1.00
O236   O     0.20345   0.58953   0.21360   0.00000  Uiso   1.00
Zn237  Zn    0.19338   0.47327   0.28734   0.00000  Uiso   1.00
Zn238  Zn    0.13379   0.45791   0.21875   0.00000  Uiso   1.00
Zn239  Zn    0.21056   0.53109   0.20657   0.00000  Uiso   1.00
Zn240  Zn    0.12893   0.53773   0.28733   0.00000  Uiso   1.00
C241   C     0.38626   0.49330   0.25989   0.00000  Uiso   1.00
C242   C     0.49926   0.48781   0.06008   0.00000  Uiso   1.00
C243   C     0.56848   0.46649   0.05608   0.00000  Uiso   1.00
C244   C     0.61414   0.50706   0.23996   0.00000  Uiso   1.00
C245   C     0.47097   0.52232   0.42019   0.00000  Uiso   1.00
C246   C     0.66000   0.50895   0.23542   0.00000  Uiso   1.00
C247   C     0.34104   0.49110   0.26460   0.00000  Uiso   1.00
C248   C     0.51349   0.65582   0.23675   0.00000  Uiso   1.00
C249   C     0.48515   0.34550   0.26440   0.00000  Uiso   1.00
C250   C     0.48982   0.38934   0.25999   0.00000  Uiso   1.00
C251   C     0.50987   0.61127   0.24022   0.00000  Uiso   1.00
C252   C     0.41173   0.51907   0.48654   0.00000  Uiso   1.00
C253   C     0.51896   0.48166   0.12942   0.00000  Uiso   1.00
C254   C     0.48241   0.51850   0.37084   0.00000  Uiso   1.00
C255   C     0.58113   0.47143   0.01043   0.00000  Uiso   1.00
C256   C     0.52796   0.47582   0.08102   0.00000  Uiso   1.00
C257   C     0.42857   0.52818   0.44229   0.00000  Uiso   1.00
C258   C     0.40270   0.44529   0.04419   0.00000  Uiso   1.00
C259   C     0.38142   0.42805   0.08953   0.00000  Uiso   1.00
C260   C     0.43666   0.50337   0.00966   0.00000  Uiso   1.00
C261   C     0.48173   0.50257   0.49024   0.00000  Uiso   1.00
C262   C     0.49884   0.51284   0.44477   0.00000  Uiso   1.00
C263   C     0.51034   0.49099   0.01339   0.00000  Uiso   1.00
C264   C     0.55320   0.48531   0.48939   0.00000  Uiso   1.00
C265   C     0.56918   0.49693   0.44574   0.00000  Uiso   1.00
C266   C     0.54335   0.51317   0.42482   0.00000  Uiso   1.00
F267   F     0.59688   0.45568   0.07655   0.00000  Uiso   1.00
F268   F     0.64766   0.47210   0.30044   0.00000  Uiso   1.00
F269   F     0.45158   0.66246   0.29686   0.00000  Uiso   1.00
F270   F     0.36954   0.52187   0.00605   0.00000  Uiso   1.00
F271   F     0.56297   0.53130   0.38597   0.00000  Uiso   1.00
F272   F     0.35475   0.52891   0.20100   0.00000  Uiso   1.00
H273   H     0.53977   0.33690   0.21118   0.00000  Uiso   1.00
H274   H     0.40445   0.43278   0.11078   0.00000  Uiso   1.00
H275   H     0.60275   0.49586   0.42858   0.00000  Uiso   1.00
H276   H     0.61357   0.46648   0.49196   0.00000  Uiso   1.00
H277   H     0.47071   0.49882   0.08184   0.00000  Uiso   1.00
H278   H     0.40712   0.53644   0.42423   0.00000  Uiso   1.00
H279   H     0.43075   0.42815   0.02772   0.00000  Uiso   1.00
H280   H     0.37907   0.43967   0.02348   0.00000  Uiso   1.00
H281   H     0.35294   0.44415   0.10666   0.00000  Uiso   1.00
H282   H     0.37099   0.39424   0.08494   0.00000  Uiso   1.00
O283   O     0.50000   0.50000   0.25000   0.00000  Uiso   1.00
O284   O     0.48784   0.45970   0.15458   0.00000  Uiso   1.00
O285   O     0.46274   0.53724   0.34968   0.00000  Uiso   1.00
O286   O     0.54157   0.51092   0.14606   0.00000  Uiso   1.00
O287   O     0.50785   0.49213   0.34968   0.00000  Uiso   1.00
O288   O     0.41561   0.48828   0.05069   0.00000  Uiso   1.00
O289   O     0.51264   0.41352   0.28213   0.00000  Uiso   1.00
O290   O     0.47965   0.59418   0.27013   0.00000  Uiso   1.00
O291   O     0.40745   0.46625   0.23413   0.00000  Uiso   1.00
O292   O     0.60026   0.52605   0.21360   0.00000  Uiso   1.00
O293   O     0.40405   0.52211   0.28213   0.00000  Uiso   1.00
O294   O     0.58824   0.48559   0.27013   0.00000  Uiso   1.00
O295   O     0.47093   0.40277   0.23413   0.00000  Uiso   1.00
O296   O     0.53678   0.58953   0.21360   0.00000  Uiso   1.00
Zn297  Zn    0.52672   0.47327   0.28734   0.00000  Uiso   1.00
Zn298  Zn    0.46713   0.45791   0.21875   0.00000  Uiso   1.00
Zn299  Zn    0.54389   0.53109   0.20657   0.00000  Uiso   1.00
Zn300  Zn    0.46226   0.53773   0.28733   0.00000  Uiso   1.00
C301   C     0.71960   0.49330   0.25989   0.00000  Uiso   1.00
C302   C     0.83259   0.48781   0.06008   0.00000  Uiso   1.00
C303   C     0.90182   0.46649   0.05608   0.00000  Uiso   1.00
C304   C     0.94747   0.50706   0.23996   0.00000  Uiso   1.00
C305   C     0.80430   0.52232   0.42019   0.00000  Uiso   1.00
C306   C     0.99334   0.50895   0.23542   0.00000  Uiso   1.00
C307   C     0.67438   0.49110   0.26460   0.00000  Uiso   1.00
C308   C     0.84682   0.65582   0.23675   0.00000  Uiso   1.00
C309   C     0.81848   0.34550   0.26440   0.00000  Uiso   1.00
C310   C     0.82316   0.38934   0.25999   0.00000  Uiso   1.00
C311   C     0.84321   0.61127   0.24022   0.00000  Uiso   1.00
C312   C     0.74507   0.51907   0.48654   0.00000  Uiso   1.00
C313   C     0.85229   0.48166   0.12942   0.00000  Uiso   1.00
C314   C     0.81574   0.51850   0.37084   0.00000  Uiso   1.00
C315   C     0.91447   0.47143   0.01043   0.00000  Uiso   1.00
C316   C     0.86129   0.47582   0.08102   0.00000  Uiso   1.00
C317   C     0.76190   0.52818   0.44229   0.00000  Uiso   1.00
C318   C     0.73603   0.44529   0.04419   0.00000  Uiso   1.00
C319   C     0.71475   0.42805   0.08953   0.00000  Uiso   1.00
C320   C     0.76999   0.50337   0.00966   0.00000  Uiso   1.00
C321   C     0.81507   0.50257   0.49024   0.00000  Uiso   1.00
C322   C     0.83218   0.51284   0.44477   0.00000  Uiso   1.00
C323   C     0.84367   0.49099   0.01339   0.00000  Uiso   1.00
C324   C     0.88653   0.48531   0.48939   0.00000  Uiso   1.00
C325   C     0.90251   0.49693   0.44574   0.00000  Uiso   1.00
C326   C     0.87668   0.51317   0.42482   0.00000  Uiso   1.00
F327   F     0.93021   0.45568   0.07655   0.00000  Uiso   1.00
F328   F     0.98100   0.47210   0.30044   0.00000  Uiso   1.00
F329   F     0.78492   0.66246   0.29686   0.00000  Uiso   1.00
F330   F     0.70288   0.52187   0.00605   0.00000  Uiso   1.00
F331   F     0.89630   0.53130   0.38597   0.00000  Uiso   1.00
F332   F     0.68808   0.52891   0.20100   0.00000  Uiso   1.00
H333   H     0.87310   0.33690   0.21118   0.00000  Uiso   1.00
H334   H     0.73778   0.43278   0.11078   0.00000  Uiso   1.00
H335   H     0.93609   0.49586   0.42858   0.00000  Uiso   1.00
H336   H     0.94690   0.46648   0.49196   0.00000  Uiso   1.00
H337   H     0.80405   0.49882   0.08184   0.00000  Uiso   1.00
H338   H     0.74045   0.53644   0.42423   0.00000  Uiso   1.00
H339   H     0.76408   0.42815   0.02772   0.00000  Uiso   1.00
H340   H     0.71241   0.43967   0.02348   0.00000  Uiso   1.00
H341   H     0.68627   0.44415   0.10666   0.00000  Uiso   1.00
H342   H     0.70432   0.39424   0.08494   0.00000  Uiso   1.00
O343   O     0.83333   0.50000   0.25000   0.00000  Uiso   1.00
O344   O     0.82118   0.45970   0.15458   0.00000  Uiso   1.00
O345   O     0.79607   0.53724   0.34968   0.00000  Uiso   1.00
O346   O     0.87491   0.51092   0.14606   0.00000  Uiso   1.00
O347   O     0.84118   0.49213   0.34968   0.00000  Uiso   1.00
O348   O     0.74894   0.48828   0.05069   0.00000  Uiso   1.00
O349   O     0.84597   0.41352   0.28213   0.00000  Uiso   1.00
O350   O     0.81298   0.59418   0.27013   0.00000  Uiso   1.00
O351   O     0.74078   0.46625   0.23413   0.00000  Uiso   1.00
O352   O     0.93360   0.52605   0.21360   0.00000  Uiso   1.00
O353   O     0.73738   0.52211   0.28213   0.00000  Uiso   1.00
O354   O     0.92158   0.48559   0.27013   0.00000  Uiso   1.00
O355   O     0.80426   0.40277   0.23413   0.00000  Uiso   1.00
O356   O     0.87012   0.58953   0.21360   0.00000  Uiso   1.00
Zn357  Zn    0.86005   0.47327   0.28734   0.00000  Uiso   1.00
Zn358  Zn    0.80046   0.45791   0.21875   0.00000  Uiso   1.00
Zn359  Zn    0.87723   0.53109   0.20657   0.00000  Uiso   1.00
Zn360  Zn    0.79560   0.53773   0.28733   0.00000  Uiso   1.00
C361   C     0.05293   0.82663   0.25989   0.00000  Uiso   1.00
C362   C     0.16592   0.82115   0.06008   0.00000  Uiso   1.00
C363   C     0.23515   0.79982   0.05608   0.00000  Uiso   1.00
C364   C     0.28080   0.84039   0.23996   0.00000  Uiso   1.00
C365   C     0.13764   0.85565   0.42019   0.00000  Uiso   1.00
C366   C     0.32667   0.84228   0.23542   0.00000  Uiso   1.00
C367   C     0.00771   0.82443   0.26460   0.00000  Uiso   1.00
C368   C     0.18015   0.98916   0.23675   0.00000  Uiso   1.00
C369   C     0.15182   0.67883   0.26440   0.00000  Uiso   1.00
C370   C     0.15649   0.72267   0.25999   0.00000  Uiso   1.00
C371   C     0.17654   0.94460   0.24022   0.00000  Uiso   1.00
C372   C     0.07840   0.85240   0.48654   0.00000  Uiso   1.00
C373   C     0.18563   0.81499   0.12942   0.00000  Uiso   1.00
C374   C     0.14907   0.85184   0.37084   0.00000  Uiso   1.00
C375   C     0.24780   0.80477   0.01043   0.00000  Uiso   1.00
C376   C     0.19462   0.80915   0.08102   0.00000  Uiso   1.00
C377   C     0.09523   0.86152   0.44229   0.00000  Uiso   1.00
C378   C     0.06937   0.77862   0.04419   0.00000  Uiso   1.00
C379   C     0.04809   0.76139   0.08953   0.00000  Uiso   1.00
C380   C     0.10333   0.83670   0.00966   0.00000  Uiso   1.00
C381   C     0.14840   0.83591   0.49024   0.00000  Uiso   1.00
C382   C     0.16551   0.84618   0.44477   0.00000  Uiso   1.00
C383   C     0.17701   0.82433   0.01339   0.00000  Uiso   1.00
C384   C     0.21987   0.81864   0.48939   0.00000  Uiso   1.00
C385   C     0.23584   0.83026   0.44574   0.00000  Uiso   1.00
C386   C     0.21002   0.84650   0.42482   0.00000  Uiso   1.00
F387   F     0.26354   0.78901   0.07655   0.00000  Uiso   1.00
F388   F     0.31433   0.80543   0.30044   0.00000  Uiso   1.00
F389   F     0.11825   0.99580   0.29686   0.00000  Uiso   1.00
F390   F     0.03621   0.85521   0.00605   0.00000  Uiso   1.00
F391   F     0.22963   0.86463   0.38597   0.00000  Uiso   1.00
F392   F     0.02141   0.86224   0.20100   0.00000  Uiso   1.00
H393   H     0.20643   0.67023   0.21118   0.00000  Uiso   1.00
H394   H     0.07111   0.76612   0.11078   0.00000  Uiso   1.00
H395   H     0.26942   0.82920   0.42858   0.00000  Uiso   1.00
H396   H     0.28023   0.79982   0.49196   0.00000  Uiso   1.00
H397   H     0.13738   0.83216   0.08184   0.00000  Uiso   1.00
H398   H     0.07379   0.86978   0.42423   0.00000  Uiso   1.00
H399   H     0.09741   0.76148   0.02772   0.00000  Uiso   1.00
H400   H     0.04574   0.77300   0.02348   0.00000  Uiso   1.00
H401   H     0.01961   0.77748   0.10666   0.00000  Uiso   1.00
H402   H     0.03765   0.72757   0.08494   0.00000  Uiso   1.00
O403   O     0.16667   0.83333   0.25000   0.00000  Uiso   1.00
O404   O     0.15451   0.79304   0.15458   0.00000  Uiso   1.00
O405   O     0.12940   0.87058   0.34968   0.00000  Uiso   1.00
O406   O     0.20824   0.84425   0.14606   0.00000  Uiso   1.00
O407   O     0.17451   0.82546   0.34968   0.00000  Uiso   1.00
O408   O     0.08227   0.82161   0.05069   0.00000  Uiso   1.00
O409   O     0.17930   0.74686   0.28213   0.00000  Uiso   1.00
O410   O     0.14632   0.92751   0.27013   0.00000  Uiso   1.00
O411   O     0.07412   0.79958   0.23413   0.00000  Uiso   1.00
O412   O     0.26693   0.85939   0.21360   0.00000  Uiso   1.00
O413   O     0.07071   0.85544   0.28213   0.00000  Uiso   1.00
O414   O     0.25491   0.81892   0.27013   0.00000  Uiso   1.00
O415   O     0.13760   0.73610   0.23413   0.00000  Uiso   1.00
O416   O     0.20345   0.92286   0.21360   0.00000  Uiso   1.00
Zn417  Zn    0.19338   0.80661   0.28734   0.00000  Uiso   1.00
Zn418  Zn    0.13379   0.79124   0.21875   0.00000  Uiso   1.00
Zn419  Zn    0.21056   0.86442   0.20657   0.00000  Uiso   1.00
Zn420  Zn    0.12893   0.87106   0.28733   0.00000  Uiso   1.00
C421   C     0.38626   0.82663   0.25989   0.00000  Uiso   1.00
C422   C     0.49926   0.82115   0.06008   0.00000  Uiso   1.00
C423   C     0.56848   0.79982   0.05608   0.00000  Uiso   1.00
C424   C     0.61414   0.84039   0.23996   0.00000  Uiso   1.00
C425   C     0.47097   0.85565   0.42019   0.00000  Uiso   1.00
C426   C     0.66000   0.84228   0.23542   0.00000  Uiso   1.00
C427   C     0.34104   0.82443   0.26460   0.00000  Uiso   1.00
C428   C     0.51349   0.98916   0.23675   0.00000  Uiso   1.00
C429   C     0.48515   0.67883   0.26440   0.00000  Uiso   1.00
C430   C     0.48982   0.72267   0.25999   0.00000  Uiso   1.00
C431   C     0.50987   0.94460   0.24022   0.00000  Uiso   1.00
C432   C     0.41173   0.85240   0.48654   0.00000  Uiso   1.00
C433   C     0.51896   0.81499   0.12942   0.00000  Uiso   1.00
C434   C     0.48241   0.85184   0.37084   0.00000  Uiso   1.00
C435   C     0.58113   0.80477   0.01043   0.00000  Uiso   1.00
C436   C     0.52796   0.80915   0.08102   0.00000  Uiso   1.00
C437   C     0.42857   0.86152   0.44229   0.00000  Uiso   1.00
C438   C     0.40270   0.77862   0.04419   0.00000  Uiso   1.00
C439   C     0.38142   0.76139   0.08953   0.00000  Uiso   1.00
C440   C     0.43666   0.83670   0.00966   0.00000  Uiso   1.00
C441   C     0.48173   0.83591   0.49024   0.00000  Uiso   1.00
C442   C     0.49884   0.84618   0.44477   0.00000  Uiso   1.00
C443   C     0.51034   0.82433   0.01339   0.00000  Uiso   1.00
C444   C     0.55320   0.81864   0.48939   0.00000  Uiso   1.00
C445   C     0.56918   0.83026   0.44574   0.00000  Uiso   1.00
C446   C     0.54335   0.84650   0.42482   0.00000  Uiso   1.00
F447   F     0.59688   0.78901   0.07655   0.00000  Uiso   1.00
F448   F     0.64766   0.80543   0.30044   0.00000  Uiso   1.00
F449   F     0.45158   0.99580   0.29686   0.00000  Uiso   1.00
F450   F     0.36954   0.85521   0.00605   0.00000  Uiso   1.00
F451   F     0.56297   0.86463   0.38597   0.00000  Uiso   1.00
F452   F     0.35475   0.86224   0.20100   0.00000  Uiso   1.00
H453   H     0.53977   0.67023   0.21118   0.00000  Uiso   1.00
H454   H     0.40445   0.76612   0.11078   0.00000  Uiso   1.00
H455   H     0.60275   0.82920   0.42858   0.00000  Uiso   1.00
H456   H     0.61357   0.79982   0.49196   0.00000  Uiso   1.00
H457   H     0.47071   0.83216   0.08184   0.00000  Uiso   1.00
H458   H     0.40712   0.86978   0.42423   0.00000  Uiso   1.00
H459   H     0.43075   0.76148   0.02772   0.00000  Uiso   1.00
H460   H     0.37907   0.77300   0.02348   0.00000  Uiso   1.00
H461   H     0.35294   0.77748   0.10666   0.00000  Uiso   1.00
H462   H     0.37099   0.72757   0.08494   0.00000  Uiso   1.00
O463   O     0.50000   0.83333   0.25000   0.00000  Uiso   1.00
O464   O     0.48784   0.79304   0.15458   0.00000  Uiso   1.00
O465   O     0.46274   0.87058   0.34968   0.00000  Uiso   1.00
O466   O     0.54157   0.84425   0.14606   0.00000  Uiso   1.00
O467   O     0.50785   0.82546   0.34968   0.00000  Uiso   1.00
O468   O     0.41561   0.82161   0.05069   0.00000  Uiso   1.00
O469   O     0.51264   0.74686   0.28213   0.00000  Uiso   1.00
O470   O     0.47965   0.92751   0.27013   0.00000  Uiso   1.00
O471   O     0.40745   0.79958   0.23413   0.00000  Uiso   1.00
O472   O     0.60026   0.85939   0.21360   0.00000  Uiso   1.00
O473   O     0.40405   0.85544   0.28213   0.00000  Uiso   1.00
O474   O     0.58824   0.81892   0.27013   0.00000  Uiso   1.00
O475   O     0.47093   0.73610   0.23413   0.00000  Uiso   1.00
O476   O     0.53678   0.92286   0.21360   0.00000  Uiso   1.00
Zn477  Zn    0.52672   0.80661   0.28734   0.00000  Uiso   1.00
Zn478  Zn    0.46713   0.79124   0.21875   0.00000  Uiso   1.00
Zn479  Zn    0.54389   0.86442   0.20657   0.00000  Uiso   1.00
Zn480  Zn    0.46226   0.87106   0.28733   0.00000  Uiso   1.00
C481   C     0.71960   0.82663   0.25989   0.00000  Uiso   1.00
C482   C     0.83259   0.82115   0.06008   0.00000  Uiso   1.00
C483   C     0.90182   0.79982   0.05608   0.00000  Uiso   1.00
C484   C     0.94747   0.84039   0.23996   0.00000  Uiso   1.00
C485   C     0.80430   0.85565   0.42019   0.00000  Uiso   1.00
C486   C     0.99334   0.84228   0.23542   0.00000  Uiso   1.00
C487   C     0.67438   0.82443   0.26460   0.00000  Uiso   1.00
C488   C     0.84682   0.98916   0.23675   0.00000  Uiso   1.00
C489   C     0.81848   0.67883   0.26440   0.00000  Uiso   1.00
C490   C     0.82316   0.72267   0.25999   0.00000  Uiso   1.00
C491   C     0.84321   0.94460   0.24022   0.00000  Uiso   1.00
C492   C     0.74507   0.85240   0.48654   0.00000  Uiso   1.00
C493   C     0.85229   0.81499   0.12942   0.00000  Uiso   1.00
C494   C     0.81574   0.85184   0.37084   0.00000  Uiso   1.00
C495   C     0.91447   0.80477   0.01043   0.00000  Uiso   1.00
C496   C     0.86129   0.80915   0.08102   0.00000  Uiso   1.00
C497   C     0.76190   0.86152   0.44229   0.00000  Uiso   1.00
C498   C     0.73603   0.77862   0.04419   0.00000  Uiso   1.00
C499   C     0.71475   0.76139   0.08953   0.00000  Uiso   1.00
C500   C     0.76999   0.83670   0.00966   0.00000  Uiso   1.00
C501   C     0.81507   0.83591   0.49024   0.00000  Uiso   1.00
C502   C     0.83218   0.84618   0.44477   0.00000  Uiso   1.00
C503   C     0.84367   0.82433   0.01339   0.00000  Uiso   1.00
C504   C     0.88653   0.81864   0.48939   0.00000  Uiso   1.00
C505   C     0.90251   0.83026   0.44574   0.00000  Uiso   1.00
C506   C     0.87668   0.84650   0.42482   0.00000  Uiso   1.00
F507   F     0.93021   0.78901   0.07655   0.00000  Uiso   1.00
F508   F     0.98100   0.80543   0.30044   0.00000  Uiso   1.00
F509   F     0.78492   0.99580   0.29686   0.00000  Uiso   1.00
F510   F     0.70288   0.85521   0.00605   0.00000  Uiso   1.00
F511   F     0.89630   0.86463   0.38597   0.00000  Uiso   1.00
F512   F     0.68808   0.86224   0.20100   0.00000  Uiso   1.00
H513   H     0.87310   0.67023   0.21118   0.00000  Uiso   1.00
H514   H     0.73778   0.76612   0.11078   0.00000  Uiso   1.00
H515   H     0.93609   0.82920   0.42858   0.00000  Uiso   1.00
H516   H     0.94690   0.79982   0.49196   0.00000  Uiso   1.00
H517   H     0.80405   0.83216   0.08184   0.00000  Uiso   1.00
H518   H     0.74045   0.86978   0.42423   0.00000  Uiso   1.00
H519   H     0.76408   0.76148   0.02772   0.00000  Uiso   1.00
H520   H     0.71241   0.77300   0.02348   0.00000  Uiso   1.00
H521   H     0.68627   0.77748   0.10666   0.00000  Uiso   1.00
H522   H     0.70432   0.72757   0.08494   0.00000  Uiso   1.00
O523   O     0.83333   0.83333   0.25000   0.00000  Uiso   1.00
O524   O     0.82118   0.79304   0.15458   0.00000  Uiso   1.00
O525   O     0.79607   0.87058   0.34968   0.00000  Uiso   1.00
O526   O     0.87491   0.84425   0.14606   0.00000  Uiso   1.00
O527   O     0.84118   0.82546   0.34968   0.00000  Uiso   1.00
O528   O     0.74894   0.82161   0.05069   0.00000  Uiso   1.00
O529   O     0.84597   0.74686   0.28213   0.00000  Uiso   1.00
O530   O     0.81298   0.92751   0.27013   0.00000  Uiso   1.00
O531   O     0.74078   0.79958   0.23413   0.00000  Uiso   1.00
O532   O     0.93360   0.85939   0.21360   0.00000  Uiso   1.00
O533   O     0.73738   0.85544   0.28213   0.00000  Uiso   1.00
O534   O     0.92158   0.81892   0.27013   0.00000  Uiso   1.00
O535   O     0.80426   0.73610   0.23413   0.00000  Uiso   1.00
O536   O     0.87012   0.92286   0.21360   0.00000  Uiso   1.00
Zn537  Zn    0.86005   0.80661   0.28734   0.00000  Uiso   1.00
Zn538  Zn    0.80046   0.79124   0.21875   0.00000  Uiso   1.00
Zn539  Zn    0.87723   0.86442   0.20657   0.00000  Uiso   1.00
Zn540  Zn    0.79560   0.87106   0.28733   0.00000  Uiso   1.00
C541   C     0.05293   0.15996   0.75989   0.00000  Uiso   1.00
C542   C     0.16592   0.15448   0.56008   0.00000  Uiso   1.00
C543   C     0.23515   0.13316   0.55608   0.00000  Uiso   1.00
C544   C     0.28080   0.17373   0.73996   0.00000  Uiso   1.00
C545   C     0.13764   0.18898   0.92019   0.00000  Uiso   1.00
C546   C     0.32667   0.17562   0.73542   0.00000  Uiso   1.00
C547   C     0.00771   0.15777   0.76460   0.00000  Uiso   1.00
C548   C     0.18015   0.32249   0.73675   0.00000  Uiso   1.00
C549   C     0.15182   0.01217   0.76440   0.00000  Uiso   1.00
C550   C     0.15649   0.05601   0.75999   0.00000  Uiso   1.00
C551   C     0.17654   0.27794   0.74022   0.00000  Uiso   1.00
C552   C     0.07840   0.18573   0.98654   0.00000  Uiso   1.00
C553   C     0.18563   0.14833   0.62942   0.00000  Uiso   1.00
C554   C     0.14907   0.18517   0.87084   0.00000  Uiso   1.00
C555   C     0.24780   0.13810   0.51043   0.00000  Uiso   1.00
C556   C     0.19462   0.14249   0.58102   0.00000  Uiso   1.00
C557   C     0.09523   0.19485   0.94229   0.00000  Uiso   1.00
C558   C     0.06937   0.11195   0.54419   0.00000  Uiso   1.00
C559   C     0.04809   0.09472   0.58953   0.00000  Uiso   1.00
C560   C     0.10333   0.17004   0.50966   0.00000  Uiso   1.00
C561   C     0.14840   0.16924   0.99024   0.00000  Uiso   1.00
C562   C     0.16551   0.17951   0.94477   0.00000  Uiso   1.00
C563   C     0.17701   0.15766   0.51339   0.00000  Uiso   1.00
C564   C     0.21987   0.15198   0.98939   0.00000  Uiso   1.00
C565   C     0.23584   0.16359   0.94574   0.00000  Uiso   1.00
C566   C     0.21002   0.17984   0.92482   0.00000  Uiso   1.00
F567   F     0.26354   0.12234   0.57655   0.00000  Uiso   1.00
F568   F     0.31433   0.13877   0.80044   0.00000  Uiso   1.00
F569   F     0.11825   0.32913   0.79686   0.00000  Uiso   1.00
F570   F     0.03621   0.18854   0.50605   0.00000  Uiso   1.00
F571   F     0.22963   0.19796   0.88597   0.00000  Uiso   1.00
F572   F     0.02141   0.19558   0.70100   0.00000  Uiso   1.00
H573   H     0.20643   0.00357   0.71118   0.00000  Uiso   1.00
H574   H     0.07111   0.09945   0.61078   0.00000  Uiso   1.00
H575   H     0.26942   0.16253   0.92858   0.00000  Uiso   1.00
H576   H     0.28023   0.13315   0.99196   0.00000  Uiso   1.00
H577   H     0.13738   0.16549   0.58184   0.00000  Uiso   1.00
H578   H     0.07379   0.20311   0.92423   0.00000  Uiso   1.00
H579   H     0.09741   0.09481   0.52772   0.00000  Uiso   1.00
H580   H     0.04574   0.10634   0.52348   0.00000  Uiso   1.00
H581   H     0.01961   0.11082   0.60666   0.00000  Uiso   1.00
H582   H     0.03765   0.06090   0.58494   0.00000  Uiso   1.00
O583   O     0.16667   0.16667   0.75000   0.00000  Uiso   1.00
O584   O     0.15451   0.12637   0.65458   0.00000  Uiso   1.00
O585   O     0.12940   0.20391   0.84968   0.00000  Uiso   1.00
O586   O     0.20824   0.17759   0.64606   0.00000  Uiso   1.00
O587   O     0.17451   0.15880   0.84968   0.00000  Uiso   1.00
O588   O     0.08227   0.15495   0.55069   0.00000  Uiso   1.00
O589   O     0.17930   0.08019   0.78213   0.00000  Uiso   1.00
O590   O     0.14632   0.26085   0.77013   0.00000  Uiso   1.00
O591   O     0.07412   0.13291   0.73413   0.00000  Uiso   1.00
O592   O     0.26693   0.19272   0.71360   0.00000  Uiso   1.00
O593   O     0.07071   0.18878   0.78213   0.00000  Uiso   1.00
O594   O     0.25491   0.15226   0.77013   0.00000  Uiso   1.00
O595   O     0.13760   0.06944   0.73413   0.00000  Uiso   1.00
O596   O     0.20345   0.25620   0.71360   0.00000  Uiso   1.00
Zn597  Zn    0.19338   0.13994   0.78734   0.00000  Uiso   1.00
Zn598  Zn    0.13379   0.12458   0.71875   0.00000  Uiso   1.00
Zn599  Zn    0.21056   0.19775   0.70657   0.00000  Uiso   1.00
Zn600  Zn    0.12893   0.20439   0.78733   0.00000  Uiso   1.00
C601   C     0.38626   0.15996   0.75989   0.00000  Uiso   1.00
C602   C     0.49926   0.15448   0.56008   0.00000  Uiso   1.00
C603   C     0.56848   0.13316   0.55608   0.00000  Uiso   1.00
C604   C     0.61414   0.17373   0.73996   0.00000  Uiso   1.00
C605   C     0.47097   0.18898   0.92019   0.00000  Uiso   1.00
C606   C     0.66000   0.17562   0.73542   0.00000  Uiso   1.00
C607   C     0.34104   0.15777   0.76460   0.00000  Uiso   1.00
C608   C     0.51349   0.32249   0.73675   0.00000  Uiso   1.00
C609   C     0.48515   0.01217   0.76440   0.00000  Uiso   1.00
C610   C     0.48982   0.05601   0.75999   0.00000  Uiso   1.00
C611   C     0.50987   0.27794   0.74022   0.00000  Uiso   1.00
C612   C     0.41173   0.18573   0.98654   0.00000  Uiso   1.00
C613   C     0.51896   0.14833   0.62942   0.00000  Uiso   1.00
C614   C     0.48241   0.18517   0.87084   0.00000  Uiso   1.00
C615   C     0.58113   0.13810   0.51043   0.00000  Uiso   1.00
C616   C     0.52796   0.14249   0.58102   0.00000  Uiso   1.00
C617   C     0.42857   0.19485   0.94229   0.00000  Uiso   1.00
C618   C     0.40270   0.11195   0.54419   0.00000  Uiso   1.00
C619   C     0.38142   0.09472   0.58953   0.00000  Uiso   1.00
C620   C     0.43666   0.17004   0.50966   0.00000  Uiso   1.00
C621   C     0.48173   0.16924   0.99024   0.00000  Uiso   1.00
C622   C     0.49884   0.17951   0.94477   0.00000  Uiso   1.00
C623   C     0.51034   0.15766   0.51339   0.00000  Uiso   1.00
C624   C     0.55320   0.15198   0.98939   0.00000  Uiso   1.00
C625   C     0.56918   0.16359   0.94574   0.00000  Uiso   1.00
C626   C     0.54335   0.17984   0.92482   0.00000  Uiso   1.00
F627   F     0.59688   0.12234   0.57655   0.00000  Uiso   1.00
F628   F     0.64766   0.13877   0.80044   0.00000  Uiso   1.00
F629   F     0.45158   0.32913   0.79686   0.00000  Uiso   1.00
F630   F     0.36954   0.18854   0.50605   0.00000  Uiso   1.00
F631   F     0.56297   0.19796   0.88597   0.00000  Uiso   1.00
F632   F     0.35475   0.19558   0.70100   0.00000  Uiso   1.00
H633   H     0.53977   0.00357   0.71118   0.00000  Uiso   1.00
H634   H     0.40445   0.09945   0.61078   0.00000  Uiso   1.00
H635   H     0.60275   0.16253   0.92858   0.00000  Uiso   1.00
H636   H     0.61357   0.13315   0.99196   0.00000  Uiso   1.00
H637   H     0.47071   0.16549   0.58184   0.00000  Uiso   1.00
H638   H     0.40712   0.20311   0.92423   0.00000  Uiso   1.00
H639   H     0.43075   0.09481   0.52772   0.00000  Uiso   1.00
H640   H     0.37907   0.10634   0.52348   0.00000  Uiso   1.00
H641   H     0.35294   0.11082   0.60666   0.00000  Uiso   1.00
H642   H     0.37099   0.06090   0.58494   0.00000  Uiso   1.00
O643   O     0.50000   0.16667   0.75000   0.00000  Uiso   1.00
O644   O     0.48784   0.12637   0.65458   0.00000  Uiso   1.00
O645   O     0.46274   0.20391   0.84968   0.00000  Uiso   1.00
O646   O     0.54157   0.17759   0.64606   0.00000  Uiso   1.00
O647   O     0.50785   0.15880   0.84968   0.00000  Uiso   1.00
O648   O     0.41561   0.15495   0.55069   0.00000  Uiso   1.00
O649   O     0.51264   0.08019   0.78213   0.00000  Uiso   1.00
O650   O     0.47965   0.26085   0.77013   0.00000  Uiso   1.00
O651   O     0.40745   0.13291   0.73413   0.00000  Uiso   1.00
O652   O     0.60026   0.19272   0.71360   0.00000  Uiso   1.00
O653   O     0.40405   0.18878   0.78213   0.00000  Uiso   1.00
O654   O     0.58824   0.15226   0.77013   0.00000  Uiso   1.00
O655   O     0.47093   0.06944   0.73413   0.00000  Uiso   1.00
O656   O     0.53678   0.25620   0.71360   0.00000  Uiso   1.00
Zn657  Zn    0.52672   0.13994   0.78734   0.00000  Uiso   1.00
Zn658  Zn    0.46713   0.12458   0.71875   0.00000  Uiso   1.00
Zn659  Zn    0.54389   0.19775   0.70657   0.00000  Uiso   1.00
Zn660  Zn    0.46226   0.20439   0.78733   0.00000  Uiso   1.00
C661   C     0.71960   0.15996   0.75989   0.00000  Uiso   1.00
C662   C     0.83259   0.15448   0.56008   0.00000  Uiso   1.00
C663   C     0.90182   0.13316   0.55608   0.00000  Uiso   1.00
C664   C     0.94747   0.17373   0.73996   0.00000  Uiso   1.00
C665   C     0.80430   0.18898   0.92019   0.00000  Uiso   1.00
C666   C     0.99334   0.17562   0.73542   0.00000  Uiso   1.00
C667   C     0.67438   0.15777   0.76460   0.00000  Uiso   1.00
C668   C     0.84682   0.32249   0.73675   0.00000  Uiso   1.00
C669   C     0.81848   0.01217   0.76440   0.00000  Uiso   1.00
C670   C     0.82316   0.05601   0.75999   0.00000  Uiso   1.00
C671   C     0.84321   0.27794   0.74022   0.00000  Uiso   1.00
C672   C     0.74507   0.18573   0.98654   0.00000  Uiso   1.00
C673   C     0.85229   0.14833   0.62942   0.00000  Uiso   1.00
C674   C     0.81574   0.18517   0.87084   0.00000  Uiso   1.00
C675   C     0.91447   0.13810   0.51043   0.00000  Uiso   1.00
C676   C     0.86129   0.14249   0.58102   0.00000  Uiso   1.00
C677   C     0.76190   0.19485   0.94229   0.00000  Uiso   1.00
C678   C     0.73603   0.11195   0.54419   0.00000  Uiso   1.00
C679   C     0.71475   0.09472   0.58953   0.00000  Uiso   1.00
C680   C     0.76999   0.17004   0.50966   0.00000  Uiso   1.00
C681   C     0.81507   0.16924   0.99024   0.00000  Uiso   1.00
C682   C     0.83218   0.17951   0.94477   0.00000  Uiso   1.00
C683   C     0.84367   0.15766   0.51339   0.00000  Uiso   1.00
C684   C     0.88653   0.15198   0.98939   0.00000  Uiso   1.00
C685   C     0.90251   0.16359   0.94574   0.00000  Uiso   1.00
C686   C     0.87668   0.17984   0.92482   0.00000  Uiso   1.00
F687   F     0.93021   0.12234   0.57655   0.00000  Uiso   1.00
F688   F     0.98100   0.13877   0.80044   0.00000  Uiso   1.00
F689   F     0.78492   0.32913   0.79686   0.00000  Uiso   1.00
F690   F     0.70288   0.18854   0.50605   0.00000  Uiso   1.00
F691   F     0.89630   0.19796   0.88597   0.00000  Uiso   1.00
F692   F     0.68808   0.19558   0.70100   0.00000  Uiso   1.00
H693   H     0.87310   0.00357   0.71118   0.00000  Uiso   1.00
H694   H     0.73778   0.09945   0.61078   0.00000  Uiso   1.00
H695   H     0.93609   0.16253   0.92858   0.00000  Uiso   1.00
H696   H     0.94690   0.13315   0.99196   0.00000  Uiso   1.00
H697   H     0.80405   0.16549   0.58184   0.00000  Uiso   1.00
H698   H     0.74045   0.20311   0.92423   0.00000  Uiso   1.00
H699   H     0.76408   0.09481   0.52772   0.00000  Uiso   1.00
H700   H     0.71241   0.10634   0.52348   0.00000  Uiso   1.00
H701   H     0.68627   0.11082   0.60666   0.00000  Uiso   1.00
H702   H     0.70432   0.06090   0.58494   0.00000  Uiso   1.00
O703   O     0.83333   0.16667   0.75000   0.00000  Uiso   1.00
O704   O     0.82118   0.12637   0.65458   0.00000  Uiso   1.00
O705   O     0.79607   0.20391   0.84968   0.00000  Uiso   1.00
O706   O     0.87491   0.17759   0.64606   0.00000  Uiso   1.00
O707   O     0.84118   0.15880   0.84968   0.00000  Uiso   1.00
O708   O     0.74894   0.15495   0.55069   0.00000  Uiso   1.00
O709   O     0.84597   0.08019   0.78213   0.00000  Uiso   1.00
O710   O     0.81298   0.26085   0.77013   0.00000  Uiso   1.00
O711   O     0.74078   0.13291   0.73413   0.00000  Uiso   1.00
O712   O     0.93360   0.19272   0.71360   0.00000  Uiso   1.00
O713   O     0.73738   0.18878   0.78213   0.00000  Uiso   1.00
O714   O     0.92158   0.15226   0.77013   0.00000  Uiso   1.00
O715   O     0.80426   0.06944   0.73413   0.00000  Uiso   1.00
O716   O     0.87012   0.25620   0.71360   0.00000  Uiso   1.00
Zn717  Zn    0.86005   0.13994   0.78734   0.00000  Uiso   1.00
Zn718  Zn    0.80046   0.12458   0.71875   0.00000  Uiso   1.00
Zn719  Zn    0.87723   0.19775   0.70657   0.00000  Uiso   1.00
Zn720  Zn    0.79560   0.20439   0.78733   0.00000  Uiso   1.00
C721   C     0.05293   0.49330   0.75989   0.00000  Uiso   1.00
C722   C     0.16592   0.48781   0.56008   0.00000  Uiso   1.00
C723   C     0.23515   0.46649   0.55608   0.00000  Uiso   1.00
C724   C     0.28080   0.50706   0.73996   0.00000  Uiso   1.00
C725   C     0.13764   0.52232   0.92019   0.00000  Uiso   1.00
C726   C     0.32667   0.50895   0.73542   0.00000  Uiso   1.00
C727   C     0.00771   0.49110   0.76460   0.00000  Uiso   1.00
C728   C     0.18015   0.65582   0.73675   0.00000  Uiso   1.00
C729   C     0.15182   0.34550   0.76440   0.00000  Uiso   1.00
C730   C     0.15649   0.38934   0.75999   0.00000  Uiso   1.00
C731   C     0.17654   0.61127   0.74022   0.00000  Uiso   1.00
C732   C     0.07840   0.51907   0.98654   0.00000  Uiso   1.00
C733   C     0.18563   0.48166   0.62942   0.00000  Uiso   1.00
C734   C     0.14907   0.51850   0.87084   0.00000  Uiso   1.00
C735   C     0.24780   0.47143   0.51043   0.00000  Uiso   1.00
C736   C     0.19462   0.47582   0.58102   0.00000  Uiso   1.00
C737   C     0.09523   0.52818   0.94229   0.00000  Uiso   1.00
C738   C     0.06937   0.44529   0.54419   0.00000  Uiso   1.00
C739   C     0.04809   0.42805   0.58953   0.00000  Uiso   1.00
C740   C     0.10333   0.50337   0.50966   0.00000  Uiso   1.00
C741   C     0.14840   0.50257   0.99024   0.00000  Uiso   1.00
C742   C     0.16551   0.51284   0.94477   0.00000  Uiso   1.00
C743   C     0.17701   0.49099   0.51339   0.00000  Uiso   1.00
C744   C     0.21987   0.48531   0.98939   0.00000  Uiso   1.00
C745   C     0.23584   0.49693   0.94574   0.00000  Uiso   1.00
C746   C     0.21002   0.51317   0.92482   0.00000  Uiso   1.00
F747   F     0.26354   0.45568   0.57655   0.00000  Uiso   1.00
F748   F     0.31433   0.47210   0.80044   0.00000  Uiso   1.00
F749   F     0.11825   0.66246   0.79686   0.00000  Uiso   1.00
F750   F     0.03621   0.52187   0.50605   0.00000  Uiso   1.00
F751   F     0.22963   0.53130   0.88597   0.00000  Uiso   1.00
F752   F     0.02141   0.52891   0.70100   0.00000  Uiso   1.00
H753   H     0.20643   0.33690   0.71118   0.00000  Uiso   1.00
H754   H     0.07111   0.43278   0.61078   0.00000  Uiso   1.00
H755   H     0.26942   0.49586   0.92858   0.00000  Uiso   1.00
H756   H     0.28023   0.46648   0.99196   0.00000  Uiso   1.00
H757   H     0.13738   0.49882   0.58184   0.00000  Uiso   1.00
H758   H     0.07379   0.53644   0.92423   0.00000  Uiso   1.00
H759   H     0.09741   0.42815   0.52772   0.00000  Uiso   1.00
H760   H     0.04574   0.43967   0.52348   0.00000  Uiso   1.00
H761   H     0.01961   0.44415   0.60666   0.00000  Uiso   1.00
H762   H     0.03765   0.39424   0.58494   0.00000  Uiso   1.00
O763   O     0.16667   0.50000   0.75000   0.00000  Uiso   1.00
O764   O     0.15451   0.45970   0.65458   0.00000  Uiso   1.00
O765   O     0.12940   0.53724   0.84968   0.00000  Uiso   1.00
O766   O     0.20824   0.51092   0.64606   0.00000  Uiso   1.00
O767   O     0.17451   0.49213   0.84968   0.00000  Uiso   1.00
O768   O     0.08227   0.48828   0.55069   0.00000  Uiso   1.00
O769   O     0.17930   0.41352   0.78213   0.00000  Uiso   1.00
O770   O     0.14632   0.59418   0.77013   0.00000  Uiso   1.00
O771   O     0.07412   0.46625   0.73413   0.00000  Uiso   1.00
O772   O     0.26693   0.52605   0.71360   0.00000  Uiso   1.00
O773   O     0.07071   0.52211   0.78213   0.00000  Uiso   1.00
O774   O     0.25491   0.48559   0.77013   0.00000  Uiso   1.00
O775   O     0.13760   0.40277   0.73413   0.00000  Uiso   1.00
O776   O     0.20345   0.58953   0.71360   0.00000  Uiso   1.00
Zn777  Zn    0.19338   0.47327   0.78734   0.00000  Uiso   1.00
Zn778  Zn    0.13379   0.45791   0.71875   0.00000  Uiso   1.00
Zn779  Zn    0.21056   0.53109   0.70657   0.00000  Uiso   1.00
Zn780  Zn    0.12893   0.53773   0.78733   0.00000  Uiso   1.00
C781   C     0.38626   0.49330   0.75989   0.00000  Uiso   1.00
C782   C     0.49926   0.48781   0.56008   0.00000  Uiso   1.00
C783   C     0.56848   0.46649   0.55608   0.00000  Uiso   1.00
C784   C     0.61414   0.50706   0.73996   0.00000  Uiso   1.00
C785   C     0.47097   0.52232   0.92019   0.00000  Uiso   1.00
C786   C     0.66000   0.50895   0.73542   0.00000  Uiso   1.00
C787   C     0.34104   0.49110   0.76460   0.00000  Uiso   1.00
C788   C     0.51349   0.65582   0.73675   0.00000  Uiso   1.00
C789   C     0.48515   0.34550   0.76440   0.00000  Uiso   1.00
C790   C     0.48982   0.38934   0.75999   0.00000  Uiso   1.00
C791   C     0.50987   0.61127   0.74022   0.00000  Uiso   1.00
C792   C     0.41173   0.51907   0.98654   0.00000  Uiso   1.00
C793   C     0.51896   0.48166   0.62942   0.00000  Uiso   1.00
C794   C     0.48241   0.51850   0.87084   0.00000  Uiso   1.00
C795   C     0.58113   0.47143   0.51043   0.00000  Uiso   1.00
C796   C     0.52796   0.47582   0.58102   0.00000  Uiso   1.00
C797   C     0.42857   0.52818   0.94229   0.00000  Uiso   1.00
C798   C     0.40270   0.44529   0.54419   0.00000  Uiso   1.00
C799   C     0.38142   0.42805   0.58953   0.00000  Uiso   1.00
C800   C     0.43666   0.50337   0.50966   0.00000  Uiso   1.00
C801   C     0.48173   0.50257   0.99024   0.00000  Uiso   1.00
C802   C     0.49884   0.51284   0.94477   0.00000  Uiso   1.00
C803   C     0.51034   0.49099   0.51339   0.00000  Uiso   1.00
C804   C     0.55320   0.48531   0.98939   0.00000  Uiso   1.00
C805   C     0.56918   0.49693   0.94574   0.00000  Uiso   1.00
C806   C     0.54335   0.51317   0.92482   0.00000  Uiso   1.00
F807   F     0.59688   0.45568   0.57655   0.00000  Uiso   1.00
F808   F     0.64766   0.47210   0.80044   0.00000  Uiso   1.00
F809   F     0.45158   0.66246   0.79686   0.00000  Uiso   1.00
F810   F     0.36954   0.52187   0.50605   0.00000  Uiso   1.00
F811   F     0.56297   0.53130   0.88597   0.00000  Uiso   1.00
F812   F     0.35475   0.52891   0.70100   0.00000  Uiso   1.00
H813   H     0.53977   0.33690   0.71118   0.00000  Uiso   1.00
H814   H     0.40445   0.43278   0.61078   0.00000  Uiso   1.00
H815   H     0.60275   0.49586   0.92858   0.00000  Uiso   1.00
H816   H     0.61357   0.46648   0.99196   0.00000  Uiso   1.00
H817   H     0.47071   0.49882   0.58184   0.00000  Uiso   1.00
H818   H     0.40712   0.53644   0.92423   0.00000  Uiso   1.00
H819   H     0.43075   0.42815   0.52772   0.00000  Uiso   1.00
H820   H     0.37907   0.43967   0.52348   0.00000  Uiso   1.00
H821   H     0.35294   0.44415   0.60666   0.00000  Uiso   1.00
H822   H     0.37099   0.39424   0.58494   0.00000  Uiso   1.00
O823   O     0.50000   0.50000   0.75000   0.00000  Uiso   1.00
O824   O     0.48784   0.45970   0.65458   0.00000  Uiso   1.00
O825   O     0.46274   0.53724   0.84968   0.00000  Uiso   1.00
O826   O     0.54157   0.51092   0.64606   0.00000  Uiso   1.00
O827   O     0.50785   0.49213   0.84968   0.00000  Uiso   1.00
O828   O     0.41561   0.48828   0.55069   0.00000  Uiso   1.00
O829   O     0.51264   0.41352   0.78213   0.00000  Uiso   1.00
O830   O     0.47965   0.59418   0.77013   0.00000  Uiso   1.00
O831   O     0.40745   0.46625   0.73413   0.00000  Uiso   1.00
O832   O     0.60026   0.52605   0.71360   0.00000  Uiso   1.00
O833   O     0.40405   0.52211   0.78213   0.00000  Uiso   1.00
O834   O     0.58824   0.48559   0.77013   0.00000  Uiso   1.00
O835   O     0.47093   0.40277   0.73413   0.00000  Uiso   1.00
O836   O     0.53678   0.58953   0.71360   0.00000  Uiso   1.00
Zn837  Zn    0.52672   0.47327   0.78734   0.00000  Uiso   1.00
Zn838  Zn    0.46713   0.45791   0.71875   0.00000  Uiso   1.00
Zn839  Zn    0.54389   0.53109   0.70657   0.00000  Uiso   1.00
Zn840  Zn    0.46226   0.53773   0.78733   0.00000  Uiso   1.00
C841   C     0.71960   0.49330   0.75989   0.00000  Uiso   1.00
C842   C     0.83259   0.48781   0.56008   0.00000  Uiso   1.00
C843   C     0.90182   0.46649   0.55608   0.00000  Uiso   1.00
C844   C     0.94747   0.50706   0.73996   0.00000  Uiso   1.00
C845   C     0.80430   0.52232   0.92019   0.00000  Uiso   1.00
C846   C     0.99334   0.50895   0.73542   0.00000  Uiso   1.00
C847   C     0.67438   0.49110   0.76460   0.00000  Uiso   1.00
C848   C     0.84682   0.65582   0.73675   0.00000  Uiso   1.00
C849   C     0.81848   0.34550   0.76440   0.00000  Uiso   1.00
C850   C     0.82316   0.38934   0.75999   0.00000  Uiso   1.00
C851   C     0.84321   0.61127   0.74022   0.00000  Uiso   1.00
C852   C     0.74507   0.51907   0.98654   0.00000  Uiso   1.00
C853   C     0.85229   0.48166   0.62942   0.00000  Uiso   1.00
C854   C     0.81574   0.51850   0.87084   0.00000  Uiso   1.00
C855   C     0.91447   0.47143   0.51043   0.00000  Uiso   1.00
C856   C     0.86129   0.47582   0.58102   0.00000  Uiso   1.00
C857   C     0.76190   0.52818   0.94229   0.00000  Uiso   1.00
C858   C     0.73603   0.44529   0.54419   0.00000  Uiso   1.00
C859   C     0.71475   0.42805   0.58953   0.00000  Uiso   1.00
C860   C     0.76999   0.50337   0.50966   0.00000  Uiso   1.00
C861   C     0.81507   0.50257   0.99024   0.00000  Uiso   1.00
C862   C     0.83218   0.51284   0.94477   0.00000  Uiso   1.00
C863   C     0.84367   0.49099   0.51339   0.00000  Uiso   1.00
C864   C     0.88653   0.48531   0.98939   0.00000  Uiso   1.00
C865   C     0.90251   0.49693   0.94574   0.00000  Uiso   1.00
C866   C     0.87668   0.51317   0.92482   0.00000  Uiso   1.00
F867   F     0.93021   0.45568   0.57655   0.00000  Uiso   1.00
F868   F     0.98100   0.47210   0.80044   0.00000  Uiso   1.00
F869   F     0.78492   0.66246   0.79686   0.00000  Uiso   1.00
F870   F     0.70288   0.52187   0.50605   0.00000  Uiso   1.00
F871   F     0.89630   0.53130   0.88597   0.00000  Uiso   1.00
F872   F     0.68808   0.52891   0.70100   0.00000  Uiso   1.00
H873   H     0.87310   0.33690   0.71118   0.00000  Uiso   1.00
H874   H     0.73778   0.43278   0.61078   0.00000  Uiso   1.00
H875   H     0.93609   0.49586   0.92858   0.00000  Uiso   1.00
H876   H     0.94690   0.46648   0.99196   0.00000  Uiso   1.00
H877   H     0.80405   0.49882   0.58184   0.00000  Uiso   1.00
H878   H     0.74045   0.53644   0.92423   0.00000  Uiso   1.00
H879   H     0.76408   0.42815   0.52772   0.00000  Uiso   1.00
H880   H     0.71241   0.43967   0.52348   0.00000  Uiso   1.00
H881   H     0.68627   0.44415   0.60666   0.00000  Uiso   1.00
H882   H     0.70432   0.39424   0.58494   0.00000  Uiso   1.00
O883   O     0.83333   0.50000   0.75000   0.00000  Uiso   1.00
O884   O     0.82118   0.45970   0.65458   0.00000  Uiso   1.00
O885   O     0.79607   0.53724   0.84968   0.00000  Uiso   1.00
O886   O     0.87491   0.51092   0.64606   0.00000  Uiso   1.00
O887   O     0.84118   0.49213   0.84968   0.00000  Uiso   1.00
O888   O     0.74894   0.48828   0.55069   0.00000  Uiso   1.00
O889   O     0.84597   0.41352   0.78213   0.00000  Uiso   1.00
O890   O     0.81298   0.59418   0.77013   0.00000  Uiso   1.00
O891   O     0.74078   0.46625   0.73413   0.00000  Uiso   1.00
O892   O     0.93360   0.52605   0.71360   0.00000  Uiso   1.00
O893   O     0.73738   0.52211   0.78213   0.00000  Uiso   1.00
O894   O     0.92158   0.48559   0.77013   0.00000  Uiso   1.00
O895   O     0.80426   0.40277   0.73413   0.00000  Uiso   1.00
O896   O     0.87012   0.58953   0.71360   0.00000  Uiso   1.00
Zn897  Zn    0.86005   0.47327   0.78734   0.00000  Uiso   1.00
Zn898  Zn    0.80046   0.45791   0.71875   0.00000  Uiso   1.00
Zn899  Zn    0.87723   0.53109   0.70657   0.00000  Uiso   1.00
Zn900  Zn    0.79560   0.53773   0.78733   0.00000  Uiso   1.00
C901   C     0.05293   0.82663   0.75989   0.00000  Uiso   1.00
C902   C     0.16592   0.82115   0.56008   0.00000  Uiso   1.00
C903   C     0.23515   0.79982   0.55608   0.00000  Uiso   1.00
C904   C     0.28080   0.84039   0.73996   0.00000  Uiso   1.00
C905   C     0.13764   0.85565   0.92019   0.00000  Uiso   1.00
C906   C     0.32667   0.84228   0.73542   0.00000  Uiso   1.00
C907   C     0.00771   0.82443   0.76460   0.00000  Uiso   1.00
C908   C     0.18015   0.98916   0.73675   0.00000  Uiso   1.00
C909   C     0.15182   0.67883   0.76440   0.00000  Uiso   1.00
C910   C     0.15649   0.72267   0.75999   0.00000  Uiso   1.00
C911   C     0.17654   0.94460   0.74022   0.00000  Uiso   1.00
C912   C     0.07840   0.85240   0.98654   0.00000  Uiso   1.00
C913   C     0.18563   0.81499   0.62942   0.00000  Uiso   1.00
C914   C     0.14907   0.85184   0.87084   0.00000  Uiso   1.00
C915   C     0.24780   0.80477   0.51043   0.00000  Uiso   1.00
C916   C     0.19462   0.80915   0.58102   0.00000  Uiso   1.00
C917   C     0.09523   0.86152   0.94229   0.00000  Uiso   1.00
C918   C     0.06937   0.77862   0.54419   0.00000  Uiso   1.00
C919   C     0.04809   0.76139   0.58953   0.00000  Uiso   1.00
C920   C     0.10333   0.83670   0.50966   0.00000  Uiso   1.00
C921   C     0.14840   0.83591   0.99024   0.00000  Uiso   1.00
C922   C     0.16551   0.84618   0.94477   0.00000  Uiso   1.00
C923   C     0.17701   0.82433   0.51339   0.00000  Uiso   1.00
C924   C     0.21987   0.81864   0.98939   0.00000  Uiso   1.00
C925   C     0.23584   0.83026   0.94574   0.00000  Uiso   1.00
C926   C     0.21002   0.84650   0.92482   0.00000  Uiso   1.00
F927   F     0.26354   0.78901   0.57655   0.00000  Uiso   1.00
F928   F     0.31433   0.80543   0.80044   0.00000  Uiso   1.00
F929   F     0.11825   0.99580   0.79686   0.00000  Uiso   1.00
F930   F     0.03621   0.85521   0.50605   0.00000  Uiso   1.00
F931   F     0.22963   0.86463   0.88597   0.00000  Uiso   1.00
F932   F     0.02141   0.86224   0.70100   0.00000  Uiso   1.00
H933   H     0.20643   0.67023   0.71118   0.00000  Uiso   1.00
H934   H     0.07111   0.76612   0.61078   0.00000  Uiso   1.00
H935   H     0.26942   0.82920   0.92858   0.00000  Uiso   1.00
H936   H     0.28023   0.79982   0.99196   0.00000  Uiso   1.00
H937   H     0.13738   0.83216   0.58184   0.00000  Uiso   1.00
H938   H     0.07379   0.86978   0.92423   0.00000  Uiso   1.00
H939   H     0.09741   0.76148   0.52772   0.00000  Uiso   1.00
H940   H     0.04574   0.77300   0.52348   0.00000  Uiso   1.00
H941   H     0.01961   0.77748   0.60666   0.00000  Uiso   1.00
H942   H     0.03765   0.72757   0.58494   0.00000  Uiso   1.00
O943   O     0.16667   0.83333   0.75000   0.00000  Uiso   1.00
O944   O     0.15451   0.79304   0.65458   0.00000  Uiso   1.00
O945   O     0.12940   0.87058   0.84968   0.00000  Uiso   1.00
O946   O     0.20824   0.84425   0.64606   0.00000  Uiso   1.00
O947   O     0.17451   0.82546   0.84968   0.00000  Uiso   1.00
O948   O     0.08227   0.82161   0.55069   0.00000  Uiso   1.00
O949   O     0.17930   0.74686   0.78213   0.00000  Uiso   1.00
O950   O     0.14632   0.92751   0.77013   0.00000  Uiso   1.00
O951   O     0.07412   0.79958   0.73413   0.00000  Uiso   1.00
O952   O     0.26693   0.85939   0.71360   0.00000  Uiso   1.00
O953   O     0.07071   0.85544   0.78213   0.00000  Uiso   1.00
O954   O     0.25491   0.81892   0.77013   0.00000  Uiso   1.00
O955   O     0.13760   0.73610   0.73413   0.00000  Uiso   1.00
O956   O     0.20345   0.92286   0.71360   0.00000  Uiso   1.00
Zn957  Zn    0.19338   0.80661   0.78734   0.00000  Uiso   1.00
Zn958  Zn    0.13379   0.79124   0.71875   0.00000  Uiso   1.00
Zn959  Zn    0.21056   0.86442   0.70657   0.00000  Uiso   1.00
Zn960  Zn    0.12893   0.87106   0.78733   0.00000  Uiso   1.00
C961   C     0.38626   0.82663   0.75989   0.00000  Uiso   1.00
C962   C     0.49926   0.82115   0.56008   0.00000  Uiso   1.00
C963   C     0.56848   0.79982   0.55608   0.00000  Uiso   1.00
C964   C     0.61414   0.84039   0.73996   0.00000  Uiso   1.00
C965   C     0.47097   0.85565   0.92019   0.00000  Uiso   1.00
C966   C     0.66000   0.84228   0.73542   0.00000  Uiso   1.00
C967   C     0.34104   0.82443   0.76460   0.00000  Uiso   1.00
C968   C     0.51349   0.98916   0.73675   0.00000  Uiso   1.00
C969   C     0.48515   0.67883   0.76440   0.00000  Uiso   1.00
C970   C     0.48982   0.72267   0.75999   0.00000  Uiso   1.00
C971   C     0.50987   0.94460   0.74022   0.00000  Uiso   1.00
C972   C     0.41173   0.85240   0.98654   0.00000  Uiso   1.00
C973   C     0.51896   0.81499   0.62942   0.00000  Uiso   1.00
C974   C     0.48241   0.85184   0.87084   0.00000  Uiso   1.00
C975   C     0.58113   0.80477   0.51043   0.00000  Uiso   1.00
C976   C     0.52796   0.80915   0.58102   0.00000  Uiso   1.00
C977   C     0.42857   0.86152   0.94229   0.00000  Uiso   1.00
C978   C     0.40270   0.77862   0.54419   0.00000  Uiso   1.00
C979   C     0.38142   0.76139   0.58953   0.00000  Uiso   1.00
C980   C     0.43666   0.83670   0.50966   0.00000  Uiso   1.00
C981   C     0.48173   0.83591   0.99024   0.00000  Uiso   1.00
C982   C     0.49884   0.84618   0.94477   0.00000  Uiso   1.00
C983   C     0.51034   0.82433   0.51339   0.00000  Uiso   1.00
C984   C     0.55320   0.81864   0.98939   0.00000  Uiso   1.00
C985   C     0.56918   0.83026   0.94574   0.00000  Uiso   1.00
C986   C     0.54335   0.84650   0.92482   0.00000  Uiso   1.00
F987   F     0.59688   0.78901   0.57655   0.00000  Uiso   1.00
F988   F     0.64766   0.80543   0.80044   0.00000  Uiso   1.00
F989   F     0.45158   0.99580   0.79686   0.00000  Uiso   1.00
F990   F     0.36954   0.85521   0.50605   0.00000  Uiso   1.00
F991   F     0.56297   0.86463   0.88597   0.00000  Uiso   1.00
F992   F     0.35475   0.86224   0.70100   0.00000  Uiso   1.00
H993   H     0.53977   0.67023   0.71118   0.00000  Uiso   1.00
H994   H     0.40445   0.76612   0.61078   0.00000  Uiso   1.00
H995   H     0.60275   0.82920   0.92858   0.00000  Uiso   1.00
H996   H     0.61357   0.79982   0.99196   0.00000  Uiso   1.00
H997   H     0.47071   0.83216   0.58184   0.00000  Uiso   1.00
H998   H     0.40712   0.86978   0.92423   0.00000  Uiso   1.00
H999   H     0.43075   0.76148   0.52772   0.00000  Uiso   1.00
H1000  H     0.37907   0.77300   0.52348   0.00000  Uiso   1.00
H1001  H     0.35294   0.77748   0.60666   0.00000  Uiso   1.00
H1002  H     0.37099   0.72757   0.58494   0.00000  Uiso   1.00
O1003  O     0.50000   0.83333   0.75000   0.00000  Uiso   1.00
O1004  O     0.48784   0.79304   0.65458   0.00000  Uiso   1.00
O1005  O     0.46274   0.87058   0.84968   0.00000  Uiso   1.00
O1006  O     0.54157   0.84425   0.64606   0.00000  Uiso   1.00
O1007  O     0.50785   0.82546   0.84968   0.00000  Uiso   1.00
O1008  O     0.41561   0.82161   0.55069   0.00000  Uiso   1.00
O1009  O     0.51264   0.74686   0.78213   0.00000  Uiso   1.00
O1010  O     0.47965   0.92751   0.77013   0.00000  Uiso   1.00
O1011  O     0.40745   0.79958   0.73413   0.00000  Uiso   1.00
O1012  O     0.60026   0.85939   0.71360   0.00000  Uiso   1.00
O1013  O     0.40405   0.85544   0.78213   0.00000  Uiso   1.00
O1014  O     0.58824   0.81892   0.77013   0.00000  Uiso   1.00
O1015  O     0.47093   0.73610   0.73413   0.00000  Uiso   1.00
O1016  O     0.53678   0.92286   0.71360   0.00000  Uiso   1.00
Zn1017 Zn    0.52672   0.80661   0.78734   0.00000  Uiso   1.00
Zn1018 Zn    0.46713   0.79124   0.71875   0.00000  Uiso   1.00
Zn1019 Zn    0.54389   0.86442   0.70657   0.00000  Uiso   1.00
Zn1020 Zn    0.46226   0.87106   0.78733   0.00000  Uiso   1.00
C1021  C     0.71960   0.82663   0.75989   0.00000  Uiso   1.00
C1022  C     0.83259   0.82115   0.56008   0.00000  Uiso   1.00
C1023  C     0.90182   0.79982   0.55608   0.00000  Uiso   1.00
C1024  C     0.94747   0.84039   0.73996   0.00000  Uiso   1.00
C1025  C     0.80430   0.85565   0.92019   0.00000  Uiso   1.00
C1026  C     0.99334   0.84228   0.73542   0.00000  Uiso   1.00
C1027  C     0.67438   0.82443   0.76460   0.00000  Uiso   1.00
C1028  C     0.84682   0.98916   0.73675   0.00000  Uiso   1.00
C1029  C     0.81848   0.67883   0.76440   0.00000  Uiso   1.00
C1030  C     0.82316   0.72267   0.75999   0.00000  Uiso   1.00
C1031  C     0.84321   0.94460   0.74022   0.00000  Uiso   1.00
C1032  C     0.74507   0.85240   0.98654   0.00000  Uiso   1.00
C1033  C     0.85229   0.81499   0.62942   0.00000  Uiso   1.00
C1034  C     0.81574   0.85184   0.87084   0.00000  Uiso   1.00
C1035  C     0.91447   0.80477   0.51043   0.00000  Uiso   1.00
C1036  C     0.86129   0.80915   0.58102   0.00000  Uiso   1.00
C1037  C     0.76190   0.86152   0.94229   0.00000  Uiso   1.00
C1038  C     0.73603   0.77862   0.54419   0.00000  Uiso   1.00
C1039  C     0.71475   0.76139   0.58953   0.00000  Uiso   1.00
C1040  C     0.76999   0.83670   0.50966   0.00000  Uiso   1.00
C1041  C     0.81507   0.83591   0.99024   0.00000  Uiso   1.00
C1042  C     0.83218   0.84618   0.94477   0.00000  Uiso   1.00
C1043  C     0.84367   0.82433   0.51339   0.00000  Uiso   1.00
C1044  C     0.88653   0.81864   0.98939   0.00000  Uiso   1.00
C1045  C     0.90251   0.83026   0.94574   0.00000  Uiso   1.00
C1046  C     0.87668   0.84650   0.92482   0.00000  Uiso   1.00
F1047  F     0.93021   0.78901   0.57655   0.00000  Uiso   1.00
F1048  F     0.98100   0.80543   0.80044   0.00000  Uiso   1.00
F1049  F     0.78492   0.99580   0.79686   0.00000  Uiso   1.00
F1050  F     0.70288   0.85521   0.50605   0.00000  Uiso   1.00
F1051  F     0.89630   0.86463   0.88597   0.00000  Uiso   1.00
F1052  F     0.68808   0.86224   0.70100   0.00000  Uiso   1.00
H1053  H     0.87310   0.67023   0.71118   0.00000  Uiso   1.00
H1054  H     0.73778   0.76612   0.61078   0.00000  Uiso   1.00
H1055  H     0.93609   0.82920   0.92858   0.00000  Uiso   1.00
H1056  H     0.94690   0.79982   0.99196   0.00000  Uiso   1.00
H1057  H     0.80405   0.83216   0.58184   0.00000  Uiso   1.00
H1058  H     0.74045   0.86978   0.92423   0.00000  Uiso   1.00
H1059  H     0.76408   0.76148   0.52772   0.00000  Uiso   1.00
H1060  H     0.71241   0.77300   0.52348   0.00000  Uiso   1.00
H1061  H     0.68627   0.77748   0.60666   0.00000  Uiso   1.00
H1062  H     0.70432   0.72757   0.58494   0.00000  Uiso   1.00
O1063  O     0.83333   0.83333   0.75000   0.00000  Uiso   1.00
O1064  O     0.82118   0.79304   0.65458   0.00000  Uiso   1.00
O1065  O     0.79607   0.87058   0.84968   0.00000  Uiso   1.00
O1066  O     0.87491   0.84425   0.64606   0.00000  Uiso   1.00
O1067  O     0.84118   0.82546   0.84968   0.00000  Uiso   1.00
O1068  O     0.74894   0.82161   0.55069   0.00000  Uiso   1.00
O1069  O     0.84597   0.74686   0.78213   0.00000  Uiso   1.00
O1070  O     0.81298   0.92751   0.77013   0.00000  Uiso   1.00
O1071  O     0.74078   0.79958   0.73413   0.00000  Uiso   1.00
O1072  O     0.93360   0.85939   0.71360   0.00000  Uiso   1.00
O1073  O     0.73738   0.85544   0.78213   0.00000  Uiso   1.00
O1074  O     0.92158   0.81892   0.77013   0.00000  Uiso   1.00
O1075  O     0.80426   0.73610   0.73413   0.00000  Uiso   1.00
O1076  O     0.87012   0.92286   0.71360   0.00000  Uiso   1.00
Zn1077 Zn    0.86005   0.80661   0.78734   0.00000  Uiso   1.00
Zn1078 Zn    0.80046   0.79124   0.71875   0.00000  Uiso   1.00
Zn1079 Zn    0.87723   0.86442   0.70657   0.00000  Uiso   1.00
Zn1080 Zn    0.79560   0.87106   0.78733   0.00000  Uiso   1.00
loop_
_geom_bond_atom_site_label_1
_geom_bond_atom_site_label_2
_geom_bond_distance
_geom_bond_site_symmetry_2
_ccdc_geom_bond_type
C1     O51     1.272   .     A
C1     O53     1.270   .     A
C1     C7      1.434   .     S
C2     C16     1.393   .     A
C2     H37     1.075   .     S
C2     C23     1.409   .     A
C3     F27     1.358   .     S
C3     C15     1.387   .     A
C3     C16     1.397   .     A
C4     O52     1.283   .     A
C4     C6      1.456   .     S
C4     O54     1.275   .     A
C5     C14     1.473   .     S
C5     C17     1.398   .     A
C5     C22     1.418   .     A
C6     C67     1.342   .     S
C6     F92     1.362   .     S
C7     C126    1.342   1_455 S
C7     F148    1.361   1_455 S
C8     C11     1.452   .     S
C8     C189    1.337   .     S
C8     H213    1.088   .     S
C9     C10     1.431   .     S
C9     C368    1.337   1_545 S
C9     F389    1.361   1_545 S
C10    O49     1.279   .     A
C10    O55     1.279   .     A
C11    O50     1.267   .     A
C11    O56     1.272   .     A
C12    C17     1.384   .     A
C12    C560    1.397   .     S
C12    F570    1.357   .     S
C13    O46     1.271   .     A
C13    C16     1.449   .     S
C13    O44     1.279   .     A
C14    O45     1.281   .     A
C14    O47     1.284   .     A
C15    C564    1.401   1_554 S
C15    H576    1.084   1_554 S
C17    H38     1.084   .     S
C18    H39     1.115   .     S
C18    C19     1.521   .     S
C18    H40     1.114   .     S
C18    O48     1.412   .     S
C19    H42     1.110   .     S
C19    H41     1.111   .     S
C19    H34     1.111   .     S
C20    O48     1.380   .     S
C20    C552    1.397   1_554 S
C20    C561    1.433   1_554 S
C21    C22     1.429   .     A
C21    C560    1.433   .     S
C21    C563    1.432   .     S
C22    C26     1.415   .     A
C23    C561    1.432   1_554 S
C23    C564    1.424   1_554 S
C24    C25     1.388   .     A
C24    C555    1.401   .     S
C24    C563    1.424   .     S
C25    H35     1.085   .     S
C25    C26     1.382   .     A
C26    F31     1.358   .     S
F28    C67     1.361   .     S
F29    C189    1.361   .     S
F30    C552    1.357   1_554 S
F32    C126    1.362   1_455 S
H33    C368    1.088   1_545 S
H36    C555    1.084   .     S
O43    Zn59    1.932   .     S
O43    Zn60    1.931   .     S
O43    Zn57    1.960   .     S
O43    Zn58    1.954   .     S
O44    Zn58    1.930   .     S
O45    Zn60    1.943   .     S
O46    Zn59    1.941   .     S
O47    Zn57    1.928   .     S
O49    Zn57    1.933   .     S
O50    Zn60    1.933   .     S
O51    Zn58    1.926   .     S
O52    Zn59    1.940   .     S
O53    Zn60    1.938   .     S
O54    Zn57    1.925   .     S
O55    Zn58    1.936   .     S
O56    Zn59    1.932   .     S
C61    O111    1.272   .     A
C61    O113    1.270   .     A
C61    C67     1.434   .     S
C62    C76     1.393   .     A
C62    H97     1.075   .     S
C62    C83     1.409   .     A
C63    F87     1.358   .     S
C63    C75     1.387   .     A
C63    C76     1.397   .     A
C64    O112    1.283   .     A
C64    C66     1.456   .     S
C64    O114    1.275   .     A
C65    C74     1.473   .     S
C65    C77     1.398   .     A
C65    C82     1.418   .     A
C66    C127    1.342   .     S
C66    F152    1.362   .     S
C68    C71     1.452   .     S
C68    C249    1.337   .     S
C68    H273    1.088   .     S
C69    C70     1.431   .     S
C69    C428    1.337   1_545 S
C69    F449    1.361   1_545 S
C70    O109    1.279   .     A
C70    O115    1.279   .     A
C71    O110    1.267   .     A
C71    O116    1.272   .     A
C72    C77     1.384   .     A
C72    C620    1.397   .     S
C72    F630    1.357   .     S
C73    O106    1.271   .     A
C73    C76     1.449   .     S
C73    O104    1.279   .     A
C74    O105    1.281   .     A
C74    O107    1.284   .     A
C75    C624    1.401   1_554 S
C75    H636    1.084   1_554 S
C77    H98     1.084   .     S
C78    H99     1.115   .     S
C78    C79     1.521   .     S
C78    H100    1.114   .     S
C78    O108    1.412   .     S
C79    H102    1.110   .     S
C79    H101    1.111   .     S
C79    H94     1.111   .     S
C80    O108    1.380   .     S
C80    C612    1.397   1_554 S
C80    C621    1.433   1_554 S
C81    C82     1.429   .     A
C81    C620    1.433   .     S
C81    C623    1.432   .     S
C82    C86     1.415   .     A
C83    C621    1.432   1_554 S
C83    C624    1.424   1_554 S
C84    C85     1.388   .     A
C84    C615    1.401   .     S
C84    C623    1.424   .     S
C85    H95     1.085   .     S
C85    C86     1.382   .     A
C86    F91     1.358   .     S
F88    C127    1.361   .     S
F89    C249    1.361   .     S
F90    C612    1.357   1_554 S
H93    C428    1.088   1_545 S
H96    C615    1.084   .     S
O103   Zn119   1.932   .     S
O103   Zn120   1.931   .     S
O103   Zn117   1.960   .     S
O103   Zn118   1.954   .     S
O104   Zn118   1.930   .     S
O105   Zn120   1.943   .     S
O106   Zn119   1.941   .     S
O107   Zn117   1.928   .     S
O109   Zn117   1.933   .     S
O110   Zn120   1.933   .     S
O111   Zn118   1.926   .     S
O112   Zn119   1.940   .     S
O113   Zn120   1.938   .     S
O114   Zn117   1.925   .     S
O115   Zn118   1.936   .     S
O116   Zn119   1.932   .     S
C121   O171    1.272   .     A
C121   O173    1.270   .     A
C121   C127    1.434   .     S
C122   C136    1.393   .     A
C122   H157    1.075   .     S
C122   C143    1.409   .     A
C123   F147    1.358   .     S
C123   C135    1.387   .     A
C123   C136    1.397   .     A
C124   O172    1.283   .     A
C124   C126    1.456   .     S
C124   O174    1.275   .     A
C125   C134    1.473   .     S
C125   C137    1.398   .     A
C125   C142    1.418   .     A
C126   C7      1.342   1_655 S
C126   F32     1.362   1_655 S
C128   C131    1.452   .     S
C128   C309    1.337   .     S
C128   H333    1.088   .     S
C129   C130    1.431   .     S
C129   C488    1.337   1_545 S
C129   F509    1.361   1_545 S
C130   O169    1.279   .     A
C130   O175    1.279   .     A
C131   O170    1.267   .     A
C131   O176    1.272   .     A
C132   C137    1.384   .     A
C132   C680    1.397   .     S
C132   F690    1.357   .     S
C133   O166    1.271   .     A
C133   C136    1.449   .     S
C133   O164    1.279   .     A
C134   O165    1.281   .     A
C134   O167    1.284   .     A
C135   C684    1.401   1_554 S
C135   H696    1.084   1_554 S
C137   H158    1.084   .     S
C138   H159    1.115   .     S
C138   C139    1.521   .     S
C138   H160    1.114   .     S
C138   O168    1.412   .     S
C139   H162    1.110   .     S
C139   H161    1.111   .     S
C139   H154    1.111   .     S
C140   O168    1.380   .     S
C140   C672    1.397   1_554 S
C140   C681    1.433   1_554 S
C141   C142    1.429   .     A
C141   C680    1.433   .     S
C141   C683    1.432   .     S
C142   C146    1.415   .     A
C143   C681    1.432   1_554 S
C143   C684    1.424   1_554 S
C144   C145    1.388   .     A
C144   C675    1.401   .     S
C144   C683    1.424   .     S
C145   H155    1.085   .     S
C145   C146    1.382   .     A
C146   F151    1.358   .     S
F148   C7      1.361   1_655 S
F149   C309    1.361   .     S
F150   C672    1.357   1_554 S
H153   C488    1.088   1_545 S
H156   C675    1.084   .     S
O163   Zn179   1.932   .     S
O163   Zn180   1.931   .     S
O163   Zn177   1.960   .     S
O163   Zn178   1.954   .     S
O164   Zn178   1.930   .     S
O165   Zn180   1.943   .     S
O166   Zn179   1.941   .     S
O167   Zn177   1.928   .     S
O169   Zn177   1.933   .     S
O170   Zn180   1.933   .     S
O171   Zn178   1.926   .     S
O172   Zn179   1.940   .     S
O173   Zn180   1.938   .     S
O174   Zn177   1.925   .     S
O175   Zn178   1.936   .     S
O176   Zn179   1.932   .     S
C181   O231    1.272   .     A
C181   O233    1.270   .     A
C181   C187    1.434   .     S
C182   C196    1.393   .     A
C182   H217    1.075   .     S
C182   C203    1.409   .     A
C183   F207    1.358   .     S
C183   C195    1.387   .     A
C183   C196    1.397   .     A
C184   O232    1.283   .     A
C184   C186    1.456   .     S
C184   O234    1.275   .     A
C185   C194    1.473   .     S
C185   C197    1.398   .     A
C185   C202    1.418   .     A
C186   C247    1.342   .     S
C186   F272    1.362   .     S
C187   C306    1.342   1_455 S
C187   F328    1.361   1_455 S
C188   C191    1.452   .     S
C188   C369    1.337   .     S
C188   H393    1.088   .     S
C189   C190    1.431   .     S
C190   O229    1.279   .     A
C190   O235    1.279   .     A
C191   O230    1.267   .     A
C191   O236    1.272   .     A
C192   C197    1.384   .     A
C192   C740    1.397   .     S
C192   F750    1.357   .     S
C193   O226    1.271   .     A
C193   C196    1.449   .     S
C193   O224    1.279   .     A
C194   O225    1.281   .     A
C194   O227    1.284   .     A
C195   C744    1.401   1_554 S
C195   H756    1.084   1_554 S
C197   H218    1.084   .     S
C198   H219    1.115   .     S
C198   C199    1.521   .     S
C198   H220    1.114   .     S
C198   O228    1.412   .     S
C199   H222    1.110   .     S
C199   H221    1.111   .     S
C199   H214    1.111   .     S
C200   O228    1.380   .     S
C200   C732    1.397   1_554 S
C200   C741    1.433   1_554 S
C201   C202    1.429   .     A
C201   C740    1.433   .     S
C201   C743    1.432   .     S
C202   C206    1.415   .     A
C203   C741    1.432   1_554 S
C203   C744    1.424   1_554 S
C204   C205    1.388   .     A
C204   C735    1.401   .     S
C204   C743    1.424   .     S
C205   H215    1.085   .     S
C205   C206    1.382   .     A
C206   F211    1.358   .     S
F208   C247    1.361   .     S
F209   C369    1.361   .     S
F210   C732    1.357   1_554 S
F212   C306    1.362   1_455 S
H216   C735    1.084   .     S
O223   Zn239   1.932   .     S
O223   Zn240   1.931   .     S
O223   Zn237   1.960   .     S
O223   Zn238   1.954   .     S
O224   Zn238   1.930   .     S
O225   Zn240   1.943   .     S
O226   Zn239   1.941   .     S
O227   Zn237   1.928   .     S
O229   Zn237   1.933   .     S
O230   Zn240   1.933   .     S
O231   Zn238   1.926   .     S
O232   Zn239   1.940   .     S
O233   Zn240   1.938   .     S
O234   Zn237   1.925   .     S
O235   Zn238   1.936   .     S
O236   Zn239   1.932   .     S
C241   O291    1.272   .     A
C241   O293    1.270   .     A
C241   C247    1.434   .     S
C242   C256    1.393   .     A
C242   H277    1.075   .     S
C242   C263    1.409   .     A
C243   F267    1.358   .     S
C243   C255    1.387   .     A
C243   C256    1.397   .     A
C244   O292    1.283   .     A
C244   C246    1.456   .     S
C244   O294    1.275   .     A
C245   C254    1.473   .     S
C245   C257    1.398   .     A
C245   C262    1.418   .     A
C246   C307    1.342   .     S
C246   F332    1.362   .     S
C248   C251    1.452   .     S
C248   C429    1.337   .     S
C248   H453    1.088   .     S
C249   C250    1.431   .     S
C250   O289    1.279   .     A
C250   O295    1.279   .     A
C251   O290    1.267   .     A
C251   O296    1.272   .     A
C252   C257    1.384   .     A
C252   C800    1.397   .     S
C252   F810    1.357   .     S
C253   O286    1.271   .     A
C253   C256    1.449   .     S
C253   O284    1.279   .     A
C254   O285    1.281   .     A
C254   O287    1.284   .     A
C255   C804    1.401   1_554 S
C255   H816    1.084   1_554 S
C257   H278    1.084   .     S
C258   H279    1.115   .     S
C258   C259    1.521   .     S
C258   H280    1.114   .     S
C258   O288    1.412   .     S
C259   H282    1.110   .     S
C259   H281    1.111   .     S
C259   H274    1.111   .     S
C260   O288    1.380   .     S
C260   C792    1.397   1_554 S
C260   C801    1.433   1_554 S
C261   C262    1.429   .     A
C261   C800    1.433   .     S
C261   C803    1.432   .     S
C262   C266    1.415   .     A
C263   C801    1.432   1_554 S
C263   C804    1.424   1_554 S
C264   C265    1.388   .     A
C264   C795    1.401   .     S
C264   C803    1.424   .     S
C265   H275    1.085   .     S
C265   C266    1.382   .     A
C266   F271    1.358   .     S
F268   C307    1.361   .     S
F269   C429    1.361   .     S
F270   C792    1.357   1_554 S
H276   C795    1.084   .     S
O283   Zn299   1.932   .     S
O283   Zn300   1.931   .     S
O283   Zn297   1.960   .     S
O283   Zn298   1.954   .     S
O284   Zn298   1.930   .     S
O285   Zn300   1.943   .     S
O286   Zn299   1.941   .     S
O287   Zn297   1.928   .     S
O289   Zn297   1.933   .     S
O290   Zn300   1.933   .     S
O291   Zn298   1.926   .     S
O292   Zn299   1.940   .     S
O293   Zn300   1.938   .     S
O294   Zn297   1.925   .     S
O295   Zn298   1.936   .     S
O296   Zn299   1.932   .     S
C301   O351    1.272   .     A
C301   O353    1.270   .     A
C301   C307    1.434   .     S
C302   C316    1.393   .     A
C302   H337    1.075   .     S
C302   C323    1.409   .     A
C303   F327    1.358   .     S
C303   C315    1.387   .     A
C303   C316    1.397   .     A
C304   O352    1.283   .     A
C304   C306    1.456   .     S
C304   O354    1.275   .     A
C305   C314    1.473   .     S
C305   C317    1.398   .     A
C305   C322    1.418   .     A
C306   C187    1.342   1_655 S
C306   F212    1.362   1_655 S
C308   C311    1.452   .     S
C308   C489    1.337   .     S
C308   H513    1.088   .     S
C309   C310    1.431   .     S
C310   O349    1.279   .     A
C310   O355    1.279   .     A
C311   O350    1.267   .     A
C311   O356    1.272   .     A
C312   C317    1.384   .     A
C312   C860    1.397   .     S
C312   F870    1.357   .     S
C313   O346    1.271   .     A
C313   C316    1.449   .     S
C313   O344    1.279   .     A
C314   O345    1.281   .     A
C314   O347    1.284   .     A
C315   C864    1.401   1_554 S
C315   H876    1.084   1_554 S
C317   H338    1.084   .     S
C318   H339    1.115   .     S
C318   C319    1.521   .     S
C318   H340    1.114   .     S
C318   O348    1.412   .     S
C319   H342    1.110   .     S
C319   H341    1.111   .     S
C319   H334    1.111   .     S
C320   O348    1.380   .     S
C320   C852    1.397   1_554 S
C320   C861    1.433   1_554 S
C321   C322    1.429   .     A
C321   C860    1.433   .     S
C321   C863    1.432   .     S
C322   C326    1.415   .     A
C323   C861    1.432   1_554 S
C323   C864    1.424   1_554 S
C324   C325    1.388   .     A
C324   C855    1.401   .     S
C324   C863    1.424   .     S
C325   H335    1.085   .     S
C325   C326    1.382   .     A
C326   F331    1.358   .     S
F328   C187    1.361   1_655 S
F329   C489    1.361   .     S
F330   C852    1.357   1_554 S
H336   C855    1.084   .     S
O343   Zn359   1.932   .     S
O343   Zn360   1.931   .     S
O343   Zn357   1.960   .     S
O343   Zn358   1.954   .     S
O344   Zn358   1.930   .     S
O345   Zn360   1.943   .     S
O346   Zn359   1.941   .     S
O347   Zn357   1.928   .     S
O349   Zn357   1.933   .     S
O350   Zn360   1.933   .     S
O351   Zn358   1.926   .     S
O352   Zn359   1.940   .     S
O353   Zn360   1.938   .     S
O354   Zn357   1.925   .     S
O355   Zn358   1.936   .     S
O356   Zn359   1.932   .     S
C361   O411    1.272   .     A
C361   O413    1.270   .     A
C361   C367    1.434   .     S
C362   C376    1.393   .     A
C362   H397    1.075   .     S
C362   C383    1.409   .     A
C363   F387    1.358   .     S
C363   C375    1.387   .     A
C363   C376    1.397   .     A
C364   O412    1.283   .     A
C364   C366    1.456   .     S
C364   O414    1.275   .     A
C365   C374    1.473   .     S
C365   C377    1.398   .     A
C365   C382    1.418   .     A
C366   C427    1.342   .     S
C366   F452    1.362   .     S
C367   C486    1.342   1_455 S
C367   F508    1.361   1_455 S
C368   C371    1.452   .     S
C368   C9      1.337   1_565 S
C368   H33     1.088   1_565 S
C369   C370    1.431   .     S
C370   O409    1.279   .     A
C370   O415    1.279   .     A
C371   O410    1.267   .     A
C371   O416    1.272   .     A
C372   C377    1.384   .     A
C372   C920    1.397   .     S
C372   F930    1.357   .     S
C373   O406    1.271   .     A
C373   C376    1.449   .     S
C373   O404    1.279   .     A
C374   O405    1.281   .     A
C374   O407    1.284   .     A
C375   C924    1.401   1_554 S
C375   H936    1.084   1_554 S
C377   H398    1.084   .     S
C378   H399    1.115   .     S
C378   C379    1.521   .     S
C378   H400    1.114   .     S
C378   O408    1.412   .     S
C379   H402    1.110   .     S
C379   H401    1.111   .     S
C379   H394    1.111   .     S
C380   O408    1.380   .     S
C380   C912    1.397   1_554 S
C380   C921    1.433   1_554 S
C381   C382    1.429   .     A
C381   C920    1.433   .     S
C381   C923    1.432   .     S
C382   C386    1.415   .     A
C383   C921    1.432   1_554 S
C383   C924    1.424   1_554 S
C384   C385    1.388   .     A
C384   C915    1.401   .     S
C384   C923    1.424   .     S
C385   H395    1.085   .     S
C385   C386    1.382   .     A
C386   F391    1.358   .     S
F388   C427    1.361   .     S
F389   C9      1.361   1_565 S
F390   C912    1.357   1_554 S
F392   C486    1.362   1_455 S
H396   C915    1.084   .     S
O403   Zn419   1.932   .     S
O403   Zn420   1.931   .     S
O403   Zn417   1.960   .     S
O403   Zn418   1.954   .     S
O404   Zn418   1.930   .     S
O405   Zn420   1.943   .     S
O406   Zn419   1.941   .     S
O407   Zn417   1.928   .     S
O409   Zn417   1.933   .     S
O410   Zn420   1.933   .     S
O411   Zn418   1.926   .     S
O412   Zn419   1.940   .     S
O413   Zn420   1.938   .     S
O414   Zn417   1.925   .     S
O415   Zn418   1.936   .     S
O416   Zn419   1.932   .     S
C421   O471    1.272   .     A
C421   O473    1.270   .     A
C421   C427    1.434   .     S
C422   C436    1.393   .     A
C422   H457    1.075   .     S
C422   C443    1.409   .     A
C423   F447    1.358   .     S
C423   C435    1.387   .     A
C423   C436    1.397   .     A
C424   O472    1.283   .     A
C424   C426    1.456   .     S
C424   O474    1.275   .     A
C425   C434    1.473   .     S
C425   C437    1.398   .     A
C425   C442    1.418   .     A
C426   C487    1.342   .     S
C426   F512    1.362   .     S
C428   C431    1.452   .     S
C428   C69     1.337   1_565 S
C428   H93     1.088   1_565 S
C429   C430    1.431   .     S
C430   O469    1.279   .     A
C430   O475    1.279   .     A
C431   O470    1.267   .     A
C431   O476    1.272   .     A
C432   C437    1.384   .     A
C432   C980    1.397   .     S
C432   F990    1.357   .     S
C433   O466    1.271   .     A
C433   C436    1.449   .     S
C433   O464    1.279   .     A
C434   O465    1.281   .     A
C434   O467    1.284   .     A
C435   C984    1.401   1_554 S
C435   H996    1.084   1_554 S
C437   H458    1.084   .     S
C438   H459    1.115   .     S
C438   C439    1.521   .     S
C438   H460    1.114   .     S
C438   O468    1.412   .     S
C439   H462    1.110   .     S
C439   H461    1.111   .     S
C439   H454    1.111   .     S
C440   O468    1.380   .     S
C440   C972    1.397   1_554 S
C440   C981    1.433   1_554 S
C441   C442    1.429   .     A
C441   C980    1.433   .     S
C441   C983    1.432   .     S
C442   C446    1.415   .     A
C443   C981    1.432   1_554 S
C443   C984    1.424   1_554 S
C444   C445    1.388   .     A
C444   C975    1.401   .     S
C444   C983    1.424   .     S
C445   H455    1.085   .     S
C445   C446    1.382   .     A
C446   F451    1.358   .     S
F448   C487    1.361   .     S
F449   C69     1.361   1_565 S
F450   C972    1.357   1_554 S
H456   C975    1.084   .     S
O463   Zn479   1.932   .     S
O463   Zn480   1.931   .     S
O463   Zn477   1.960   .     S
O463   Zn478   1.954   .     S
O464   Zn478   1.930   .     S
O465   Zn480   1.943   .     S
O466   Zn479   1.941   .     S
O467   Zn477   1.928   .     S
O469   Zn477   1.933   .     S
O470   Zn480   1.933   .     S
O471   Zn478   1.926   .     S
O472   Zn479   1.940   .     S
O473   Zn480   1.938   .     S
O474   Zn477   1.925   .     S
O475   Zn478   1.936   .     S
O476   Zn479   1.932   .     S
C481   O531    1.272   .     A
C481   O533    1.270   .     A
C481   C487    1.434   .     S
C482   C496    1.393   .     A
C482   H517    1.075   .     S
C482   C503    1.409   .     A
C483   F507    1.358   .     S
C483   C495    1.387   .     A
C483   C496    1.397   .     A
C484   O532    1.283   .     A
C484   C486    1.456   .     S
C484   O534    1.275   .     A
C485   C494    1.473   .     S
C485   C497    1.398   .     A
C485   C502    1.418   .     A
C486   C367    1.342   1_655 S
C486   F392    1.362   1_655 S
C488   C491    1.452   .     S
C488   C129    1.337   1_565 S
C488   H153    1.088   1_565 S
C489   C490    1.431   .     S
C490   O529    1.279   .     A
C490   O535    1.279   .     A
C491   O530    1.267   .     A
C491   O536    1.272   .     A
C492   C497    1.384   .     A
C492   C1040   1.397   .     S
C492   F1050   1.357   .     S
C493   O526    1.271   .     A
C493   C496    1.449   .     S
C493   O524    1.279   .     A
C494   O525    1.281   .     A
C494   O527    1.284   .     A
C495   C1044   1.401   1_554 S
C495   H1056   1.084   1_554 S
C497   H518    1.084   .     S
C498   H519    1.115   .     S
C498   C499    1.521   .     S
C498   H520    1.114   .     S
C498   O528    1.412   .     S
C499   H522    1.110   .     S
C499   H521    1.111   .     S
C499   H514    1.111   .     S
C500   O528    1.380   .     S
C500   C1032   1.397   1_554 S
C500   C1041   1.433   1_554 S
C501   C502    1.429   .     A
C501   C1040   1.433   .     S
C501   C1043   1.432   .     S
C502   C506    1.415   .     A
C503   C1041   1.432   1_554 S
C503   C1044   1.424   1_554 S
C504   C505    1.388   .     A
C504   C1035   1.401   .     S
C504   C1043   1.424   .     S
C505   H515    1.085   .     S
C505   C506    1.382   .     A
C506   F511    1.358   .     S
F508   C367    1.361   1_655 S
F509   C129    1.361   1_565 S
F510   C1032   1.357   1_554 S
H516   C1035   1.084   .     S
O523   Zn539   1.932   .     S
O523   Zn540   1.931   .     S
O523   Zn537   1.960   .     S
O523   Zn538   1.954   .     S
O524   Zn538   1.930   .     S
O525   Zn540   1.943   .     S
O526   Zn539   1.941   .     S
O527   Zn537   1.928   .     S
O529   Zn537   1.933   .     S
O530   Zn540   1.933   .     S
O531   Zn538   1.926   .     S
O532   Zn539   1.940   .     S
O533   Zn540   1.938   .     S
O534   Zn537   1.925   .     S
O535   Zn538   1.936   .     S
O536   Zn539   1.932   .     S
C541   O591    1.272   .     A
C541   O593    1.270   .     A
C541   C547    1.434   .     S
C542   C556    1.393   .     A
C542   H577    1.075   .     S
C542   C563    1.409   .     A
C543   F567    1.358   .     S
C543   C555    1.387   .     A
C543   C556    1.397   .     A
C544   O592    1.283   .     A
C544   C546    1.456   .     S
C544   O594    1.275   .     A
C545   C554    1.473   .     S
C545   C557    1.398   .     A
C545   C562    1.418   .     A
C546   C607    1.342   .     S
C546   F632    1.362   .     S
C547   C666    1.342   1_455 S
C547   F688    1.361   1_455 S
C548   C551    1.452   .     S
C548   C729    1.337   .     S
C548   H753    1.088   .     S
C549   C550    1.431   .     S
C549   C908    1.337   1_545 S
C549   F929    1.361   1_545 S
C550   O589    1.279   .     A
C550   O595    1.279   .     A
C551   O590    1.267   .     A
C551   O596    1.272   .     A
C552   C557    1.384   .     A
C552   C20     1.397   1_556 S
C552   F30     1.357   1_556 S
C553   O586    1.271   .     A
C553   C556    1.449   .     S
C553   O584    1.279   .     A
C554   O585    1.281   .     A
C554   O587    1.284   .     A
C557   H578    1.084   .     S
C558   H579    1.115   .     S
C558   C559    1.521   .     S
C558   H580    1.114   .     S
C558   O588    1.412   .     S
C559   H582    1.110   .     S
C559   H581    1.111   .     S
C559   H574    1.111   .     S
C560   O588    1.380   .     S
C561   C562    1.429   .     A
C561   C20     1.433   1_556 S
C561   C23     1.432   1_556 S
C562   C566    1.415   .     A
C564   C565    1.388   .     A
C564   C15     1.401   1_556 S
C564   C23     1.424   1_556 S
C565   H575    1.085   .     S
C565   C566    1.382   .     A
C566   F571    1.358   .     S
F568   C607    1.361   .     S
F569   C729    1.361   .     S
F572   C666    1.362   1_455 S
H573   C908    1.088   1_545 S
H576   C15     1.084   1_556 S
O583   Zn599   1.932   .     S
O583   Zn600   1.931   .     S
O583   Zn597   1.960   .     S
O583   Zn598   1.954   .     S
O584   Zn598   1.930   .     S
O585   Zn600   1.943   .     S
O586   Zn599   1.941   .     S
O587   Zn597   1.928   .     S
O589   Zn597   1.933   .     S
O590   Zn600   1.933   .     S
O591   Zn598   1.926   .     S
O592   Zn599   1.940   .     S
O593   Zn600   1.938   .     S
O594   Zn597   1.925   .     S
O595   Zn598   1.936   .     S
O596   Zn599   1.932   .     S
C601   O651    1.272   .     A
C601   O653    1.270   .     A
C601   C607    1.434   .     S
C602   C616    1.393   .     A
C602   H637    1.075   .     S
C602   C623    1.409   .     A
C603   F627    1.358   .     S
C603   C615    1.387   .     A
C603   C616    1.397   .     A
C604   O652    1.283   .     A
C604   C606    1.456   .     S
C604   O654    1.275   .     A
C605   C614    1.473   .     S
C605   C617    1.398   .     A
C605   C622    1.418   .     A
C606   C667    1.342   .     S
C606   F692    1.362   .     S
C608   C611    1.452   .     S
C608   C789    1.337   .     S
C608   H813    1.088   .     S
C609   C610    1.431   .     S
C609   C968    1.337   1_545 S
C609   F989    1.361   1_545 S
C610   O649    1.279   .     A
C610   O655    1.279   .     A
C611   O650    1.267   .     A
C611   O656    1.272   .     A
C612   C617    1.384   .     A
C612   C80     1.397   1_556 S
C612   F90     1.357   1_556 S
C613   O646    1.271   .     A
C613   C616    1.449   .     S
C613   O644    1.279   .     A
C614   O645    1.281   .     A
C614   O647    1.284   .     A
C617   H638    1.084   .     S
C618   H639    1.115   .     S
C618   C619    1.521   .     S
C618   H640    1.114   .     S
C618   O648    1.412   .     S
C619   H642    1.110   .     S
C619   H641    1.111   .     S
C619   H634    1.111   .     S
C620   O648    1.380   .     S
C621   C622    1.429   .     A
C621   C80     1.433   1_556 S
C621   C83     1.432   1_556 S
C622   C626    1.415   .     A
C624   C625    1.388   .     A
C624   C75     1.401   1_556 S
C624   C83     1.424   1_556 S
C625   H635    1.085   .     S
C625   C626    1.382   .     A
C626   F631    1.358   .     S
F628   C667    1.361   .     S
F629   C789    1.361   .     S
H633   C968    1.088   1_545 S
H636   C75     1.084   1_556 S
O643   Zn659   1.932   .     S
O643   Zn660   1.931   .     S
O643   Zn657   1.960   .     S
O643   Zn658   1.954   .     S
O644   Zn658   1.930   .     S
O645   Zn660   1.943   .     S
O646   Zn659   1.941   .     S
O647   Zn657   1.928   .     S
O649   Zn657   1.933   .     S
O650   Zn660   1.933   .     S
O651   Zn658   1.926   .     S
O652   Zn659   1.940   .     S
O653   Zn660   1.938   .     S
O654   Zn657   1.925   .     S
O655   Zn658   1.936   .     S
O656   Zn659   1.932   .     S
C661   O711    1.272   .     A
C661   O713    1.270   .     A
C661   C667    1.434   .     S
C662   C676    1.393   .     A
C662   H697    1.075   .     S
C662   C683    1.409   .     A
C663   F687    1.358   .     S
C663   C675    1.387   .     A
C663   C676    1.397   .     A
C664   O712    1.283   .     A
C664   C666    1.456   .     S
C664   O714    1.275   .     A
C665   C674    1.473   .     S
C665   C677    1.398   .     A
C665   C682    1.418   .     A
C666   C547    1.342   1_655 S
C666   F572    1.362   1_655 S
C668   C671    1.452   .     S
C668   C849    1.337   .     S
C668   H873    1.088   .     S
C669   C670    1.431   .     S
C669   C1028   1.337   1_545 S
C669   F1049   1.361   1_545 S
C670   O709    1.279   .     A
C670   O715    1.279   .     A
C671   O710    1.267   .     A
C671   O716    1.272   .     A
C672   C677    1.384   .     A
C672   C140    1.397   1_556 S
C672   F150    1.357   1_556 S
C673   O706    1.271   .     A
C673   C676    1.449   .     S
C673   O704    1.279   .     A
C674   O705    1.281   .     A
C674   O707    1.284   .     A
C677   H698    1.084   .     S
C678   H699    1.115   .     S
C678   C679    1.521   .     S
C678   H700    1.114   .     S
C678   O708    1.412   .     S
C679   H702    1.110   .     S
C679   H701    1.111   .     S
C679   H694    1.111   .     S
C680   O708    1.380   .     S
C681   C682    1.429   .     A
C681   C140    1.433   1_556 S
C681   C143    1.432   1_556 S
C682   C686    1.415   .     A
C684   C685    1.388   .     A
C684   C135    1.401   1_556 S
C684   C143    1.424   1_556 S
C685   H695    1.085   .     S
C685   C686    1.382   .     A
C686   F691    1.358   .     S
F688   C547    1.361   1_655 S
F689   C849    1.361   .     S
H693   C1028   1.088   1_545 S
H696   C135    1.084   1_556 S
O703   Zn719   1.932   .     S
O703   Zn720   1.931   .     S
O703   Zn717   1.960   .     S
O703   Zn718   1.954   .     S
O704   Zn718   1.930   .     S
O705   Zn720   1.943   .     S
O706   Zn719   1.941   .     S
O707   Zn717   1.928   .     S
O709   Zn717   1.933   .     S
O710   Zn720   1.933   .     S
O711   Zn718   1.926   .     S
O712   Zn719   1.940   .     S
O713   Zn720   1.938   .     S
O714   Zn717   1.925   .     S
O715   Zn718   1.936   .     S
O716   Zn719   1.932   .     S
C721   O771    1.272   .     A
C721   O773    1.270   .     A
C721   C727    1.434   .     S
C722   C736    1.393   .     A
C722   H757    1.075   .     S
C722   C743    1.409   .     A
C723   F747    1.358   .     S
C723   C735    1.387   .     A
C723   C736    1.397   .     A
C724   O772    1.283   .     A
C724   C726    1.456   .     S
C724   O774    1.275   .     A
C725   C734    1.473   .     S
C725   C737    1.398   .     A
C725   C742    1.418   .     A
C726   C787    1.342   .     S
C726   F812    1.362   .     S
C727   C846    1.342   1_455 S
C727   F868    1.361   1_455 S
C728   C731    1.452   .     S
C728   C909    1.337   .     S
C728   H933    1.088   .     S
C729   C730    1.431   .     S
C730   O769    1.279   .     A
C730   O775    1.279   .     A
C731   O770    1.267   .     A
C731   O776    1.272   .     A
C732   C737    1.384   .     A
C732   C200    1.397   1_556 S
C732   F210    1.357   1_556 S
C733   O766    1.271   .     A
C733   C736    1.449   .     S
C733   O764    1.279   .     A
C734   O765    1.281   .     A
C734   O767    1.284   .     A
C737   H758    1.084   .     S
C738   H759    1.115   .     S
C738   C739    1.521   .     S
C738   H760    1.114   .     S
C738   O768    1.412   .     S
C739   H762    1.110   .     S
C739   H761    1.111   .     S
C739   H754    1.111   .     S
C740   O768    1.380   .     S
C741   C742    1.429   .     A
C741   C200    1.433   1_556 S
C741   C203    1.432   1_556 S
C742   C746    1.415   .     A
C744   C745    1.388   .     A
C744   C195    1.401   1_556 S
C744   C203    1.424   1_556 S
C745   H755    1.085   .     S
C745   C746    1.382   .     A
C746   F751    1.358   .     S
F748   C787    1.361   .     S
F749   C909    1.361   .     S
F752   C846    1.362   1_455 S
H756   C195    1.084   1_556 S
O763   Zn779   1.932   .     S
O763   Zn780   1.931   .     S
O763   Zn777   1.960   .     S
O763   Zn778   1.954   .     S
O764   Zn778   1.930   .     S
O765   Zn780   1.943   .     S
O766   Zn779   1.941   .     S
O767   Zn777   1.928   .     S
O769   Zn777   1.933   .     S
O770   Zn780   1.933   .     S
O771   Zn778   1.926   .     S
O772   Zn779   1.940   .     S
O773   Zn780   1.938   .     S
O774   Zn777   1.925   .     S
O775   Zn778   1.936   .     S
O776   Zn779   1.932   .     S
C781   O831    1.272   .     A
C781   O833    1.270   .     A
C781   C787    1.434   .     S
C782   C796    1.393   .     A
C782   H817    1.075   .     S
C782   C803    1.409   .     A
C783   F807    1.358   .     S
C783   C795    1.387   .     A
C783   C796    1.397   .     A
C784   O832    1.283   .     A
C784   C786    1.456   .     S
C784   O834    1.275   .     A
C785   C794    1.473   .     S
C785   C797    1.398   .     A
C785   C802    1.418   .     A
C786   C847    1.342   .     S
C786   F872    1.362   .     S
C788   C791    1.452   .     S
C788   C969    1.337   .     S
C788   H993    1.088   .     S
C789   C790    1.431   .     S
C790   O829    1.279   .     A
C790   O835    1.279   .     A
C791   O830    1.267   .     A
C791   O836    1.272   .     A
C792   C797    1.384   .     A
C792   C260    1.397   1_556 S
C792   F270    1.357   1_556 S
C793   O826    1.271   .     A
C793   C796    1.449   .     S
C793   O824    1.279   .     A
C794   O825    1.281   .     A
C794   O827    1.284   .     A
C797   H818    1.084   .     S
C798   H819    1.115   .     S
C798   C799    1.521   .     S
C798   H820    1.114   .     S
C798   O828    1.412   .     S
C799   H822    1.110   .     S
C799   H821    1.111   .     S
C799   H814    1.111   .     S
C800   O828    1.380   .     S
C801   C802    1.429   .     A
C801   C260    1.433   1_556 S
C801   C263    1.432   1_556 S
C802   C806    1.415   .     A
C804   C805    1.388   .     A
C804   C255    1.401   1_556 S
C804   C263    1.424   1_556 S
C805   H815    1.085   .     S
C805   C806    1.382   .     A
C806   F811    1.358   .     S
F808   C847    1.361   .     S
F809   C969    1.361   .     S
H816   C255    1.084   1_556 S
O823   Zn839   1.932   .     S
O823   Zn840   1.931   .     S
O823   Zn837   1.960   .     S
O823   Zn838   1.954   .     S
O824   Zn838   1.930   .     S
O825   Zn840   1.943   .     S
O826   Zn839   1.941   .     S
O827   Zn837   1.928   .     S
O829   Zn837   1.933   .     S
O830   Zn840   1.933   .     S
O831   Zn838   1.926   .     S
O832   Zn839   1.940   .     S
O833   Zn840   1.938   .     S
O834   Zn837   1.925   .     S
O835   Zn838   1.936   .     S
O836   Zn839   1.932   .     S
C841   O891    1.272   .     A
C841   O893    1.270   .     A
C841   C847    1.434   .     S
C842   C856    1.393   .     A
C842   H877    1.075   .     S
C842   C863    1.409   .     A
C843   F867    1.358   .     S
C843   C855    1.387   .     A
C843   C856    1.397   .     A
C844   O892    1.283   .     A
C844   C846    1.456   .     S
C844   O894    1.275   .     A
C845   C854    1.473   .     S
C845   C857    1.398   .     A
C845   C862    1.418   .     A
C846   C727    1.342   1_655 S
C846   F752    1.362   1_655 S
C848   C851    1.452   .     S
C848   C1029   1.337   .     S
C848   H1053   1.088   .     S
C849   C850    1.431   .     S
C850   O889    1.279   .     A
C850   O895    1.279   .     A
C851   O890    1.267   .     A
C851   O896    1.272   .     A
C852   C857    1.384   .     A
C852   C320    1.397   1_556 S
C852   F330    1.357   1_556 S
C853   O886    1.271   .     A
C853   C856    1.449   .     S
C853   O884    1.279   .     A
C854   O885    1.281   .     A
C854   O887    1.284   .     A
C857   H878    1.084   .     S
C858   H879    1.115   .     S
C858   C859    1.521   .     S
C858   H880    1.114   .     S
C858   O888    1.412   .     S
C859   H882    1.110   .     S
C859   H881    1.111   .     S
C859   H874    1.111   .     S
C860   O888    1.380   .     S
C861   C862    1.429   .     A
C861   C320    1.433   1_556 S
C861   C323    1.432   1_556 S
C862   C866    1.415   .     A
C864   C865    1.388   .     A
C864   C315    1.401   1_556 S
C864   C323    1.424   1_556 S
C865   H875    1.085   .     S
C865   C866    1.382   .     A
C866   F871    1.358   .     S
F868   C727    1.361   1_655 S
F869   C1029   1.361   .     S
H876   C315    1.084   1_556 S
O883   Zn899   1.932   .     S
O883   Zn900   1.931   .     S
O883   Zn897   1.960   .     S
O883   Zn898   1.954   .     S
O884   Zn898   1.930   .     S
O885   Zn900   1.943   .     S
O886   Zn899   1.941   .     S
O887   Zn897   1.928   .     S
O889   Zn897   1.933   .     S
O890   Zn900   1.933   .     S
O891   Zn898   1.926   .     S
O892   Zn899   1.940   .     S
O893   Zn900   1.938   .     S
O894   Zn897   1.925   .     S
O895   Zn898   1.936   .     S
O896   Zn899   1.932   .     S
C901   O951    1.272   .     A
C901   O953    1.270   .     A
C901   C907    1.434   .     S
C902   C916    1.393   .     A
C902   H937    1.075   .     S
C902   C923    1.409   .     A
C903   F927    1.358   .     S
C903   C915    1.387   .     A
C903   C916    1.397   .     A
C904   O952    1.283   .     A
C904   C906    1.456   .     S
C904   O954    1.275   .     A
C905   C914    1.473   .     S
C905   C917    1.398   .     A
C905   C922    1.418   .     A
C906   C967    1.342   .     S
C906   F992    1.362   .     S
C907   C1026   1.342   1_455 S
C907   F1048   1.361   1_455 S
C908   C911    1.452   .     S
C908   C549    1.337   1_565 S
C908   H573    1.088   1_565 S
C909   C910    1.431   .     S
C910   O949    1.279   .     A
C910   O955    1.279   .     A
C911   O950    1.267   .     A
C911   O956    1.272   .     A
C912   C917    1.384   .     A
C912   C380    1.397   1_556 S
C912   F390    1.357   1_556 S
C913   O946    1.271   .     A
C913   C916    1.449   .     S
C913   O944    1.279   .     A
C914   O945    1.281   .     A
C914   O947    1.284   .     A
C917   H938    1.084   .     S
C918   H939    1.115   .     S
C918   C919    1.521   .     S
C918   H940    1.114   .     S
C918   O948    1.412   .     S
C919   H942    1.110   .     S
C919   H941    1.111   .     S
C919   H934    1.111   .     S
C920   O948    1.380   .     S
C921   C922    1.429   .     A
C921   C380    1.433   1_556 S
C921   C383    1.432   1_556 S
C922   C926    1.415   .     A
C924   C925    1.388   .     A
C924   C375    1.401   1_556 S
C924   C383    1.424   1_556 S
C925   H935    1.085   .     S
C925   C926    1.382   .     A
C926   F931    1.358   .     S
F928   C967    1.361   .     S
F929   C549    1.361   1_565 S
F932   C1026   1.362   1_455 S
H936   C375    1.084   1_556 S
O943   Zn959   1.932   .     S
O943   Zn960   1.931   .     S
O943   Zn957   1.960   .     S
O943   Zn958   1.954   .     S
O944   Zn958   1.930   .     S
O945   Zn960   1.943   .     S
O946   Zn959   1.941   .     S
O947   Zn957   1.928   .     S
O949   Zn957   1.933   .     S
O950   Zn960   1.933   .     S
O951   Zn958   1.926   .     S
O952   Zn959   1.940   .     S
O953   Zn960   1.938   .     S
O954   Zn957   1.925   .     S
O955   Zn958   1.936   .     S
O956   Zn959   1.932   .     S
C961   O1011   1.272   .     A
C961   O1013   1.270   .     A
C961   C967    1.434   .     S
C962   C976    1.393   .     A
C962   H997    1.075   .     S
C962   C983    1.409   .     A
C963   F987    1.358   .     S
C963   C975    1.387   .     A
C963   C976    1.397   .     A
C964   O1012   1.283   .     A
C964   C966    1.456   .     S
C964   O1014   1.275   .     A
C965   C974    1.473   .     S
C965   C977    1.398   .     A
C965   C982    1.418   .     A
C966   C1027   1.342   .     S
C966   F1052   1.362   .     S
C968   C971    1.452   .     S
C968   C609    1.337   1_565 S
C968   H633    1.088   1_565 S
C969   C970    1.431   .     S
C970   O1009   1.279   .     A
C970   O1015   1.279   .     A
C971   O1010   1.267   .     A
C971   O1016   1.272   .     A
C972   C977    1.384   .     A
C972   C440    1.397   1_556 S
C972   F450    1.357   1_556 S
C973   O1006   1.271   .     A
C973   C976    1.449   .     S
C973   O1004   1.279   .     A
C974   O1005   1.281   .     A
C974   O1007   1.284   .     A
C977   H998    1.084   .     S
C978   H999    1.115   .     S
C978   C979    1.521   .     S
C978   H1000   1.114   .     S
C978   O1008   1.412   .     S
C979   H1002   1.110   .     S
C979   H1001   1.111   .     S
C979   H994    1.111   .     S
C980   O1008   1.380   .     S
C981   C982    1.429   .     A
C981   C440    1.433   1_556 S
C981   C443    1.432   1_556 S
C982   C986    1.415   .     A
C984   C985    1.388   .     A
C984   C435    1.401   1_556 S
C984   C443    1.424   1_556 S
C985   H995    1.085   .     S
C985   C986    1.382   .     A
C986   F991    1.358   .     S
F988   C1027   1.361   .     S
F989   C609    1.361   1_565 S
H996   C435    1.084   1_556 S
O1003  Zn1019  1.932   .     S
O1003  Zn1020  1.931   .     S
O1003  Zn1017  1.960   .     S
O1003  Zn1018  1.954   .     S
O1004  Zn1018  1.930   .     S
O1005  Zn1020  1.943   .     S
O1006  Zn1019  1.941   .     S
O1007  Zn1017  1.928   .     S
O1009  Zn1017  1.933   .     S
O1010  Zn1020  1.933   .     S
O1011  Zn1018  1.926   .     S
O1012  Zn1019  1.940   .     S
O1013  Zn1020  1.938   .     S
O1014  Zn1017  1.925   .     S
O1015  Zn1018  1.936   .     S
O1016  Zn1019  1.932   .     S
C1021  O1071   1.272   .     A
C1021  O1073   1.270   .     A
C1021  C1027   1.434   .     S
C1022  C1036   1.393   .     A
C1022  H1057   1.075   .     S
C1022  C1043   1.409   .     A
C1023  F1047   1.358   .     S
C1023  C1035   1.387   .     A
C1023  C1036   1.397   .     A
C1024  O1072   1.283   .     A
C1024  C1026   1.456   .     S
C1024  O1074   1.275   .     A
C1025  C1034   1.473   .     S
C1025  C1037   1.398   .     A
C1025  C1042   1.418   .     A
C1026  C907    1.342   1_655 S
C1026  F932    1.362   1_655 S
C1028  C1031   1.452   .     S
C1028  C669    1.337   1_565 S
C1028  H693    1.088   1_565 S
C1029  C1030   1.431   .     S
C1030  O1069   1.279   .     A
C1030  O1075   1.279   .     A
C1031  O1070   1.267   .     A
C1031  O1076   1.272   .     A
C1032  C1037   1.384   .     A
C1032  C500    1.397   1_556 S
C1032  F510    1.357   1_556 S
C1033  O1066   1.271   .     A
C1033  C1036   1.449   .     S
C1033  O1064   1.279   .     A
C1034  O1065   1.281   .     A
C1034  O1067   1.284   .     A
C1037  H1058   1.084   .     S
C1038  H1059   1.115   .     S
C1038  C1039   1.521   .     S
C1038  H1060   1.114   .     S
C1038  O1068   1.412   .     S
C1039  H1062   1.110   .     S
C1039  H1061   1.111   .     S
C1039  H1054   1.111   .     S
C1040  O1068   1.380   .     S
C1041  C1042   1.429   .     A
C1041  C500    1.433   1_556 S
C1041  C503    1.432   1_556 S
C1042  C1046   1.415   .     A
C1044  C1045   1.388   .     A
C1044  C495    1.401   1_556 S
C1044  C503    1.424   1_556 S
C1045  H1055   1.085   .     S
C1045  C1046   1.382   .     A
C1046  F1051   1.358   .     S
F1048  C907    1.361   1_655 S
F1049  C669    1.361   1_565 S
H1056  C495    1.084   1_556 S
O1063  Zn1079  1.932   .     S
O1063  Zn1080  1.931   .     S
O1063  Zn1077  1.960   .     S
O1063  Zn1078  1.954   .     S
O1064  Zn1078  1.930   .     S
O1065  Zn1080  1.943   .     S
O1066  Zn1079  1.941   .     S
O1067  Zn1077  1.928   .     S
O1069  Zn1077  1.933   .     S
O1070  Zn1080  1.933   .     S
O1071  Zn1078  1.926   .     S
O1072  Zn1079  1.940   .     S
O1073  Zn1080  1.938   .     S
O1074  Zn1077  1.925   .     S
O1075  Zn1078  1.936   .     S
O1076  Zn1079  1.932   .     S
