data_str_m2_o2_o10_pcu_sym.128
_audit_creation_date              2020-01-03
_audit_creation_method            'Materials Studio'
_symmetry_space_group_name_H-M    'P1'
_symmetry_Int_Tables_number       1
_symmetry_cell_setting            triclinic
loop_
_symmetry_equiv_pos_as_xyz
  x,y,z
_cell_length_a                    26.1968
_cell_length_b                    30.2899
_cell_length_c                    27.8334
_cell_angle_alpha                 90.5588
_cell_angle_beta                  98.2594
_cell_angle_gamma                 90.5644
loop_
_atom_site_label
_atom_site_type_symbol
_atom_site_fract_x
_atom_site_fract_y
_atom_site_fract_z
_atom_site_U_iso_or_equiv
_atom_site_adp_type
_atom_site_occupancy
C1     C     0.16633   0.16500   0.24975   0.00000  Uiso   1.00
C2     C     0.16628   0.33506   0.25008   0.00000  Uiso   1.00
C3     C     0.20954   0.26614   0.06025   0.00000  Uiso   1.00
C4     C     0.14309   0.21545   0.44216   0.00000  Uiso   1.00
C5     C     0.20754   0.26759   0.11050   0.00000  Uiso   1.00
C6     C     0.14166   0.21721   0.39147   0.00000  Uiso   1.00
C7     C     0.12693   0.23048   0.09874   0.00000  Uiso   1.00
C8     C     0.19404   0.28150   0.39949   0.00000  Uiso   1.00
C9     C     0.12577   0.23148   0.04787   0.00000  Uiso   1.00
C10    C     0.19347   0.28252   0.45018   0.00000  Uiso   1.00
C11    C     0.16780   0.24888   0.02742   0.00000  Uiso   1.00
C12    C     0.16813   0.24897   0.47280   0.00000  Uiso   1.00
C13    C     0.06790   0.24995   0.23750   0.00000  Uiso   1.00
C14    C     0.26543   0.25004   0.26249   0.00000  Uiso   1.00
C15    C     0.01254   0.24993   0.23068   0.00000  Uiso   1.00
C16    C     0.32079   0.25004   0.26929   0.00000  Uiso   1.00
C17    C     0.14655   0.04805   0.28692   0.00000  Uiso   1.00
C18    C     0.15002   0.45164   0.20575   0.00000  Uiso   1.00
C19    C     0.14781   0.09393   0.28737   0.00000  Uiso   1.00
C20    C     0.15107   0.40574   0.20612   0.00000  Uiso   1.00
C21    C     0.16525   0.11680   0.24921   0.00000  Uiso   1.00
C22    C     0.16510   0.38336   0.24986   0.00000  Uiso   1.00
C23    C     0.18145   0.09331   0.21058   0.00000  Uiso   1.00
C24    C     0.17804   0.40752   0.29313   0.00000  Uiso   1.00
C25    C     0.18097   0.04740   0.21050   0.00000  Uiso   1.00
C26    C     0.17776   0.45338   0.29270   0.00000  Uiso   1.00
C27    C     0.16351   0.02439   0.24868   0.00000  Uiso   1.00
C28    C     0.16364   0.47584   0.24902   0.00000  Uiso   1.00
Cu29   Cu    0.16667   0.24999   0.29822   0.00000  Uiso   1.00
Cu30   Cu    0.16667   0.25000   0.20179   0.00000  Uiso   1.00
H31    H     0.32569   0.24983   0.19371   0.00000  Uiso   1.00
H32    H     0.00765   0.25012   0.30626   0.00000  Uiso   1.00
H33    H     0.13195   0.03113   0.31630   0.00000  Uiso   1.00
H34    H     0.13809   0.46813   0.17171   0.00000  Uiso   1.00
H35    H     0.13453   0.11148   0.31725   0.00000  Uiso   1.00
H36    H     0.14038   0.38781   0.17226   0.00000  Uiso   1.00
H37    H     0.19533   0.11041   0.18091   0.00000  Uiso   1.00
H38    H     0.18912   0.39111   0.32718   0.00000  Uiso   1.00
H39    H     0.19505   0.02994   0.18100   0.00000  Uiso   1.00
H40    H     0.18933   0.47123   0.32646   0.00000  Uiso   1.00
H41    H     0.24422   0.27813   0.04765   0.00000  Uiso   1.00
H42    H     0.12505   0.18743   0.45693   0.00000  Uiso   1.00
H43    H     0.23955   0.28211   0.13448   0.00000  Uiso   1.00
H44    H     0.12126   0.19160   0.36885   0.00000  Uiso   1.00
N45    N     0.16667   0.25001   0.12935   0.00000  Uiso   1.00
N46    N     0.16667   0.24999   0.37066   0.00000  Uiso   1.00
O47    O     0.16667   0.18572   0.29072   0.00000  Uiso   1.00
O48    O     0.16666   0.31427   0.20929   0.00000  Uiso   1.00
O49    O     0.16667   0.18573   0.20928   0.00000  Uiso   1.00
O50    O     0.16666   0.31427   0.29072   0.00000  Uiso   1.00
O51    O     0.09161   0.24999   0.28132   0.00000  Uiso   1.00
O52    O     0.24172   0.25000   0.21868   0.00000  Uiso   1.00
O53    O     0.09161   0.25000   0.19989   0.00000  Uiso   1.00
O54    O     0.24172   0.25000   0.30012   0.00000  Uiso   1.00
N55    N     0.08670   0.20764   0.11825   0.00000  Uiso   1.00
H56    H     0.05151   0.22191   0.10443   0.00000  Uiso   1.00
H57    H     0.08597   0.17482   0.10618   0.00000  Uiso   1.00
N58    N     0.22469   0.31315   0.37839   0.00000  Uiso   1.00
H59    H     0.26324   0.30845   0.39311   0.00000  Uiso   1.00
H60    H     0.21436   0.34456   0.38918   0.00000  Uiso   1.00
F61    F     0.08286   0.21609   0.01917   0.00000  Uiso   1.00
F62    F     0.21672   0.31709   0.47635   0.00000  Uiso   1.00
C63    C     0.49966   0.16500   0.24975   0.00000  Uiso   1.00
C64    C     0.49962   0.33506   0.25008   0.00000  Uiso   1.00
C65    C     0.54288   0.26614   0.06025   0.00000  Uiso   1.00
C66    C     0.47643   0.21545   0.44216   0.00000  Uiso   1.00
C67    C     0.54087   0.26759   0.11050   0.00000  Uiso   1.00
C68    C     0.47499   0.21721   0.39147   0.00000  Uiso   1.00
C69    C     0.46026   0.23048   0.09874   0.00000  Uiso   1.00
C70    C     0.52737   0.28150   0.39949   0.00000  Uiso   1.00
C71    C     0.45910   0.23148   0.04787   0.00000  Uiso   1.00
C72    C     0.52681   0.28252   0.45018   0.00000  Uiso   1.00
C73    C     0.50113   0.24888   0.02742   0.00000  Uiso   1.00
C74    C     0.50146   0.24897   0.47280   0.00000  Uiso   1.00
C75    C     0.40123   0.24995   0.23750   0.00000  Uiso   1.00
C76    C     0.59876   0.25004   0.26249   0.00000  Uiso   1.00
C77    C     0.34587   0.24993   0.23068   0.00000  Uiso   1.00
C78    C     0.65413   0.25004   0.26929   0.00000  Uiso   1.00
C79    C     0.47989   0.04805   0.28692   0.00000  Uiso   1.00
C80    C     0.48335   0.45164   0.20575   0.00000  Uiso   1.00
C81    C     0.48114   0.09393   0.28737   0.00000  Uiso   1.00
C82    C     0.48440   0.40574   0.20612   0.00000  Uiso   1.00
C83    C     0.49858   0.11680   0.24921   0.00000  Uiso   1.00
C84    C     0.49843   0.38336   0.24986   0.00000  Uiso   1.00
C85    C     0.51478   0.09331   0.21058   0.00000  Uiso   1.00
C86    C     0.51137   0.40752   0.29313   0.00000  Uiso   1.00
C87    C     0.51430   0.04740   0.21050   0.00000  Uiso   1.00
C88    C     0.51109   0.45338   0.29270   0.00000  Uiso   1.00
C89    C     0.49685   0.02439   0.24868   0.00000  Uiso   1.00
C90    C     0.49697   0.47584   0.24902   0.00000  Uiso   1.00
Cu91   Cu    0.50000   0.24999   0.29822   0.00000  Uiso   1.00
Cu92   Cu    0.50000   0.25000   0.20179   0.00000  Uiso   1.00
H93    H     0.65903   0.24983   0.19371   0.00000  Uiso   1.00
H94    H     0.34099   0.25012   0.30626   0.00000  Uiso   1.00
H95    H     0.46528   0.03113   0.31630   0.00000  Uiso   1.00
H96    H     0.47142   0.46813   0.17171   0.00000  Uiso   1.00
H97    H     0.46787   0.11148   0.31725   0.00000  Uiso   1.00
H98    H     0.47371   0.38781   0.17226   0.00000  Uiso   1.00
H99    H     0.52866   0.11041   0.18091   0.00000  Uiso   1.00
H100   H     0.52245   0.39111   0.32718   0.00000  Uiso   1.00
H101   H     0.52838   0.02994   0.18100   0.00000  Uiso   1.00
H102   H     0.52266   0.47123   0.32646   0.00000  Uiso   1.00
H103   H     0.57755   0.27813   0.04765   0.00000  Uiso   1.00
H104   H     0.45838   0.18743   0.45693   0.00000  Uiso   1.00
H105   H     0.57288   0.28211   0.13448   0.00000  Uiso   1.00
H106   H     0.45459   0.19160   0.36885   0.00000  Uiso   1.00
N107   N     0.50000   0.25001   0.12935   0.00000  Uiso   1.00
N108   N     0.50000   0.24999   0.37066   0.00000  Uiso   1.00
O109   O     0.50000   0.18572   0.29072   0.00000  Uiso   1.00
O110   O     0.50000   0.31427   0.20929   0.00000  Uiso   1.00
O111   O     0.50000   0.18573   0.20928   0.00000  Uiso   1.00
O112   O     0.50000   0.31427   0.29072   0.00000  Uiso   1.00
O113   O     0.42495   0.24999   0.28132   0.00000  Uiso   1.00
O114   O     0.57505   0.25000   0.21868   0.00000  Uiso   1.00
O115   O     0.42495   0.25000   0.19989   0.00000  Uiso   1.00
O116   O     0.57505   0.25000   0.30012   0.00000  Uiso   1.00
N117   N     0.42003   0.20764   0.11825   0.00000  Uiso   1.00
H118   H     0.38484   0.22191   0.10443   0.00000  Uiso   1.00
H119   H     0.41930   0.17482   0.10618   0.00000  Uiso   1.00
N120   N     0.55802   0.31315   0.37839   0.00000  Uiso   1.00
H121   H     0.59657   0.30845   0.39311   0.00000  Uiso   1.00
H122   H     0.54769   0.34456   0.38918   0.00000  Uiso   1.00
F123   F     0.41620   0.21609   0.01917   0.00000  Uiso   1.00
F124   F     0.55005   0.31709   0.47635   0.00000  Uiso   1.00
C125   C     0.83300   0.16500   0.24975   0.00000  Uiso   1.00
C126   C     0.83295   0.33506   0.25008   0.00000  Uiso   1.00
C127   C     0.87621   0.26614   0.06025   0.00000  Uiso   1.00
C128   C     0.80976   0.21545   0.44216   0.00000  Uiso   1.00
C129   C     0.87420   0.26759   0.11050   0.00000  Uiso   1.00
C130   C     0.80833   0.21721   0.39147   0.00000  Uiso   1.00
C131   C     0.79360   0.23048   0.09874   0.00000  Uiso   1.00
C132   C     0.86071   0.28150   0.39949   0.00000  Uiso   1.00
C133   C     0.79243   0.23148   0.04787   0.00000  Uiso   1.00
C134   C     0.86014   0.28252   0.45018   0.00000  Uiso   1.00
C135   C     0.83446   0.24888   0.02742   0.00000  Uiso   1.00
C136   C     0.83480   0.24897   0.47280   0.00000  Uiso   1.00
C137   C     0.73457   0.24995   0.23750   0.00000  Uiso   1.00
C138   C     0.93210   0.25004   0.26249   0.00000  Uiso   1.00
C139   C     0.67920   0.24993   0.23068   0.00000  Uiso   1.00
C140   C     0.98746   0.25004   0.26929   0.00000  Uiso   1.00
C141   C     0.81322   0.04805   0.28692   0.00000  Uiso   1.00
C142   C     0.81668   0.45164   0.20575   0.00000  Uiso   1.00
C143   C     0.81447   0.09393   0.28737   0.00000  Uiso   1.00
C144   C     0.81774   0.40574   0.20612   0.00000  Uiso   1.00
C145   C     0.83191   0.11680   0.24921   0.00000  Uiso   1.00
C146   C     0.83176   0.38336   0.24986   0.00000  Uiso   1.00
C147   C     0.84812   0.09331   0.21058   0.00000  Uiso   1.00
C148   C     0.84470   0.40752   0.29313   0.00000  Uiso   1.00
C149   C     0.84764   0.04740   0.21050   0.00000  Uiso   1.00
C150   C     0.84443   0.45338   0.29270   0.00000  Uiso   1.00
C151   C     0.83018   0.02439   0.24868   0.00000  Uiso   1.00
C152   C     0.83031   0.47584   0.24902   0.00000  Uiso   1.00
Cu153  Cu    0.83333   0.24999   0.29822   0.00000  Uiso   1.00
Cu154  Cu    0.83333   0.25000   0.20179   0.00000  Uiso   1.00
H155   H     0.99236   0.24983   0.19371   0.00000  Uiso   1.00
H156   H     0.67432   0.25012   0.30626   0.00000  Uiso   1.00
H157   H     0.79861   0.03113   0.31630   0.00000  Uiso   1.00
H158   H     0.80475   0.46813   0.17171   0.00000  Uiso   1.00
H159   H     0.80120   0.11148   0.31725   0.00000  Uiso   1.00
H160   H     0.80705   0.38781   0.17226   0.00000  Uiso   1.00
H161   H     0.86200   0.11041   0.18091   0.00000  Uiso   1.00
H162   H     0.85578   0.39111   0.32718   0.00000  Uiso   1.00
H163   H     0.86172   0.02994   0.18100   0.00000  Uiso   1.00
H164   H     0.85599   0.47123   0.32646   0.00000  Uiso   1.00
H165   H     0.91088   0.27813   0.04765   0.00000  Uiso   1.00
H166   H     0.79171   0.18743   0.45693   0.00000  Uiso   1.00
H167   H     0.90622   0.28211   0.13448   0.00000  Uiso   1.00
H168   H     0.78792   0.19160   0.36885   0.00000  Uiso   1.00
N169   N     0.83333   0.25001   0.12935   0.00000  Uiso   1.00
N170   N     0.83333   0.24999   0.37066   0.00000  Uiso   1.00
O171   O     0.83334   0.18572   0.29072   0.00000  Uiso   1.00
O172   O     0.83333   0.31427   0.20929   0.00000  Uiso   1.00
O173   O     0.83334   0.18573   0.20928   0.00000  Uiso   1.00
O174   O     0.83333   0.31427   0.29072   0.00000  Uiso   1.00
O175   O     0.75828   0.24999   0.28132   0.00000  Uiso   1.00
O176   O     0.90839   0.25000   0.21868   0.00000  Uiso   1.00
O177   O     0.75828   0.25000   0.19989   0.00000  Uiso   1.00
O178   O     0.90839   0.25000   0.30012   0.00000  Uiso   1.00
N179   N     0.75336   0.20764   0.11825   0.00000  Uiso   1.00
H180   H     0.71817   0.22191   0.10443   0.00000  Uiso   1.00
H181   H     0.75264   0.17482   0.10618   0.00000  Uiso   1.00
N182   N     0.89135   0.31315   0.37839   0.00000  Uiso   1.00
H183   H     0.92991   0.30845   0.39311   0.00000  Uiso   1.00
H184   H     0.88103   0.34456   0.38918   0.00000  Uiso   1.00
F185   F     0.74953   0.21609   0.01917   0.00000  Uiso   1.00
F186   F     0.88338   0.31709   0.47635   0.00000  Uiso   1.00
C187   C     0.16633   0.66500   0.24975   0.00000  Uiso   1.00
C188   C     0.16628   0.83506   0.25008   0.00000  Uiso   1.00
C189   C     0.20954   0.76614   0.06025   0.00000  Uiso   1.00
C190   C     0.14309   0.71545   0.44216   0.00000  Uiso   1.00
C191   C     0.20754   0.76759   0.11050   0.00000  Uiso   1.00
C192   C     0.14166   0.71721   0.39147   0.00000  Uiso   1.00
C193   C     0.12693   0.73048   0.09874   0.00000  Uiso   1.00
C194   C     0.19404   0.78150   0.39949   0.00000  Uiso   1.00
C195   C     0.12577   0.73148   0.04787   0.00000  Uiso   1.00
C196   C     0.19347   0.78252   0.45018   0.00000  Uiso   1.00
C197   C     0.16780   0.74888   0.02742   0.00000  Uiso   1.00
C198   C     0.16813   0.74897   0.47280   0.00000  Uiso   1.00
C199   C     0.06790   0.74995   0.23750   0.00000  Uiso   1.00
C200   C     0.26543   0.75004   0.26249   0.00000  Uiso   1.00
C201   C     0.01254   0.74993   0.23068   0.00000  Uiso   1.00
C202   C     0.32079   0.75004   0.26929   0.00000  Uiso   1.00
C203   C     0.14655   0.54805   0.28692   0.00000  Uiso   1.00
C204   C     0.15002   0.95164   0.20575   0.00000  Uiso   1.00
C205   C     0.14781   0.59393   0.28737   0.00000  Uiso   1.00
C206   C     0.15107   0.90574   0.20612   0.00000  Uiso   1.00
C207   C     0.16525   0.61680   0.24921   0.00000  Uiso   1.00
C208   C     0.16510   0.88336   0.24986   0.00000  Uiso   1.00
C209   C     0.18145   0.59331   0.21058   0.00000  Uiso   1.00
C210   C     0.17804   0.90752   0.29313   0.00000  Uiso   1.00
C211   C     0.18097   0.54740   0.21050   0.00000  Uiso   1.00
C212   C     0.17776   0.95338   0.29270   0.00000  Uiso   1.00
C213   C     0.16351   0.52439   0.24868   0.00000  Uiso   1.00
C214   C     0.16364   0.97584   0.24902   0.00000  Uiso   1.00
Cu215  Cu    0.16667   0.74999   0.29822   0.00000  Uiso   1.00
Cu216  Cu    0.16667   0.75000   0.20179   0.00000  Uiso   1.00
H217   H     0.32569   0.74983   0.19371   0.00000  Uiso   1.00
H218   H     0.00765   0.75012   0.30626   0.00000  Uiso   1.00
H219   H     0.13195   0.53113   0.31630   0.00000  Uiso   1.00
H220   H     0.13809   0.96813   0.17171   0.00000  Uiso   1.00
H221   H     0.13453   0.61148   0.31725   0.00000  Uiso   1.00
H222   H     0.14038   0.88781   0.17226   0.00000  Uiso   1.00
H223   H     0.19533   0.61041   0.18091   0.00000  Uiso   1.00
H224   H     0.18912   0.89111   0.32718   0.00000  Uiso   1.00
H225   H     0.19505   0.52994   0.18100   0.00000  Uiso   1.00
H226   H     0.18933   0.97123   0.32646   0.00000  Uiso   1.00
H227   H     0.24422   0.77813   0.04765   0.00000  Uiso   1.00
H228   H     0.12505   0.68743   0.45693   0.00000  Uiso   1.00
H229   H     0.23955   0.78211   0.13448   0.00000  Uiso   1.00
H230   H     0.12126   0.69160   0.36885   0.00000  Uiso   1.00
N231   N     0.16667   0.75001   0.12935   0.00000  Uiso   1.00
N232   N     0.16667   0.74999   0.37066   0.00000  Uiso   1.00
O233   O     0.16667   0.68572   0.29072   0.00000  Uiso   1.00
O234   O     0.16666   0.81427   0.20929   0.00000  Uiso   1.00
O235   O     0.16667   0.68573   0.20928   0.00000  Uiso   1.00
O236   O     0.16666   0.81427   0.29072   0.00000  Uiso   1.00
O237   O     0.09161   0.74999   0.28132   0.00000  Uiso   1.00
O238   O     0.24172   0.75000   0.21868   0.00000  Uiso   1.00
O239   O     0.09161   0.75000   0.19989   0.00000  Uiso   1.00
O240   O     0.24172   0.75000   0.30012   0.00000  Uiso   1.00
N241   N     0.08670   0.70764   0.11825   0.00000  Uiso   1.00
H242   H     0.05151   0.72191   0.10443   0.00000  Uiso   1.00
H243   H     0.08597   0.67482   0.10618   0.00000  Uiso   1.00
N244   N     0.22469   0.81315   0.37839   0.00000  Uiso   1.00
H245   H     0.26324   0.80845   0.39311   0.00000  Uiso   1.00
H246   H     0.21436   0.84456   0.38918   0.00000  Uiso   1.00
F247   F     0.08286   0.71609   0.01917   0.00000  Uiso   1.00
F248   F     0.21672   0.81709   0.47635   0.00000  Uiso   1.00
C249   C     0.49966   0.66500   0.24975   0.00000  Uiso   1.00
C250   C     0.49962   0.83506   0.25008   0.00000  Uiso   1.00
C251   C     0.54288   0.76614   0.06025   0.00000  Uiso   1.00
C252   C     0.47643   0.71545   0.44216   0.00000  Uiso   1.00
C253   C     0.54087   0.76759   0.11050   0.00000  Uiso   1.00
C254   C     0.47499   0.71721   0.39147   0.00000  Uiso   1.00
C255   C     0.46026   0.73048   0.09874   0.00000  Uiso   1.00
C256   C     0.52737   0.78150   0.39949   0.00000  Uiso   1.00
C257   C     0.45910   0.73148   0.04787   0.00000  Uiso   1.00
C258   C     0.52681   0.78252   0.45018   0.00000  Uiso   1.00
C259   C     0.50113   0.74888   0.02742   0.00000  Uiso   1.00
C260   C     0.50146   0.74897   0.47280   0.00000  Uiso   1.00
C261   C     0.40123   0.74995   0.23750   0.00000  Uiso   1.00
C262   C     0.59876   0.75004   0.26249   0.00000  Uiso   1.00
C263   C     0.34587   0.74993   0.23068   0.00000  Uiso   1.00
C264   C     0.65413   0.75004   0.26929   0.00000  Uiso   1.00
C265   C     0.47989   0.54805   0.28692   0.00000  Uiso   1.00
C266   C     0.48335   0.95164   0.20575   0.00000  Uiso   1.00
C267   C     0.48114   0.59393   0.28737   0.00000  Uiso   1.00
C268   C     0.48440   0.90574   0.20612   0.00000  Uiso   1.00
C269   C     0.49858   0.61680   0.24921   0.00000  Uiso   1.00
C270   C     0.49843   0.88336   0.24986   0.00000  Uiso   1.00
C271   C     0.51478   0.59331   0.21058   0.00000  Uiso   1.00
C272   C     0.51137   0.90752   0.29313   0.00000  Uiso   1.00
C273   C     0.51430   0.54740   0.21050   0.00000  Uiso   1.00
C274   C     0.51109   0.95338   0.29270   0.00000  Uiso   1.00
C275   C     0.49685   0.52439   0.24868   0.00000  Uiso   1.00
C276   C     0.49697   0.97584   0.24902   0.00000  Uiso   1.00
Cu277  Cu    0.50000   0.74999   0.29822   0.00000  Uiso   1.00
Cu278  Cu    0.50000   0.75000   0.20179   0.00000  Uiso   1.00
H279   H     0.65903   0.74983   0.19371   0.00000  Uiso   1.00
H280   H     0.34099   0.75012   0.30626   0.00000  Uiso   1.00
H281   H     0.46528   0.53113   0.31630   0.00000  Uiso   1.00
H282   H     0.47142   0.96813   0.17171   0.00000  Uiso   1.00
H283   H     0.46787   0.61148   0.31725   0.00000  Uiso   1.00
H284   H     0.47371   0.88781   0.17226   0.00000  Uiso   1.00
H285   H     0.52866   0.61041   0.18091   0.00000  Uiso   1.00
H286   H     0.52245   0.89111   0.32718   0.00000  Uiso   1.00
H287   H     0.52838   0.52994   0.18100   0.00000  Uiso   1.00
H288   H     0.52266   0.97123   0.32646   0.00000  Uiso   1.00
H289   H     0.57755   0.77813   0.04765   0.00000  Uiso   1.00
H290   H     0.45838   0.68743   0.45693   0.00000  Uiso   1.00
H291   H     0.57288   0.78211   0.13448   0.00000  Uiso   1.00
H292   H     0.45459   0.69160   0.36885   0.00000  Uiso   1.00
N293   N     0.50000   0.75001   0.12935   0.00000  Uiso   1.00
N294   N     0.50000   0.74999   0.37066   0.00000  Uiso   1.00
O295   O     0.50000   0.68572   0.29072   0.00000  Uiso   1.00
O296   O     0.50000   0.81427   0.20929   0.00000  Uiso   1.00
O297   O     0.50000   0.68573   0.20928   0.00000  Uiso   1.00
O298   O     0.50000   0.81427   0.29072   0.00000  Uiso   1.00
O299   O     0.42495   0.74999   0.28132   0.00000  Uiso   1.00
O300   O     0.57505   0.75000   0.21868   0.00000  Uiso   1.00
O301   O     0.42495   0.75000   0.19989   0.00000  Uiso   1.00
O302   O     0.57505   0.75000   0.30012   0.00000  Uiso   1.00
N303   N     0.42003   0.70764   0.11825   0.00000  Uiso   1.00
H304   H     0.38484   0.72191   0.10443   0.00000  Uiso   1.00
H305   H     0.41930   0.67482   0.10618   0.00000  Uiso   1.00
N306   N     0.55802   0.81315   0.37839   0.00000  Uiso   1.00
H307   H     0.59657   0.80845   0.39311   0.00000  Uiso   1.00
H308   H     0.54769   0.84456   0.38918   0.00000  Uiso   1.00
F309   F     0.41620   0.71609   0.01917   0.00000  Uiso   1.00
F310   F     0.55005   0.81709   0.47635   0.00000  Uiso   1.00
C311   C     0.83300   0.66500   0.24975   0.00000  Uiso   1.00
C312   C     0.83295   0.83506   0.25008   0.00000  Uiso   1.00
C313   C     0.87621   0.76614   0.06025   0.00000  Uiso   1.00
C314   C     0.80976   0.71545   0.44216   0.00000  Uiso   1.00
C315   C     0.87420   0.76759   0.11050   0.00000  Uiso   1.00
C316   C     0.80833   0.71721   0.39147   0.00000  Uiso   1.00
C317   C     0.79360   0.73048   0.09874   0.00000  Uiso   1.00
C318   C     0.86071   0.78150   0.39949   0.00000  Uiso   1.00
C319   C     0.79243   0.73148   0.04787   0.00000  Uiso   1.00
C320   C     0.86014   0.78252   0.45018   0.00000  Uiso   1.00
C321   C     0.83446   0.74888   0.02742   0.00000  Uiso   1.00
C322   C     0.83480   0.74897   0.47280   0.00000  Uiso   1.00
C323   C     0.73457   0.74995   0.23750   0.00000  Uiso   1.00
C324   C     0.93210   0.75004   0.26249   0.00000  Uiso   1.00
C325   C     0.67920   0.74993   0.23068   0.00000  Uiso   1.00
C326   C     0.98746   0.75004   0.26929   0.00000  Uiso   1.00
C327   C     0.81322   0.54805   0.28692   0.00000  Uiso   1.00
C328   C     0.81668   0.95164   0.20575   0.00000  Uiso   1.00
C329   C     0.81447   0.59393   0.28737   0.00000  Uiso   1.00
C330   C     0.81774   0.90574   0.20612   0.00000  Uiso   1.00
C331   C     0.83191   0.61680   0.24921   0.00000  Uiso   1.00
C332   C     0.83176   0.88336   0.24986   0.00000  Uiso   1.00
C333   C     0.84812   0.59331   0.21058   0.00000  Uiso   1.00
C334   C     0.84470   0.90752   0.29313   0.00000  Uiso   1.00
C335   C     0.84764   0.54740   0.21050   0.00000  Uiso   1.00
C336   C     0.84443   0.95338   0.29270   0.00000  Uiso   1.00
C337   C     0.83018   0.52439   0.24868   0.00000  Uiso   1.00
C338   C     0.83031   0.97584   0.24902   0.00000  Uiso   1.00
Cu339  Cu    0.83333   0.74999   0.29822   0.00000  Uiso   1.00
Cu340  Cu    0.83333   0.75000   0.20179   0.00000  Uiso   1.00
H341   H     0.99236   0.74983   0.19371   0.00000  Uiso   1.00
H342   H     0.67432   0.75012   0.30626   0.00000  Uiso   1.00
H343   H     0.79861   0.53113   0.31630   0.00000  Uiso   1.00
H344   H     0.80475   0.96813   0.17171   0.00000  Uiso   1.00
H345   H     0.80120   0.61148   0.31725   0.00000  Uiso   1.00
H346   H     0.80705   0.88781   0.17226   0.00000  Uiso   1.00
H347   H     0.86200   0.61041   0.18091   0.00000  Uiso   1.00
H348   H     0.85578   0.89111   0.32718   0.00000  Uiso   1.00
H349   H     0.86172   0.52994   0.18100   0.00000  Uiso   1.00
H350   H     0.85599   0.97123   0.32646   0.00000  Uiso   1.00
H351   H     0.91088   0.77813   0.04765   0.00000  Uiso   1.00
H352   H     0.79171   0.68743   0.45693   0.00000  Uiso   1.00
H353   H     0.90622   0.78211   0.13448   0.00000  Uiso   1.00
H354   H     0.78792   0.69160   0.36885   0.00000  Uiso   1.00
N355   N     0.83333   0.75001   0.12935   0.00000  Uiso   1.00
N356   N     0.83333   0.74999   0.37066   0.00000  Uiso   1.00
O357   O     0.83334   0.68572   0.29072   0.00000  Uiso   1.00
O358   O     0.83333   0.81427   0.20929   0.00000  Uiso   1.00
O359   O     0.83334   0.68573   0.20928   0.00000  Uiso   1.00
O360   O     0.83333   0.81427   0.29072   0.00000  Uiso   1.00
O361   O     0.75828   0.74999   0.28132   0.00000  Uiso   1.00
O362   O     0.90839   0.75000   0.21868   0.00000  Uiso   1.00
O363   O     0.75828   0.75000   0.19989   0.00000  Uiso   1.00
O364   O     0.90839   0.75000   0.30012   0.00000  Uiso   1.00
N365   N     0.75336   0.70764   0.11825   0.00000  Uiso   1.00
H366   H     0.71817   0.72191   0.10443   0.00000  Uiso   1.00
H367   H     0.75264   0.67482   0.10618   0.00000  Uiso   1.00
N368   N     0.89135   0.81315   0.37839   0.00000  Uiso   1.00
H369   H     0.92991   0.80845   0.39311   0.00000  Uiso   1.00
H370   H     0.88103   0.84456   0.38918   0.00000  Uiso   1.00
F371   F     0.74953   0.71609   0.01917   0.00000  Uiso   1.00
F372   F     0.88338   0.81709   0.47635   0.00000  Uiso   1.00
C373   C     0.16633   0.16500   0.74975   0.00000  Uiso   1.00
C374   C     0.16628   0.33506   0.75008   0.00000  Uiso   1.00
C375   C     0.20954   0.26614   0.56025   0.00000  Uiso   1.00
C376   C     0.14309   0.21545   0.94216   0.00000  Uiso   1.00
C377   C     0.20754   0.26759   0.61050   0.00000  Uiso   1.00
C378   C     0.14166   0.21721   0.89147   0.00000  Uiso   1.00
C379   C     0.12693   0.23048   0.59874   0.00000  Uiso   1.00
C380   C     0.19404   0.28150   0.89949   0.00000  Uiso   1.00
C381   C     0.12577   0.23148   0.54787   0.00000  Uiso   1.00
C382   C     0.19347   0.28252   0.95018   0.00000  Uiso   1.00
C383   C     0.16780   0.24888   0.52742   0.00000  Uiso   1.00
C384   C     0.16813   0.24897   0.97280   0.00000  Uiso   1.00
C385   C     0.06790   0.24995   0.73750   0.00000  Uiso   1.00
C386   C     0.26543   0.25004   0.76249   0.00000  Uiso   1.00
C387   C     0.01254   0.24993   0.73068   0.00000  Uiso   1.00
C388   C     0.32079   0.25004   0.76929   0.00000  Uiso   1.00
C389   C     0.14655   0.04805   0.78692   0.00000  Uiso   1.00
C390   C     0.15002   0.45164   0.70575   0.00000  Uiso   1.00
C391   C     0.14781   0.09393   0.78737   0.00000  Uiso   1.00
C392   C     0.15107   0.40574   0.70612   0.00000  Uiso   1.00
C393   C     0.16525   0.11680   0.74921   0.00000  Uiso   1.00
C394   C     0.16510   0.38336   0.74986   0.00000  Uiso   1.00
C395   C     0.18145   0.09331   0.71058   0.00000  Uiso   1.00
C396   C     0.17804   0.40752   0.79313   0.00000  Uiso   1.00
C397   C     0.18097   0.04740   0.71050   0.00000  Uiso   1.00
C398   C     0.17776   0.45338   0.79270   0.00000  Uiso   1.00
C399   C     0.16351   0.02439   0.74868   0.00000  Uiso   1.00
C400   C     0.16364   0.47584   0.74902   0.00000  Uiso   1.00
Cu401  Cu    0.16667   0.24999   0.79822   0.00000  Uiso   1.00
Cu402  Cu    0.16667   0.25000   0.70179   0.00000  Uiso   1.00
H403   H     0.32569   0.24983   0.69371   0.00000  Uiso   1.00
H404   H     0.00765   0.25012   0.80626   0.00000  Uiso   1.00
H405   H     0.13195   0.03113   0.81630   0.00000  Uiso   1.00
H406   H     0.13809   0.46813   0.67171   0.00000  Uiso   1.00
H407   H     0.13453   0.11148   0.81725   0.00000  Uiso   1.00
H408   H     0.14038   0.38781   0.67226   0.00000  Uiso   1.00
H409   H     0.19533   0.11041   0.68091   0.00000  Uiso   1.00
H410   H     0.18912   0.39111   0.82718   0.00000  Uiso   1.00
H411   H     0.19505   0.02994   0.68100   0.00000  Uiso   1.00
H412   H     0.18933   0.47123   0.82646   0.00000  Uiso   1.00
H413   H     0.24422   0.27813   0.54765   0.00000  Uiso   1.00
H414   H     0.12505   0.18743   0.95693   0.00000  Uiso   1.00
H415   H     0.23955   0.28211   0.63448   0.00000  Uiso   1.00
H416   H     0.12126   0.19160   0.86885   0.00000  Uiso   1.00
N417   N     0.16667   0.25001   0.62935   0.00000  Uiso   1.00
N418   N     0.16667   0.24999   0.87066   0.00000  Uiso   1.00
O419   O     0.16667   0.18572   0.79072   0.00000  Uiso   1.00
O420   O     0.16666   0.31427   0.70929   0.00000  Uiso   1.00
O421   O     0.16667   0.18573   0.70928   0.00000  Uiso   1.00
O422   O     0.16666   0.31427   0.79072   0.00000  Uiso   1.00
O423   O     0.09161   0.24999   0.78132   0.00000  Uiso   1.00
O424   O     0.24172   0.25000   0.71868   0.00000  Uiso   1.00
O425   O     0.09161   0.25000   0.69989   0.00000  Uiso   1.00
O426   O     0.24172   0.25000   0.80012   0.00000  Uiso   1.00
N427   N     0.08670   0.20764   0.61825   0.00000  Uiso   1.00
H428   H     0.05151   0.22191   0.60443   0.00000  Uiso   1.00
H429   H     0.08597   0.17482   0.60618   0.00000  Uiso   1.00
N430   N     0.22469   0.31315   0.87839   0.00000  Uiso   1.00
H431   H     0.26324   0.30845   0.89311   0.00000  Uiso   1.00
H432   H     0.21436   0.34456   0.88918   0.00000  Uiso   1.00
F433   F     0.08286   0.21609   0.51917   0.00000  Uiso   1.00
F434   F     0.21672   0.31709   0.97635   0.00000  Uiso   1.00
C435   C     0.49966   0.16500   0.74975   0.00000  Uiso   1.00
C436   C     0.49962   0.33506   0.75008   0.00000  Uiso   1.00
C437   C     0.54288   0.26614   0.56025   0.00000  Uiso   1.00
C438   C     0.47643   0.21545   0.94216   0.00000  Uiso   1.00
C439   C     0.54087   0.26759   0.61050   0.00000  Uiso   1.00
C440   C     0.47499   0.21721   0.89147   0.00000  Uiso   1.00
C441   C     0.46026   0.23048   0.59874   0.00000  Uiso   1.00
C442   C     0.52737   0.28150   0.89949   0.00000  Uiso   1.00
C443   C     0.45910   0.23148   0.54787   0.00000  Uiso   1.00
C444   C     0.52681   0.28252   0.95018   0.00000  Uiso   1.00
C445   C     0.50113   0.24888   0.52742   0.00000  Uiso   1.00
C446   C     0.50146   0.24897   0.97280   0.00000  Uiso   1.00
C447   C     0.40123   0.24995   0.73750   0.00000  Uiso   1.00
C448   C     0.59876   0.25004   0.76249   0.00000  Uiso   1.00
C449   C     0.34587   0.24993   0.73068   0.00000  Uiso   1.00
C450   C     0.65413   0.25004   0.76929   0.00000  Uiso   1.00
C451   C     0.47989   0.04805   0.78692   0.00000  Uiso   1.00
C452   C     0.48335   0.45164   0.70575   0.00000  Uiso   1.00
C453   C     0.48114   0.09393   0.78737   0.00000  Uiso   1.00
C454   C     0.48440   0.40574   0.70612   0.00000  Uiso   1.00
C455   C     0.49858   0.11680   0.74921   0.00000  Uiso   1.00
C456   C     0.49843   0.38336   0.74986   0.00000  Uiso   1.00
C457   C     0.51478   0.09331   0.71058   0.00000  Uiso   1.00
C458   C     0.51137   0.40752   0.79313   0.00000  Uiso   1.00
C459   C     0.51430   0.04740   0.71050   0.00000  Uiso   1.00
C460   C     0.51109   0.45338   0.79270   0.00000  Uiso   1.00
C461   C     0.49685   0.02439   0.74868   0.00000  Uiso   1.00
C462   C     0.49697   0.47584   0.74902   0.00000  Uiso   1.00
Cu463  Cu    0.50000   0.24999   0.79822   0.00000  Uiso   1.00
Cu464  Cu    0.50000   0.25000   0.70179   0.00000  Uiso   1.00
H465   H     0.65903   0.24983   0.69371   0.00000  Uiso   1.00
H466   H     0.34099   0.25012   0.80626   0.00000  Uiso   1.00
H467   H     0.46528   0.03113   0.81630   0.00000  Uiso   1.00
H468   H     0.47142   0.46813   0.67171   0.00000  Uiso   1.00
H469   H     0.46787   0.11148   0.81725   0.00000  Uiso   1.00
H470   H     0.47371   0.38781   0.67226   0.00000  Uiso   1.00
H471   H     0.52866   0.11041   0.68091   0.00000  Uiso   1.00
H472   H     0.52245   0.39111   0.82718   0.00000  Uiso   1.00
H473   H     0.52838   0.02994   0.68100   0.00000  Uiso   1.00
H474   H     0.52266   0.47123   0.82646   0.00000  Uiso   1.00
H475   H     0.57755   0.27813   0.54765   0.00000  Uiso   1.00
H476   H     0.45838   0.18743   0.95693   0.00000  Uiso   1.00
H477   H     0.57288   0.28211   0.63448   0.00000  Uiso   1.00
H478   H     0.45459   0.19160   0.86885   0.00000  Uiso   1.00
N479   N     0.50000   0.25001   0.62935   0.00000  Uiso   1.00
N480   N     0.50000   0.24999   0.87066   0.00000  Uiso   1.00
O481   O     0.50000   0.18572   0.79072   0.00000  Uiso   1.00
O482   O     0.50000   0.31427   0.70929   0.00000  Uiso   1.00
O483   O     0.50000   0.18573   0.70928   0.00000  Uiso   1.00
O484   O     0.50000   0.31427   0.79072   0.00000  Uiso   1.00
O485   O     0.42495   0.24999   0.78132   0.00000  Uiso   1.00
O486   O     0.57505   0.25000   0.71868   0.00000  Uiso   1.00
O487   O     0.42495   0.25000   0.69989   0.00000  Uiso   1.00
O488   O     0.57505   0.25000   0.80012   0.00000  Uiso   1.00
N489   N     0.42003   0.20764   0.61825   0.00000  Uiso   1.00
H490   H     0.38484   0.22191   0.60443   0.00000  Uiso   1.00
H491   H     0.41930   0.17482   0.60618   0.00000  Uiso   1.00
N492   N     0.55802   0.31315   0.87839   0.00000  Uiso   1.00
H493   H     0.59657   0.30845   0.89311   0.00000  Uiso   1.00
H494   H     0.54769   0.34456   0.88918   0.00000  Uiso   1.00
F495   F     0.41620   0.21609   0.51917   0.00000  Uiso   1.00
F496   F     0.55005   0.31709   0.97635   0.00000  Uiso   1.00
C497   C     0.83300   0.16500   0.74975   0.00000  Uiso   1.00
C498   C     0.83295   0.33506   0.75008   0.00000  Uiso   1.00
C499   C     0.87621   0.26614   0.56025   0.00000  Uiso   1.00
C500   C     0.80976   0.21545   0.94216   0.00000  Uiso   1.00
C501   C     0.87420   0.26759   0.61050   0.00000  Uiso   1.00
C502   C     0.80833   0.21721   0.89147   0.00000  Uiso   1.00
C503   C     0.79360   0.23048   0.59874   0.00000  Uiso   1.00
C504   C     0.86071   0.28150   0.89949   0.00000  Uiso   1.00
C505   C     0.79243   0.23148   0.54787   0.00000  Uiso   1.00
C506   C     0.86014   0.28252   0.95018   0.00000  Uiso   1.00
C507   C     0.83446   0.24888   0.52742   0.00000  Uiso   1.00
C508   C     0.83480   0.24897   0.97280   0.00000  Uiso   1.00
C509   C     0.73457   0.24995   0.73750   0.00000  Uiso   1.00
C510   C     0.93210   0.25004   0.76249   0.00000  Uiso   1.00
C511   C     0.67920   0.24993   0.73068   0.00000  Uiso   1.00
C512   C     0.98746   0.25004   0.76929   0.00000  Uiso   1.00
C513   C     0.81322   0.04805   0.78692   0.00000  Uiso   1.00
C514   C     0.81668   0.45164   0.70575   0.00000  Uiso   1.00
C515   C     0.81447   0.09393   0.78737   0.00000  Uiso   1.00
C516   C     0.81774   0.40574   0.70612   0.00000  Uiso   1.00
C517   C     0.83191   0.11680   0.74921   0.00000  Uiso   1.00
C518   C     0.83176   0.38336   0.74986   0.00000  Uiso   1.00
C519   C     0.84812   0.09331   0.71058   0.00000  Uiso   1.00
C520   C     0.84470   0.40752   0.79313   0.00000  Uiso   1.00
C521   C     0.84764   0.04740   0.71050   0.00000  Uiso   1.00
C522   C     0.84443   0.45338   0.79270   0.00000  Uiso   1.00
C523   C     0.83018   0.02439   0.74868   0.00000  Uiso   1.00
C524   C     0.83031   0.47584   0.74902   0.00000  Uiso   1.00
Cu525  Cu    0.83333   0.24999   0.79822   0.00000  Uiso   1.00
Cu526  Cu    0.83333   0.25000   0.70179   0.00000  Uiso   1.00
H527   H     0.99236   0.24983   0.69371   0.00000  Uiso   1.00
H528   H     0.67432   0.25012   0.80626   0.00000  Uiso   1.00
H529   H     0.79861   0.03113   0.81630   0.00000  Uiso   1.00
H530   H     0.80475   0.46813   0.67171   0.00000  Uiso   1.00
H531   H     0.80120   0.11148   0.81725   0.00000  Uiso   1.00
H532   H     0.80705   0.38781   0.67226   0.00000  Uiso   1.00
H533   H     0.86200   0.11041   0.68091   0.00000  Uiso   1.00
H534   H     0.85578   0.39111   0.82718   0.00000  Uiso   1.00
H535   H     0.86172   0.02994   0.68100   0.00000  Uiso   1.00
H536   H     0.85599   0.47123   0.82646   0.00000  Uiso   1.00
H537   H     0.91088   0.27813   0.54765   0.00000  Uiso   1.00
H538   H     0.79171   0.18743   0.95693   0.00000  Uiso   1.00
H539   H     0.90622   0.28211   0.63448   0.00000  Uiso   1.00
H540   H     0.78792   0.19160   0.86885   0.00000  Uiso   1.00
N541   N     0.83333   0.25001   0.62935   0.00000  Uiso   1.00
N542   N     0.83333   0.24999   0.87066   0.00000  Uiso   1.00
O543   O     0.83334   0.18572   0.79072   0.00000  Uiso   1.00
O544   O     0.83333   0.31427   0.70929   0.00000  Uiso   1.00
O545   O     0.83334   0.18573   0.70928   0.00000  Uiso   1.00
O546   O     0.83333   0.31427   0.79072   0.00000  Uiso   1.00
O547   O     0.75828   0.24999   0.78132   0.00000  Uiso   1.00
O548   O     0.90839   0.25000   0.71868   0.00000  Uiso   1.00
O549   O     0.75828   0.25000   0.69989   0.00000  Uiso   1.00
O550   O     0.90839   0.25000   0.80012   0.00000  Uiso   1.00
N551   N     0.75336   0.20764   0.61825   0.00000  Uiso   1.00
H552   H     0.71817   0.22191   0.60443   0.00000  Uiso   1.00
H553   H     0.75264   0.17482   0.60618   0.00000  Uiso   1.00
N554   N     0.89135   0.31315   0.87839   0.00000  Uiso   1.00
H555   H     0.92991   0.30845   0.89311   0.00000  Uiso   1.00
H556   H     0.88103   0.34456   0.88918   0.00000  Uiso   1.00
F557   F     0.74953   0.21609   0.51917   0.00000  Uiso   1.00
F558   F     0.88338   0.31709   0.97635   0.00000  Uiso   1.00
C559   C     0.16633   0.66500   0.74975   0.00000  Uiso   1.00
C560   C     0.16628   0.83506   0.75008   0.00000  Uiso   1.00
C561   C     0.20954   0.76614   0.56025   0.00000  Uiso   1.00
C562   C     0.14309   0.71545   0.94216   0.00000  Uiso   1.00
C563   C     0.20754   0.76759   0.61050   0.00000  Uiso   1.00
C564   C     0.14166   0.71721   0.89147   0.00000  Uiso   1.00
C565   C     0.12693   0.73048   0.59874   0.00000  Uiso   1.00
C566   C     0.19404   0.78150   0.89949   0.00000  Uiso   1.00
C567   C     0.12577   0.73148   0.54787   0.00000  Uiso   1.00
C568   C     0.19347   0.78252   0.95018   0.00000  Uiso   1.00
C569   C     0.16780   0.74888   0.52742   0.00000  Uiso   1.00
C570   C     0.16813   0.74897   0.97280   0.00000  Uiso   1.00
C571   C     0.06790   0.74995   0.73750   0.00000  Uiso   1.00
C572   C     0.26543   0.75004   0.76249   0.00000  Uiso   1.00
C573   C     0.01254   0.74993   0.73068   0.00000  Uiso   1.00
C574   C     0.32079   0.75004   0.76929   0.00000  Uiso   1.00
C575   C     0.14655   0.54805   0.78692   0.00000  Uiso   1.00
C576   C     0.15002   0.95164   0.70575   0.00000  Uiso   1.00
C577   C     0.14781   0.59393   0.78737   0.00000  Uiso   1.00
C578   C     0.15107   0.90574   0.70612   0.00000  Uiso   1.00
C579   C     0.16525   0.61680   0.74921   0.00000  Uiso   1.00
C580   C     0.16510   0.88336   0.74986   0.00000  Uiso   1.00
C581   C     0.18145   0.59331   0.71058   0.00000  Uiso   1.00
C582   C     0.17804   0.90752   0.79313   0.00000  Uiso   1.00
C583   C     0.18097   0.54740   0.71050   0.00000  Uiso   1.00
C584   C     0.17776   0.95338   0.79270   0.00000  Uiso   1.00
C585   C     0.16351   0.52439   0.74868   0.00000  Uiso   1.00
C586   C     0.16364   0.97584   0.74902   0.00000  Uiso   1.00
Cu587  Cu    0.16667   0.74999   0.79822   0.00000  Uiso   1.00
Cu588  Cu    0.16667   0.75000   0.70179   0.00000  Uiso   1.00
H589   H     0.32569   0.74983   0.69371   0.00000  Uiso   1.00
H590   H     0.00765   0.75012   0.80626   0.00000  Uiso   1.00
H591   H     0.13195   0.53113   0.81630   0.00000  Uiso   1.00
H592   H     0.13809   0.96813   0.67171   0.00000  Uiso   1.00
H593   H     0.13453   0.61148   0.81725   0.00000  Uiso   1.00
H594   H     0.14038   0.88781   0.67226   0.00000  Uiso   1.00
H595   H     0.19533   0.61041   0.68091   0.00000  Uiso   1.00
H596   H     0.18912   0.89111   0.82718   0.00000  Uiso   1.00
H597   H     0.19505   0.52994   0.68100   0.00000  Uiso   1.00
H598   H     0.18933   0.97123   0.82646   0.00000  Uiso   1.00
H599   H     0.24422   0.77813   0.54765   0.00000  Uiso   1.00
H600   H     0.12505   0.68743   0.95693   0.00000  Uiso   1.00
H601   H     0.23955   0.78211   0.63448   0.00000  Uiso   1.00
H602   H     0.12126   0.69160   0.86885   0.00000  Uiso   1.00
N603   N     0.16667   0.75001   0.62935   0.00000  Uiso   1.00
N604   N     0.16667   0.74999   0.87066   0.00000  Uiso   1.00
O605   O     0.16667   0.68572   0.79072   0.00000  Uiso   1.00
O606   O     0.16666   0.81427   0.70929   0.00000  Uiso   1.00
O607   O     0.16667   0.68573   0.70928   0.00000  Uiso   1.00
O608   O     0.16666   0.81427   0.79072   0.00000  Uiso   1.00
O609   O     0.09161   0.74999   0.78132   0.00000  Uiso   1.00
O610   O     0.24172   0.75000   0.71868   0.00000  Uiso   1.00
O611   O     0.09161   0.75000   0.69989   0.00000  Uiso   1.00
O612   O     0.24172   0.75000   0.80012   0.00000  Uiso   1.00
N613   N     0.08670   0.70764   0.61825   0.00000  Uiso   1.00
H614   H     0.05151   0.72191   0.60443   0.00000  Uiso   1.00
H615   H     0.08597   0.67482   0.60618   0.00000  Uiso   1.00
N616   N     0.22469   0.81315   0.87839   0.00000  Uiso   1.00
H617   H     0.26324   0.80845   0.89311   0.00000  Uiso   1.00
H618   H     0.21436   0.84456   0.88918   0.00000  Uiso   1.00
F619   F     0.08286   0.71609   0.51917   0.00000  Uiso   1.00
F620   F     0.21672   0.81709   0.97635   0.00000  Uiso   1.00
C621   C     0.49966   0.66500   0.74975   0.00000  Uiso   1.00
C622   C     0.49962   0.83506   0.75008   0.00000  Uiso   1.00
C623   C     0.54288   0.76614   0.56025   0.00000  Uiso   1.00
C624   C     0.47643   0.71545   0.94216   0.00000  Uiso   1.00
C625   C     0.54087   0.76759   0.61050   0.00000  Uiso   1.00
C626   C     0.47499   0.71721   0.89147   0.00000  Uiso   1.00
C627   C     0.46026   0.73048   0.59874   0.00000  Uiso   1.00
C628   C     0.52737   0.78150   0.89949   0.00000  Uiso   1.00
C629   C     0.45910   0.73148   0.54787   0.00000  Uiso   1.00
C630   C     0.52681   0.78252   0.95018   0.00000  Uiso   1.00
C631   C     0.50113   0.74888   0.52742   0.00000  Uiso   1.00
C632   C     0.50146   0.74897   0.97280   0.00000  Uiso   1.00
C633   C     0.40123   0.74995   0.73750   0.00000  Uiso   1.00
C634   C     0.59876   0.75004   0.76249   0.00000  Uiso   1.00
C635   C     0.34587   0.74993   0.73068   0.00000  Uiso   1.00
C636   C     0.65413   0.75004   0.76929   0.00000  Uiso   1.00
C637   C     0.47989   0.54805   0.78692   0.00000  Uiso   1.00
C638   C     0.48335   0.95164   0.70575   0.00000  Uiso   1.00
C639   C     0.48114   0.59393   0.78737   0.00000  Uiso   1.00
C640   C     0.48440   0.90574   0.70612   0.00000  Uiso   1.00
C641   C     0.49858   0.61680   0.74921   0.00000  Uiso   1.00
C642   C     0.49843   0.88336   0.74986   0.00000  Uiso   1.00
C643   C     0.51478   0.59331   0.71058   0.00000  Uiso   1.00
C644   C     0.51137   0.90752   0.79313   0.00000  Uiso   1.00
C645   C     0.51430   0.54740   0.71050   0.00000  Uiso   1.00
C646   C     0.51109   0.95338   0.79270   0.00000  Uiso   1.00
C647   C     0.49685   0.52439   0.74868   0.00000  Uiso   1.00
C648   C     0.49697   0.97584   0.74902   0.00000  Uiso   1.00
Cu649  Cu    0.50000   0.74999   0.79822   0.00000  Uiso   1.00
Cu650  Cu    0.50000   0.75000   0.70179   0.00000  Uiso   1.00
H651   H     0.65903   0.74983   0.69371   0.00000  Uiso   1.00
H652   H     0.34099   0.75012   0.80626   0.00000  Uiso   1.00
H653   H     0.46528   0.53113   0.81630   0.00000  Uiso   1.00
H654   H     0.47142   0.96813   0.67171   0.00000  Uiso   1.00
H655   H     0.46787   0.61148   0.81725   0.00000  Uiso   1.00
H656   H     0.47371   0.88781   0.67226   0.00000  Uiso   1.00
H657   H     0.52866   0.61041   0.68091   0.00000  Uiso   1.00
H658   H     0.52245   0.89111   0.82718   0.00000  Uiso   1.00
H659   H     0.52838   0.52994   0.68100   0.00000  Uiso   1.00
H660   H     0.52266   0.97123   0.82646   0.00000  Uiso   1.00
H661   H     0.57755   0.77813   0.54765   0.00000  Uiso   1.00
H662   H     0.45838   0.68743   0.95693   0.00000  Uiso   1.00
H663   H     0.57288   0.78211   0.63448   0.00000  Uiso   1.00
H664   H     0.45459   0.69160   0.86885   0.00000  Uiso   1.00
N665   N     0.50000   0.75001   0.62935   0.00000  Uiso   1.00
N666   N     0.50000   0.74999   0.87066   0.00000  Uiso   1.00
O667   O     0.50000   0.68572   0.79072   0.00000  Uiso   1.00
O668   O     0.50000   0.81427   0.70929   0.00000  Uiso   1.00
O669   O     0.50000   0.68573   0.70928   0.00000  Uiso   1.00
O670   O     0.50000   0.81427   0.79072   0.00000  Uiso   1.00
O671   O     0.42495   0.74999   0.78132   0.00000  Uiso   1.00
O672   O     0.57505   0.75000   0.71868   0.00000  Uiso   1.00
O673   O     0.42495   0.75000   0.69989   0.00000  Uiso   1.00
O674   O     0.57505   0.75000   0.80012   0.00000  Uiso   1.00
N675   N     0.42003   0.70764   0.61825   0.00000  Uiso   1.00
H676   H     0.38484   0.72191   0.60443   0.00000  Uiso   1.00
H677   H     0.41930   0.67482   0.60618   0.00000  Uiso   1.00
N678   N     0.55802   0.81315   0.87839   0.00000  Uiso   1.00
H679   H     0.59657   0.80845   0.89311   0.00000  Uiso   1.00
H680   H     0.54769   0.84456   0.88918   0.00000  Uiso   1.00
F681   F     0.41620   0.71609   0.51917   0.00000  Uiso   1.00
F682   F     0.55005   0.81709   0.97635   0.00000  Uiso   1.00
C683   C     0.83300   0.66500   0.74975   0.00000  Uiso   1.00
C684   C     0.83295   0.83506   0.75008   0.00000  Uiso   1.00
C685   C     0.87621   0.76614   0.56025   0.00000  Uiso   1.00
C686   C     0.80976   0.71545   0.94216   0.00000  Uiso   1.00
C687   C     0.87420   0.76759   0.61050   0.00000  Uiso   1.00
C688   C     0.80833   0.71721   0.89147   0.00000  Uiso   1.00
C689   C     0.79360   0.73048   0.59874   0.00000  Uiso   1.00
C690   C     0.86071   0.78150   0.89949   0.00000  Uiso   1.00
C691   C     0.79243   0.73148   0.54787   0.00000  Uiso   1.00
C692   C     0.86014   0.78252   0.95018   0.00000  Uiso   1.00
C693   C     0.83446   0.74888   0.52742   0.00000  Uiso   1.00
C694   C     0.83480   0.74897   0.97280   0.00000  Uiso   1.00
C695   C     0.73457   0.74995   0.73750   0.00000  Uiso   1.00
C696   C     0.93210   0.75004   0.76249   0.00000  Uiso   1.00
C697   C     0.67920   0.74993   0.73068   0.00000  Uiso   1.00
C698   C     0.98746   0.75004   0.76929   0.00000  Uiso   1.00
C699   C     0.81322   0.54805   0.78692   0.00000  Uiso   1.00
C700   C     0.81668   0.95164   0.70575   0.00000  Uiso   1.00
C701   C     0.81447   0.59393   0.78737   0.00000  Uiso   1.00
C702   C     0.81774   0.90574   0.70612   0.00000  Uiso   1.00
C703   C     0.83191   0.61680   0.74921   0.00000  Uiso   1.00
C704   C     0.83176   0.88336   0.74986   0.00000  Uiso   1.00
C705   C     0.84812   0.59331   0.71058   0.00000  Uiso   1.00
C706   C     0.84470   0.90752   0.79313   0.00000  Uiso   1.00
C707   C     0.84764   0.54740   0.71050   0.00000  Uiso   1.00
C708   C     0.84443   0.95338   0.79270   0.00000  Uiso   1.00
C709   C     0.83018   0.52439   0.74868   0.00000  Uiso   1.00
C710   C     0.83031   0.97584   0.74902   0.00000  Uiso   1.00
Cu711  Cu    0.83333   0.74999   0.79822   0.00000  Uiso   1.00
Cu712  Cu    0.83333   0.75000   0.70179   0.00000  Uiso   1.00
H713   H     0.99236   0.74983   0.69371   0.00000  Uiso   1.00
H714   H     0.67432   0.75012   0.80626   0.00000  Uiso   1.00
H715   H     0.79861   0.53113   0.81630   0.00000  Uiso   1.00
H716   H     0.80475   0.96813   0.67171   0.00000  Uiso   1.00
H717   H     0.80120   0.61148   0.81725   0.00000  Uiso   1.00
H718   H     0.80705   0.88781   0.67226   0.00000  Uiso   1.00
H719   H     0.86200   0.61041   0.68091   0.00000  Uiso   1.00
H720   H     0.85578   0.89111   0.82718   0.00000  Uiso   1.00
H721   H     0.86172   0.52994   0.68100   0.00000  Uiso   1.00
H722   H     0.85599   0.97123   0.82646   0.00000  Uiso   1.00
H723   H     0.91088   0.77813   0.54765   0.00000  Uiso   1.00
H724   H     0.79171   0.68743   0.95693   0.00000  Uiso   1.00
H725   H     0.90622   0.78211   0.63448   0.00000  Uiso   1.00
H726   H     0.78792   0.69160   0.86885   0.00000  Uiso   1.00
N727   N     0.83333   0.75001   0.62935   0.00000  Uiso   1.00
N728   N     0.83333   0.74999   0.87066   0.00000  Uiso   1.00
O729   O     0.83334   0.68572   0.79072   0.00000  Uiso   1.00
O730   O     0.83333   0.81427   0.70929   0.00000  Uiso   1.00
O731   O     0.83334   0.68573   0.70928   0.00000  Uiso   1.00
O732   O     0.83333   0.81427   0.79072   0.00000  Uiso   1.00
O733   O     0.75828   0.74999   0.78132   0.00000  Uiso   1.00
O734   O     0.90839   0.75000   0.71868   0.00000  Uiso   1.00
O735   O     0.75828   0.75000   0.69989   0.00000  Uiso   1.00
O736   O     0.90839   0.75000   0.80012   0.00000  Uiso   1.00
N737   N     0.75336   0.70764   0.61825   0.00000  Uiso   1.00
H738   H     0.71817   0.72191   0.60443   0.00000  Uiso   1.00
H739   H     0.75264   0.67482   0.60618   0.00000  Uiso   1.00
N740   N     0.89135   0.81315   0.87839   0.00000  Uiso   1.00
H741   H     0.92991   0.80845   0.89311   0.00000  Uiso   1.00
H742   H     0.88103   0.84456   0.88918   0.00000  Uiso   1.00
F743   F     0.74953   0.71609   0.51917   0.00000  Uiso   1.00
F744   F     0.88338   0.81709   0.97635   0.00000  Uiso   1.00
loop_
_geom_bond_atom_site_label_1
_geom_bond_atom_site_label_2
_geom_bond_distance
_geom_bond_site_symmetry_2
_ccdc_geom_bond_type
C1     C21     1.460   .     S
C1     O49     1.296   .     A
C1     O47     1.295   .     A
C2     C22     1.464   .     S
C2     O48     1.294   .     A
C2     O50     1.299   .     A
C3     C11     1.413   .     A
C3     H41     1.080   .     S
C3     C5      1.408   .     A
C4     H42     1.081   .     S
C4     C6      1.408   .     A
C4     C12     1.413   .     A
C5     H43     1.081   .     S
C5     N45     1.364   .     A
C6     H44     1.081   .     S
C6     N46     1.363   .     A
C7     N55     1.429   .     S
C7     N45     1.372   .     A
C7     C9      1.412   .     A
C8     C10     1.413   .     A
C8     N46     1.370   .     A
C8     N58     1.428   .     S
C9     C11     1.410   .     A
C9     F61     1.358   .     S
C10    F62     1.358   .     S
C10    C12     1.411   .     A
C11    C384    1.521   1_554 S
C12    C383    1.521   .     S
C13    C15     1.435   .     S
C13    O53     1.292   .     A
C13    O51     1.287   .     A
C14    O52     1.287   .     A
C14    C16     1.435   .     S
C14    O54     1.292   .     A
C15    C140    1.338   1_455 S
C15    H155    1.087   1_455 S
C16    C77     1.338   .     S
C16    H94     1.087   .     S
C17    H33     1.083   .     S
C17    C19     1.389   .     A
C17    C27     1.404   .     A
C18    H34     1.083   .     S
C18    C28     1.403   .     A
C18    C20     1.391   .     A
C19    C21     1.401   .     A
C19    H35     1.083   .     S
C20    H36     1.083   .     S
C20    C22     1.403   .     A
C21    C23     1.401   .     A
C22    C24     1.400   .     A
C23    C25     1.391   .     A
C23    H37     1.083   .     S
C24    H38     1.078   .     S
C24    C26     1.389   .     A
C25    H39     1.083   .     S
C25    C27     1.404   .     A
C26    C28     1.403   .     A
C26    H40     1.083   .     S
C27    C214    1.471   1_545 S
C28    C213    1.471   .     S
Cu29   Cu30    2.684   .     S
Cu29   N46     2.016   .     S
Cu29   O47     1.956   .     S
Cu29   O50     1.960   .     S
Cu29   O54     1.959   .     S
Cu29   O51     1.955   .     S
Cu30   N45     2.016   .     S
Cu30   O49     1.960   .     S
Cu30   O53     1.959   .     S
Cu30   O48     1.956   .     S
Cu30   O52     1.955   .     S
H31    C77     1.087   .     S
H32    C140    1.087   1_455 S
N55    H56     1.046   .     S
N55    H57     1.046   .     S
N58    H60     1.044   .     S
N58    H59     1.046   .     S
C63    C83     1.460   .     S
C63    O111    1.296   .     A
C63    O109    1.295   .     A
C64    C84     1.464   .     S
C64    O110    1.294   .     A
C64    O112    1.299   .     A
C65    C73     1.413   .     A
C65    H103    1.080   .     S
C65    C67     1.408   .     A
C66    H104    1.081   .     S
C66    C68     1.408   .     A
C66    C74     1.413   .     A
C67    H105    1.081   .     S
C67    N107    1.364   .     A
C68    H106    1.081   .     S
C68    N108    1.363   .     A
C69    N117    1.429   .     S
C69    N107    1.372   .     A
C69    C71     1.412   .     A
C70    C72     1.413   .     A
C70    N108    1.370   .     A
C70    N120    1.428   .     S
C71    C73     1.410   .     A
C71    F123    1.358   .     S
C72    F124    1.358   .     S
C72    C74     1.411   .     A
C73    C446    1.521   1_554 S
C74    C445    1.521   .     S
C75    C77     1.435   .     S
C75    O115    1.292   .     A
C75    O113    1.287   .     A
C76    O114    1.287   .     A
C76    C78     1.435   .     S
C76    O116    1.292   .     A
C78    C139    1.338   .     S
C78    H156    1.087   .     S
C79    H95     1.083   .     S
C79    C81     1.389   .     A
C79    C89     1.404   .     A
C80    H96     1.083   .     S
C80    C90     1.403   .     A
C80    C82     1.391   .     A
C81    C83     1.401   .     A
C81    H97     1.083   .     S
C82    H98     1.083   .     S
C82    C84     1.403   .     A
C83    C85     1.401   .     A
C84    C86     1.400   .     A
C85    C87     1.391   .     A
C85    H99     1.083   .     S
C86    H100    1.078   .     S
C86    C88     1.389   .     A
C87    H101    1.083   .     S
C87    C89     1.404   .     A
C88    C90     1.403   .     A
C88    H102    1.083   .     S
C89    C276    1.471   1_545 S
C90    C275    1.471   .     S
Cu91   Cu92    2.684   .     S
Cu91   N108    2.016   .     S
Cu91   O109    1.956   .     S
Cu91   O112    1.960   .     S
Cu91   O116    1.959   .     S
Cu91   O113    1.955   .     S
Cu92   N107    2.016   .     S
Cu92   O111    1.960   .     S
Cu92   O115    1.959   .     S
Cu92   O110    1.956   .     S
Cu92   O114    1.955   .     S
H93    C139    1.087   .     S
N117   H118    1.046   .     S
N117   H119    1.046   .     S
N120   H122    1.044   .     S
N120   H121    1.046   .     S
C125   C145    1.460   .     S
C125   O173    1.296   .     A
C125   O171    1.295   .     A
C126   C146    1.464   .     S
C126   O172    1.294   .     A
C126   O174    1.299   .     A
C127   C135    1.413   .     A
C127   H165    1.080   .     S
C127   C129    1.408   .     A
C128   H166    1.081   .     S
C128   C130    1.408   .     A
C128   C136    1.413   .     A
C129   H167    1.081   .     S
C129   N169    1.364   .     A
C130   H168    1.081   .     S
C130   N170    1.363   .     A
C131   N179    1.429   .     S
C131   N169    1.372   .     A
C131   C133    1.412   .     A
C132   C134    1.413   .     A
C132   N170    1.370   .     A
C132   N182    1.428   .     S
C133   C135    1.410   .     A
C133   F185    1.358   .     S
C134   F186    1.358   .     S
C134   C136    1.411   .     A
C135   C508    1.521   1_554 S
C136   C507    1.521   .     S
C137   C139    1.435   .     S
C137   O177    1.292   .     A
C137   O175    1.287   .     A
C138   O176    1.287   .     A
C138   C140    1.435   .     S
C138   O178    1.292   .     A
C140   C15     1.338   1_655 S
C140   H32     1.087   1_655 S
C141   H157    1.083   .     S
C141   C143    1.389   .     A
C141   C151    1.404   .     A
C142   H158    1.083   .     S
C142   C152    1.403   .     A
C142   C144    1.391   .     A
C143   C145    1.401   .     A
C143   H159    1.083   .     S
C144   H160    1.083   .     S
C144   C146    1.403   .     A
C145   C147    1.401   .     A
C146   C148    1.400   .     A
C147   C149    1.391   .     A
C147   H161    1.083   .     S
C148   H162    1.078   .     S
C148   C150    1.389   .     A
C149   H163    1.083   .     S
C149   C151    1.404   .     A
C150   C152    1.403   .     A
C150   H164    1.083   .     S
C151   C338    1.471   1_545 S
C152   C337    1.471   .     S
Cu153  Cu154   2.684   .     S
Cu153  N170    2.016   .     S
Cu153  O171    1.956   .     S
Cu153  O174    1.960   .     S
Cu153  O178    1.959   .     S
Cu153  O175    1.955   .     S
Cu154  N169    2.016   .     S
Cu154  O173    1.960   .     S
Cu154  O177    1.959   .     S
Cu154  O172    1.956   .     S
Cu154  O176    1.955   .     S
H155   C15     1.087   1_655 S
N179   H180    1.046   .     S
N179   H181    1.046   .     S
N182   H184    1.044   .     S
N182   H183    1.046   .     S
C187   C207    1.460   .     S
C187   O235    1.296   .     A
C187   O233    1.295   .     A
C188   C208    1.464   .     S
C188   O234    1.294   .     A
C188   O236    1.299   .     A
C189   C197    1.413   .     A
C189   H227    1.080   .     S
C189   C191    1.408   .     A
C190   H228    1.081   .     S
C190   C192    1.408   .     A
C190   C198    1.413   .     A
C191   H229    1.081   .     S
C191   N231    1.364   .     A
C192   H230    1.081   .     S
C192   N232    1.363   .     A
C193   N241    1.429   .     S
C193   N231    1.372   .     A
C193   C195    1.412   .     A
C194   C196    1.413   .     A
C194   N232    1.370   .     A
C194   N244    1.428   .     S
C195   C197    1.410   .     A
C195   F247    1.358   .     S
C196   F248    1.358   .     S
C196   C198    1.411   .     A
C197   C570    1.521   1_554 S
C198   C569    1.521   .     S
C199   C201    1.435   .     S
C199   O239    1.292   .     A
C199   O237    1.287   .     A
C200   O238    1.287   .     A
C200   C202    1.435   .     S
C200   O240    1.292   .     A
C201   C326    1.338   1_455 S
C201   H341    1.087   1_455 S
C202   C263    1.338   .     S
C202   H280    1.087   .     S
C203   H219    1.083   .     S
C203   C205    1.389   .     A
C203   C213    1.404   .     A
C204   H220    1.083   .     S
C204   C214    1.403   .     A
C204   C206    1.391   .     A
C205   C207    1.401   .     A
C205   H221    1.083   .     S
C206   H222    1.083   .     S
C206   C208    1.403   .     A
C207   C209    1.401   .     A
C208   C210    1.400   .     A
C209   C211    1.391   .     A
C209   H223    1.083   .     S
C210   H224    1.078   .     S
C210   C212    1.389   .     A
C211   H225    1.083   .     S
C211   C213    1.404   .     A
C212   C214    1.403   .     A
C212   H226    1.083   .     S
C214   C27     1.471   1_565 S
Cu215  Cu216   2.684   .     S
Cu215  N232    2.016   .     S
Cu215  O233    1.956   .     S
Cu215  O236    1.960   .     S
Cu215  O240    1.959   .     S
Cu215  O237    1.955   .     S
Cu216  N231    2.016   .     S
Cu216  O235    1.960   .     S
Cu216  O239    1.959   .     S
Cu216  O234    1.956   .     S
Cu216  O238    1.955   .     S
H217   C263    1.087   .     S
H218   C326    1.087   1_455 S
N241   H242    1.046   .     S
N241   H243    1.046   .     S
N244   H246    1.044   .     S
N244   H245    1.046   .     S
C249   C269    1.460   .     S
C249   O297    1.296   .     A
C249   O295    1.295   .     A
C250   C270    1.464   .     S
C250   O296    1.294   .     A
C250   O298    1.299   .     A
C251   C259    1.413   .     A
C251   H289    1.080   .     S
C251   C253    1.408   .     A
C252   H290    1.081   .     S
C252   C254    1.408   .     A
C252   C260    1.413   .     A
C253   H291    1.081   .     S
C253   N293    1.364   .     A
C254   H292    1.081   .     S
C254   N294    1.363   .     A
C255   N303    1.429   .     S
C255   N293    1.372   .     A
C255   C257    1.412   .     A
C256   C258    1.413   .     A
C256   N294    1.370   .     A
C256   N306    1.428   .     S
C257   C259    1.410   .     A
C257   F309    1.358   .     S
C258   F310    1.358   .     S
C258   C260    1.411   .     A
C259   C632    1.521   1_554 S
C260   C631    1.521   .     S
C261   C263    1.435   .     S
C261   O301    1.292   .     A
C261   O299    1.287   .     A
C262   O300    1.287   .     A
C262   C264    1.435   .     S
C262   O302    1.292   .     A
C264   C325    1.338   .     S
C264   H342    1.087   .     S
C265   H281    1.083   .     S
C265   C267    1.389   .     A
C265   C275    1.404   .     A
C266   H282    1.083   .     S
C266   C276    1.403   .     A
C266   C268    1.391   .     A
C267   C269    1.401   .     A
C267   H283    1.083   .     S
C268   H284    1.083   .     S
C268   C270    1.403   .     A
C269   C271    1.401   .     A
C270   C272    1.400   .     A
C271   C273    1.391   .     A
C271   H285    1.083   .     S
C272   H286    1.078   .     S
C272   C274    1.389   .     A
C273   H287    1.083   .     S
C273   C275    1.404   .     A
C274   C276    1.403   .     A
C274   H288    1.083   .     S
C276   C89     1.471   1_565 S
Cu277  Cu278   2.684   .     S
Cu277  N294    2.016   .     S
Cu277  O295    1.956   .     S
Cu277  O298    1.960   .     S
Cu277  O302    1.959   .     S
Cu277  O299    1.955   .     S
Cu278  N293    2.016   .     S
Cu278  O297    1.960   .     S
Cu278  O301    1.959   .     S
Cu278  O296    1.956   .     S
Cu278  O300    1.955   .     S
H279   C325    1.087   .     S
N303   H304    1.046   .     S
N303   H305    1.046   .     S
N306   H308    1.044   .     S
N306   H307    1.046   .     S
C311   C331    1.460   .     S
C311   O359    1.296   .     A
C311   O357    1.295   .     A
C312   C332    1.464   .     S
C312   O358    1.294   .     A
C312   O360    1.299   .     A
C313   C321    1.413   .     A
C313   H351    1.080   .     S
C313   C315    1.408   .     A
C314   H352    1.081   .     S
C314   C316    1.408   .     A
C314   C322    1.413   .     A
C315   H353    1.081   .     S
C315   N355    1.364   .     A
C316   H354    1.081   .     S
C316   N356    1.363   .     A
C317   N365    1.429   .     S
C317   N355    1.372   .     A
C317   C319    1.412   .     A
C318   C320    1.413   .     A
C318   N356    1.370   .     A
C318   N368    1.428   .     S
C319   C321    1.410   .     A
C319   F371    1.358   .     S
C320   F372    1.358   .     S
C320   C322    1.411   .     A
C321   C694    1.521   1_554 S
C322   C693    1.521   .     S
C323   C325    1.435   .     S
C323   O363    1.292   .     A
C323   O361    1.287   .     A
C324   O362    1.287   .     A
C324   C326    1.435   .     S
C324   O364    1.292   .     A
C326   C201    1.338   1_655 S
C326   H218    1.087   1_655 S
C327   H343    1.083   .     S
C327   C329    1.389   .     A
C327   C337    1.404   .     A
C328   H344    1.083   .     S
C328   C338    1.403   .     A
C328   C330    1.391   .     A
C329   C331    1.401   .     A
C329   H345    1.083   .     S
C330   H346    1.083   .     S
C330   C332    1.403   .     A
C331   C333    1.401   .     A
C332   C334    1.400   .     A
C333   C335    1.391   .     A
C333   H347    1.083   .     S
C334   H348    1.078   .     S
C334   C336    1.389   .     A
C335   H349    1.083   .     S
C335   C337    1.404   .     A
C336   C338    1.403   .     A
C336   H350    1.083   .     S
C338   C151    1.471   1_565 S
Cu339  Cu340   2.684   .     S
Cu339  N356    2.016   .     S
Cu339  O357    1.956   .     S
Cu339  O360    1.960   .     S
Cu339  O364    1.959   .     S
Cu339  O361    1.955   .     S
Cu340  N355    2.016   .     S
Cu340  O359    1.960   .     S
Cu340  O363    1.959   .     S
Cu340  O358    1.956   .     S
Cu340  O362    1.955   .     S
H341   C201    1.087   1_655 S
N365   H366    1.046   .     S
N365   H367    1.046   .     S
N368   H370    1.044   .     S
N368   H369    1.046   .     S
C373   C393    1.460   .     S
C373   O421    1.296   .     A
C373   O419    1.295   .     A
C374   C394    1.464   .     S
C374   O420    1.294   .     A
C374   O422    1.299   .     A
C375   C383    1.413   .     A
C375   H413    1.080   .     S
C375   C377    1.408   .     A
C376   H414    1.081   .     S
C376   C378    1.408   .     A
C376   C384    1.413   .     A
C377   H415    1.081   .     S
C377   N417    1.364   .     A
C378   H416    1.081   .     S
C378   N418    1.363   .     A
C379   N427    1.429   .     S
C379   N417    1.372   .     A
C379   C381    1.412   .     A
C380   C382    1.413   .     A
C380   N418    1.370   .     A
C380   N430    1.428   .     S
C381   C383    1.410   .     A
C381   F433    1.358   .     S
C382   F434    1.358   .     S
C382   C384    1.411   .     A
C384   C11     1.521   1_556 S
C385   C387    1.435   .     S
C385   O425    1.292   .     A
C385   O423    1.287   .     A
C386   O424    1.287   .     A
C386   C388    1.435   .     S
C386   O426    1.292   .     A
C387   C512    1.338   1_455 S
C387   H527    1.087   1_455 S
C388   C449    1.338   .     S
C388   H466    1.087   .     S
C389   H405    1.083   .     S
C389   C391    1.389   .     A
C389   C399    1.404   .     A
C390   H406    1.083   .     S
C390   C400    1.403   .     A
C390   C392    1.391   .     A
C391   C393    1.401   .     A
C391   H407    1.083   .     S
C392   H408    1.083   .     S
C392   C394    1.403   .     A
C393   C395    1.401   .     A
C394   C396    1.400   .     A
C395   C397    1.391   .     A
C395   H409    1.083   .     S
C396   H410    1.078   .     S
C396   C398    1.389   .     A
C397   H411    1.083   .     S
C397   C399    1.404   .     A
C398   C400    1.403   .     A
C398   H412    1.083   .     S
C399   C586    1.471   1_545 S
C400   C585    1.471   .     S
Cu401  Cu402   2.684   .     S
Cu401  N418    2.016   .     S
Cu401  O419    1.956   .     S
Cu401  O422    1.960   .     S
Cu401  O426    1.959   .     S
Cu401  O423    1.955   .     S
Cu402  N417    2.016   .     S
Cu402  O421    1.960   .     S
Cu402  O425    1.959   .     S
Cu402  O420    1.956   .     S
Cu402  O424    1.955   .     S
H403   C449    1.087   .     S
H404   C512    1.087   1_455 S
N427   H428    1.046   .     S
N427   H429    1.046   .     S
N430   H432    1.044   .     S
N430   H431    1.046   .     S
C435   C455    1.460   .     S
C435   O483    1.296   .     A
C435   O481    1.295   .     A
C436   C456    1.464   .     S
C436   O482    1.294   .     A
C436   O484    1.299   .     A
C437   C445    1.413   .     A
C437   H475    1.080   .     S
C437   C439    1.408   .     A
C438   H476    1.081   .     S
C438   C440    1.408   .     A
C438   C446    1.413   .     A
C439   H477    1.081   .     S
C439   N479    1.364   .     A
C440   H478    1.081   .     S
C440   N480    1.363   .     A
C441   N489    1.429   .     S
C441   N479    1.372   .     A
C441   C443    1.412   .     A
C442   C444    1.413   .     A
C442   N480    1.370   .     A
C442   N492    1.428   .     S
C443   C445    1.410   .     A
C443   F495    1.358   .     S
C444   F496    1.358   .     S
C444   C446    1.411   .     A
C446   C73     1.521   1_556 S
C447   C449    1.435   .     S
C447   O487    1.292   .     A
C447   O485    1.287   .     A
C448   O486    1.287   .     A
C448   C450    1.435   .     S
C448   O488    1.292   .     A
C450   C511    1.338   .     S
C450   H528    1.087   .     S
C451   H467    1.083   .     S
C451   C453    1.389   .     A
C451   C461    1.404   .     A
C452   H468    1.083   .     S
C452   C462    1.403   .     A
C452   C454    1.391   .     A
C453   C455    1.401   .     A
C453   H469    1.083   .     S
C454   H470    1.083   .     S
C454   C456    1.403   .     A
C455   C457    1.401   .     A
C456   C458    1.400   .     A
C457   C459    1.391   .     A
C457   H471    1.083   .     S
C458   H472    1.078   .     S
C458   C460    1.389   .     A
C459   H473    1.083   .     S
C459   C461    1.404   .     A
C460   C462    1.403   .     A
C460   H474    1.083   .     S
C461   C648    1.471   1_545 S
C462   C647    1.471   .     S
Cu463  Cu464   2.684   .     S
Cu463  N480    2.016   .     S
Cu463  O481    1.956   .     S
Cu463  O484    1.960   .     S
Cu463  O488    1.959   .     S
Cu463  O485    1.955   .     S
Cu464  N479    2.016   .     S
Cu464  O483    1.960   .     S
Cu464  O487    1.959   .     S
Cu464  O482    1.956   .     S
Cu464  O486    1.955   .     S
H465   C511    1.087   .     S
N489   H490    1.046   .     S
N489   H491    1.046   .     S
N492   H494    1.044   .     S
N492   H493    1.046   .     S
C497   C517    1.460   .     S
C497   O545    1.296   .     A
C497   O543    1.295   .     A
C498   C518    1.464   .     S
C498   O544    1.294   .     A
C498   O546    1.299   .     A
C499   C507    1.413   .     A
C499   H537    1.080   .     S
C499   C501    1.408   .     A
C500   H538    1.081   .     S
C500   C502    1.408   .     A
C500   C508    1.413   .     A
C501   H539    1.081   .     S
C501   N541    1.364   .     A
C502   H540    1.081   .     S
C502   N542    1.363   .     A
C503   N551    1.429   .     S
C503   N541    1.372   .     A
C503   C505    1.412   .     A
C504   C506    1.413   .     A
C504   N542    1.370   .     A
C504   N554    1.428   .     S
C505   C507    1.410   .     A
C505   F557    1.358   .     S
C506   F558    1.358   .     S
C506   C508    1.411   .     A
C508   C135    1.521   1_556 S
C509   C511    1.435   .     S
C509   O549    1.292   .     A
C509   O547    1.287   .     A
C510   O548    1.287   .     A
C510   C512    1.435   .     S
C510   O550    1.292   .     A
C512   C387    1.338   1_655 S
C512   H404    1.087   1_655 S
C513   H529    1.083   .     S
C513   C515    1.389   .     A
C513   C523    1.404   .     A
C514   H530    1.083   .     S
C514   C524    1.403   .     A
C514   C516    1.391   .     A
C515   C517    1.401   .     A
C515   H531    1.083   .     S
C516   H532    1.083   .     S
C516   C518    1.403   .     A
C517   C519    1.401   .     A
C518   C520    1.400   .     A
C519   C521    1.391   .     A
C519   H533    1.083   .     S
C520   H534    1.078   .     S
C520   C522    1.389   .     A
C521   H535    1.083   .     S
C521   C523    1.404   .     A
C522   C524    1.403   .     A
C522   H536    1.083   .     S
C523   C710    1.471   1_545 S
C524   C709    1.471   .     S
Cu525  Cu526   2.684   .     S
Cu525  N542    2.016   .     S
Cu525  O543    1.956   .     S
Cu525  O546    1.960   .     S
Cu525  O550    1.959   .     S
Cu525  O547    1.955   .     S
Cu526  N541    2.016   .     S
Cu526  O545    1.960   .     S
Cu526  O549    1.959   .     S
Cu526  O544    1.956   .     S
Cu526  O548    1.955   .     S
H527   C387    1.087   1_655 S
N551   H552    1.046   .     S
N551   H553    1.046   .     S
N554   H556    1.044   .     S
N554   H555    1.046   .     S
C559   C579    1.460   .     S
C559   O607    1.296   .     A
C559   O605    1.295   .     A
C560   C580    1.464   .     S
C560   O606    1.294   .     A
C560   O608    1.299   .     A
C561   C569    1.413   .     A
C561   H599    1.080   .     S
C561   C563    1.408   .     A
C562   H600    1.081   .     S
C562   C564    1.408   .     A
C562   C570    1.413   .     A
C563   H601    1.081   .     S
C563   N603    1.364   .     A
C564   H602    1.081   .     S
C564   N604    1.363   .     A
C565   N613    1.429   .     S
C565   N603    1.372   .     A
C565   C567    1.412   .     A
C566   C568    1.413   .     A
C566   N604    1.370   .     A
C566   N616    1.428   .     S
C567   C569    1.410   .     A
C567   F619    1.358   .     S
C568   F620    1.358   .     S
C568   C570    1.411   .     A
C570   C197    1.521   1_556 S
C571   C573    1.435   .     S
C571   O611    1.292   .     A
C571   O609    1.287   .     A
C572   O610    1.287   .     A
C572   C574    1.435   .     S
C572   O612    1.292   .     A
C573   C698    1.338   1_455 S
C573   H713    1.087   1_455 S
C574   C635    1.338   .     S
C574   H652    1.087   .     S
C575   H591    1.083   .     S
C575   C577    1.389   .     A
C575   C585    1.404   .     A
C576   H592    1.083   .     S
C576   C586    1.403   .     A
C576   C578    1.391   .     A
C577   C579    1.401   .     A
C577   H593    1.083   .     S
C578   H594    1.083   .     S
C578   C580    1.403   .     A
C579   C581    1.401   .     A
C580   C582    1.400   .     A
C581   C583    1.391   .     A
C581   H595    1.083   .     S
C582   H596    1.078   .     S
C582   C584    1.389   .     A
C583   H597    1.083   .     S
C583   C585    1.404   .     A
C584   C586    1.403   .     A
C584   H598    1.083   .     S
C586   C399    1.471   1_565 S
Cu587  Cu588   2.684   .     S
Cu587  N604    2.016   .     S
Cu587  O605    1.956   .     S
Cu587  O608    1.960   .     S
Cu587  O612    1.959   .     S
Cu587  O609    1.955   .     S
Cu588  N603    2.016   .     S
Cu588  O607    1.960   .     S
Cu588  O611    1.959   .     S
Cu588  O606    1.956   .     S
Cu588  O610    1.955   .     S
H589   C635    1.087   .     S
H590   C698    1.087   1_455 S
N613   H614    1.046   .     S
N613   H615    1.046   .     S
N616   H618    1.044   .     S
N616   H617    1.046   .     S
C621   C641    1.460   .     S
C621   O669    1.296   .     A
C621   O667    1.295   .     A
C622   C642    1.464   .     S
C622   O668    1.294   .     A
C622   O670    1.299   .     A
C623   C631    1.413   .     A
C623   H661    1.080   .     S
C623   C625    1.408   .     A
C624   H662    1.081   .     S
C624   C626    1.408   .     A
C624   C632    1.413   .     A
C625   H663    1.081   .     S
C625   N665    1.364   .     A
C626   H664    1.081   .     S
C626   N666    1.363   .     A
C627   N675    1.429   .     S
C627   N665    1.372   .     A
C627   C629    1.412   .     A
C628   C630    1.413   .     A
C628   N666    1.370   .     A
C628   N678    1.428   .     S
C629   C631    1.410   .     A
C629   F681    1.358   .     S
C630   F682    1.358   .     S
C630   C632    1.411   .     A
C632   C259    1.521   1_556 S
C633   C635    1.435   .     S
C633   O673    1.292   .     A
C633   O671    1.287   .     A
C634   O672    1.287   .     A
C634   C636    1.435   .     S
C634   O674    1.292   .     A
C636   C697    1.338   .     S
C636   H714    1.087   .     S
C637   H653    1.083   .     S
C637   C639    1.389   .     A
C637   C647    1.404   .     A
C638   H654    1.083   .     S
C638   C648    1.403   .     A
C638   C640    1.391   .     A
C639   C641    1.401   .     A
C639   H655    1.083   .     S
C640   H656    1.083   .     S
C640   C642    1.403   .     A
C641   C643    1.401   .     A
C642   C644    1.400   .     A
C643   C645    1.391   .     A
C643   H657    1.083   .     S
C644   H658    1.078   .     S
C644   C646    1.389   .     A
C645   H659    1.083   .     S
C645   C647    1.404   .     A
C646   C648    1.403   .     A
C646   H660    1.083   .     S
C648   C461    1.471   1_565 S
Cu649  Cu650   2.684   .     S
Cu649  N666    2.016   .     S
Cu649  O667    1.956   .     S
Cu649  O670    1.960   .     S
Cu649  O674    1.959   .     S
Cu649  O671    1.955   .     S
Cu650  N665    2.016   .     S
Cu650  O669    1.960   .     S
Cu650  O673    1.959   .     S
Cu650  O668    1.956   .     S
Cu650  O672    1.955   .     S
H651   C697    1.087   .     S
N675   H676    1.046   .     S
N675   H677    1.046   .     S
N678   H680    1.044   .     S
N678   H679    1.046   .     S
C683   C703    1.460   .     S
C683   O731    1.296   .     A
C683   O729    1.295   .     A
C684   C704    1.464   .     S
C684   O730    1.294   .     A
C684   O732    1.299   .     A
C685   C693    1.413   .     A
C685   H723    1.080   .     S
C685   C687    1.408   .     A
C686   H724    1.081   .     S
C686   C688    1.408   .     A
C686   C694    1.413   .     A
C687   H725    1.081   .     S
C687   N727    1.364   .     A
C688   H726    1.081   .     S
C688   N728    1.363   .     A
C689   N737    1.429   .     S
C689   N727    1.372   .     A
C689   C691    1.412   .     A
C690   C692    1.413   .     A
C690   N728    1.370   .     A
C690   N740    1.428   .     S
C691   C693    1.410   .     A
C691   F743    1.358   .     S
C692   F744    1.358   .     S
C692   C694    1.411   .     A
C694   C321    1.521   1_556 S
C695   C697    1.435   .     S
C695   O735    1.292   .     A
C695   O733    1.287   .     A
C696   O734    1.287   .     A
C696   C698    1.435   .     S
C696   O736    1.292   .     A
C698   C573    1.338   1_655 S
C698   H590    1.087   1_655 S
C699   H715    1.083   .     S
C699   C701    1.389   .     A
C699   C709    1.404   .     A
C700   H716    1.083   .     S
C700   C710    1.403   .     A
C700   C702    1.391   .     A
C701   C703    1.401   .     A
C701   H717    1.083   .     S
C702   H718    1.083   .     S
C702   C704    1.403   .     A
C703   C705    1.401   .     A
C704   C706    1.400   .     A
C705   C707    1.391   .     A
C705   H719    1.083   .     S
C706   H720    1.078   .     S
C706   C708    1.389   .     A
C707   H721    1.083   .     S
C707   C709    1.404   .     A
C708   C710    1.403   .     A
C708   H722    1.083   .     S
C710   C523    1.471   1_565 S
Cu711  Cu712   2.684   .     S
Cu711  N728    2.016   .     S
Cu711  O729    1.956   .     S
Cu711  O732    1.960   .     S
Cu711  O736    1.959   .     S
Cu711  O733    1.955   .     S
Cu712  N727    2.016   .     S
Cu712  O731    1.960   .     S
Cu712  O735    1.959   .     S
Cu712  O730    1.956   .     S
Cu712  O734    1.955   .     S
H713   C573    1.087   1_655 S
N737   H738    1.046   .     S
N737   H739    1.046   .     S
N740   H742    1.044   .     S
N740   H741    1.046   .     S
