data_str_m3_o1_o2_pcu_sym.18
_audit_creation_date              2020-01-03
_audit_creation_method            'Materials Studio'
_symmetry_space_group_name_H-M    'P1'
_symmetry_Int_Tables_number       1
_symmetry_cell_setting            triclinic
loop_
_symmetry_equiv_pos_as_xyz
  x,y,z
_cell_length_a                    32.1731
_cell_length_b                    29.6352
_cell_length_c                    30.0371
_cell_angle_alpha                 89.9999
_cell_angle_beta                  91.0080
_cell_angle_gamma                 90.0000
loop_
_atom_site_label
_atom_site_type_symbol
_atom_site_fract_x
_atom_site_fract_y
_atom_site_fract_z
_atom_site_U_iso_or_equiv
_atom_site_adp_type
_atom_site_occupancy
C1     C     0.08666   0.16667   0.24998   0.00000  Uiso   1.00
C2     C     0.31205   0.20783   0.24999   0.00000  Uiso   1.00
C3     C     0.31205   0.12553   0.24995   0.00000  Uiso   1.00
C4     C     0.02128   0.20783   0.25001   0.00000  Uiso   1.00
C5     C     0.18046   0.20531   0.04747   0.00000  Uiso   1.00
C6     C     0.18049   0.12888   0.45325   0.00000  Uiso   1.00
C7     C     0.15286   0.20531   0.45253   0.00000  Uiso   1.00
C8     C     0.15284   0.12888   0.04675   0.00000  Uiso   1.00
C9     C     0.18021   0.20527   0.09344   0.00000  Uiso   1.00
C10    C     0.17999   0.12853   0.40731   0.00000  Uiso   1.00
C11    C     0.15311   0.20527   0.40656   0.00000  Uiso   1.00
C12    C     0.24668   0.16667   0.25002   0.00000  Uiso   1.00
C13    C     0.15334   0.12853   0.09269   0.00000  Uiso   1.00
C14    C     0.16677   0.16681   0.11606   0.00000  Uiso   1.00
C15    C     0.16656   0.16681   0.38394   0.00000  Uiso   1.00
C16    C     0.16662   0.16717   0.02407   0.00000  Uiso   1.00
C17    C     0.16671   0.16717   0.47593   0.00000  Uiso   1.00
C18    C     0.29085   0.16668   0.24999   0.00000  Uiso   1.00
C19    C     0.04248   0.16668   0.25001   0.00000  Uiso   1.00
C20    C     0.22215   0.04833   0.30584   0.00000  Uiso   1.00
C21    C     0.11245   0.28482   0.19285   0.00000  Uiso   1.00
C22    C     0.11118   0.04833   0.19416   0.00000  Uiso   1.00
C23    C     0.16668   0.16669   0.16395   0.00000  Uiso   1.00
C24    C     0.22089   0.28482   0.30715   0.00000  Uiso   1.00
C25    C     0.16665   0.16669   0.33604   0.00000  Uiso   1.00
C26    C     0.19338   0.02402   0.27733   0.00000  Uiso   1.00
C27    C     0.14018   0.30926   0.22242   0.00000  Uiso   1.00
C28    C     0.13996   0.02402   0.22267   0.00000  Uiso   1.00
C29    C     0.19315   0.30926   0.27757   0.00000  Uiso   1.00
C30    C     0.02128   0.12553   0.25005   0.00000  Uiso   1.00
H31    H     0.19182   0.23484   0.03025   0.00000  Uiso   1.00
H32    H     0.29593   0.23993   0.24995   0.00000  Uiso   1.00
H33    H     0.29594   0.09343   0.24984   0.00000  Uiso   1.00
H34    H     0.03740   0.23993   0.25005   0.00000  Uiso   1.00
H35    H     0.19188   0.09944   0.47103   0.00000  Uiso   1.00
H36    H     0.14149   0.23483   0.46975   0.00000  Uiso   1.00
H37    H     0.14146   0.09944   0.02897   0.00000  Uiso   1.00
H38    H     0.19106   0.23495   0.11122   0.00000  Uiso   1.00
H39    H     0.19054   0.09863   0.39021   0.00000  Uiso   1.00
H40    H     0.14226   0.23494   0.38878   0.00000  Uiso   1.00
H41    H     0.14280   0.09863   0.10980   0.00000  Uiso   1.00
H42    H     0.03739   0.09342   0.25016   0.00000  Uiso   1.00
N43    N     0.16667   0.28573   0.25000   0.00000  Uiso   1.00
N44    N     0.16667   0.04760   0.25000   0.00000  Uiso   1.00
N45    N     0.24547   0.06748   0.32872   0.00000  Uiso   1.00
N46    N     0.09014   0.26547   0.16898   0.00000  Uiso   1.00
N47    N     0.08786   0.06748   0.17128   0.00000  Uiso   1.00
N48    N     0.24320   0.26547   0.33102   0.00000  Uiso   1.00
O49    O     0.10559   0.20487   0.24999   0.00000  Uiso   1.00
O50    O     0.22774   0.12846   0.25000   0.00000  Uiso   1.00
O51    O     0.22774   0.20487   0.25000   0.00000  Uiso   1.00
O52    O     0.10559   0.12846   0.24999   0.00000  Uiso   1.00
O53    O     0.16666   0.20489   0.18453   0.00000  Uiso   1.00
O54    O     0.16667   0.12845   0.31547   0.00000  Uiso   1.00
O55    O     0.16667   0.20489   0.31547   0.00000  Uiso   1.00
O56    O     0.16666   0.12845   0.18453   0.00000  Uiso   1.00
Zn57   Zn    0.16667   0.21771   0.25000   0.00000  Uiso   1.00
Zn58   Zn    0.16667   0.11563   0.25000   0.00000  Uiso   1.00
C59    C     0.41999   0.16667   0.24998   0.00000  Uiso   1.00
C60    C     0.64538   0.20783   0.24999   0.00000  Uiso   1.00
C61    C     0.64539   0.12553   0.24995   0.00000  Uiso   1.00
C62    C     0.35462   0.20783   0.25001   0.00000  Uiso   1.00
C63    C     0.51379   0.20531   0.04747   0.00000  Uiso   1.00
C64    C     0.51382   0.12888   0.45325   0.00000  Uiso   1.00
C65    C     0.48619   0.20531   0.45253   0.00000  Uiso   1.00
C66    C     0.48618   0.12888   0.04675   0.00000  Uiso   1.00
C67    C     0.51354   0.20527   0.09344   0.00000  Uiso   1.00
C68    C     0.51332   0.12853   0.40731   0.00000  Uiso   1.00
C69    C     0.48644   0.20527   0.40656   0.00000  Uiso   1.00
C70    C     0.58001   0.16667   0.25002   0.00000  Uiso   1.00
C71    C     0.48668   0.12853   0.09269   0.00000  Uiso   1.00
C72    C     0.50010   0.16681   0.11606   0.00000  Uiso   1.00
C73    C     0.49989   0.16681   0.38394   0.00000  Uiso   1.00
C74    C     0.49995   0.16717   0.02407   0.00000  Uiso   1.00
C75    C     0.50004   0.16717   0.47593   0.00000  Uiso   1.00
C76    C     0.62418   0.16668   0.24999   0.00000  Uiso   1.00
C77    C     0.37582   0.16668   0.25001   0.00000  Uiso   1.00
C78    C     0.55548   0.04833   0.30584   0.00000  Uiso   1.00
C79    C     0.44578   0.28482   0.19285   0.00000  Uiso   1.00
C80    C     0.44452   0.04833   0.19416   0.00000  Uiso   1.00
C81    C     0.50002   0.16669   0.16395   0.00000  Uiso   1.00
C82    C     0.55422   0.28482   0.30715   0.00000  Uiso   1.00
C83    C     0.49998   0.16669   0.33604   0.00000  Uiso   1.00
C84    C     0.52671   0.02402   0.27733   0.00000  Uiso   1.00
C85    C     0.47352   0.30926   0.22242   0.00000  Uiso   1.00
C86    C     0.47329   0.02402   0.22267   0.00000  Uiso   1.00
C87    C     0.52648   0.30926   0.27757   0.00000  Uiso   1.00
C88    C     0.35461   0.12553   0.25005   0.00000  Uiso   1.00
H89    H     0.52515   0.23484   0.03025   0.00000  Uiso   1.00
H90    H     0.62926   0.23993   0.24995   0.00000  Uiso   1.00
H91    H     0.62928   0.09343   0.24984   0.00000  Uiso   1.00
H92    H     0.37073   0.23993   0.25005   0.00000  Uiso   1.00
H93    H     0.52521   0.09944   0.47103   0.00000  Uiso   1.00
H94    H     0.47483   0.23483   0.46975   0.00000  Uiso   1.00
H95    H     0.47479   0.09944   0.02897   0.00000  Uiso   1.00
H96    H     0.52439   0.23495   0.11122   0.00000  Uiso   1.00
H97    H     0.52388   0.09863   0.39021   0.00000  Uiso   1.00
H98    H     0.47560   0.23494   0.38878   0.00000  Uiso   1.00
H99    H     0.47613   0.09863   0.10980   0.00000  Uiso   1.00
H100   H     0.37072   0.09342   0.25016   0.00000  Uiso   1.00
N101   N     0.50000   0.28573   0.25000   0.00000  Uiso   1.00
N102   N     0.50000   0.04760   0.25000   0.00000  Uiso   1.00
N103   N     0.57881   0.06748   0.32872   0.00000  Uiso   1.00
N104   N     0.42347   0.26547   0.16898   0.00000  Uiso   1.00
N105   N     0.42119   0.06748   0.17128   0.00000  Uiso   1.00
N106   N     0.57653   0.26547   0.33102   0.00000  Uiso   1.00
O107   O     0.43892   0.20487   0.24999   0.00000  Uiso   1.00
O108   O     0.56108   0.12846   0.25000   0.00000  Uiso   1.00
O109   O     0.56108   0.20487   0.25000   0.00000  Uiso   1.00
O110   O     0.43892   0.12846   0.24999   0.00000  Uiso   1.00
O111   O     0.50000   0.20489   0.18453   0.00000  Uiso   1.00
O112   O     0.50000   0.12845   0.31547   0.00000  Uiso   1.00
O113   O     0.50000   0.20489   0.31547   0.00000  Uiso   1.00
O114   O     0.50000   0.12845   0.18453   0.00000  Uiso   1.00
Zn115  Zn    0.50000   0.21771   0.25000   0.00000  Uiso   1.00
Zn116  Zn    0.50000   0.11563   0.25000   0.00000  Uiso   1.00
C117   C     0.75332   0.16667   0.24998   0.00000  Uiso   1.00
C118   C     0.97872   0.20783   0.24999   0.00000  Uiso   1.00
C119   C     0.97872   0.12553   0.24995   0.00000  Uiso   1.00
C120   C     0.68795   0.20783   0.25001   0.00000  Uiso   1.00
C121   C     0.84713   0.20531   0.04747   0.00000  Uiso   1.00
C122   C     0.84716   0.12888   0.45325   0.00000  Uiso   1.00
C123   C     0.81953   0.20531   0.45253   0.00000  Uiso   1.00
C124   C     0.81951   0.12888   0.04675   0.00000  Uiso   1.00
C125   C     0.84688   0.20527   0.09344   0.00000  Uiso   1.00
C126   C     0.84666   0.12853   0.40731   0.00000  Uiso   1.00
C127   C     0.81978   0.20527   0.40656   0.00000  Uiso   1.00
C128   C     0.91334   0.16667   0.25002   0.00000  Uiso   1.00
C129   C     0.82001   0.12853   0.09269   0.00000  Uiso   1.00
C130   C     0.83344   0.16681   0.11606   0.00000  Uiso   1.00
C131   C     0.83323   0.16681   0.38394   0.00000  Uiso   1.00
C132   C     0.83328   0.16717   0.02407   0.00000  Uiso   1.00
C133   C     0.83338   0.16717   0.47593   0.00000  Uiso   1.00
C134   C     0.95752   0.16668   0.24999   0.00000  Uiso   1.00
C135   C     0.70915   0.16668   0.25001   0.00000  Uiso   1.00
C136   C     0.88882   0.04833   0.30584   0.00000  Uiso   1.00
C137   C     0.77911   0.28482   0.19285   0.00000  Uiso   1.00
C138   C     0.77785   0.04833   0.19416   0.00000  Uiso   1.00
C139   C     0.83335   0.16669   0.16395   0.00000  Uiso   1.00
C140   C     0.88755   0.28482   0.30715   0.00000  Uiso   1.00
C141   C     0.83331   0.16669   0.33604   0.00000  Uiso   1.00
C142   C     0.86004   0.02402   0.27733   0.00000  Uiso   1.00
C143   C     0.80685   0.30926   0.22242   0.00000  Uiso   1.00
C144   C     0.80662   0.02402   0.22267   0.00000  Uiso   1.00
C145   C     0.85982   0.30926   0.27757   0.00000  Uiso   1.00
C146   C     0.68795   0.12553   0.25005   0.00000  Uiso   1.00
H147   H     0.85849   0.23484   0.03025   0.00000  Uiso   1.00
H148   H     0.96260   0.23993   0.24995   0.00000  Uiso   1.00
H149   H     0.96261   0.09343   0.24984   0.00000  Uiso   1.00
H150   H     0.70407   0.23993   0.25005   0.00000  Uiso   1.00
H151   H     0.85855   0.09944   0.47103   0.00000  Uiso   1.00
H152   H     0.80816   0.23483   0.46975   0.00000  Uiso   1.00
H153   H     0.80812   0.09944   0.02897   0.00000  Uiso   1.00
H154   H     0.85772   0.23495   0.11122   0.00000  Uiso   1.00
H155   H     0.85721   0.09863   0.39021   0.00000  Uiso   1.00
H156   H     0.80893   0.23494   0.38878   0.00000  Uiso   1.00
H157   H     0.80946   0.09863   0.10980   0.00000  Uiso   1.00
H158   H     0.70406   0.09342   0.25016   0.00000  Uiso   1.00
N159   N     0.83333   0.28573   0.25000   0.00000  Uiso   1.00
N160   N     0.83333   0.04760   0.25000   0.00000  Uiso   1.00
N161   N     0.91214   0.06748   0.32872   0.00000  Uiso   1.00
N162   N     0.75680   0.26547   0.16898   0.00000  Uiso   1.00
N163   N     0.75453   0.06748   0.17128   0.00000  Uiso   1.00
N164   N     0.90986   0.26547   0.33102   0.00000  Uiso   1.00
O165   O     0.77226   0.20487   0.24999   0.00000  Uiso   1.00
O166   O     0.89441   0.12846   0.25000   0.00000  Uiso   1.00
O167   O     0.89441   0.20487   0.25000   0.00000  Uiso   1.00
O168   O     0.77226   0.12846   0.24999   0.00000  Uiso   1.00
O169   O     0.83333   0.20489   0.18453   0.00000  Uiso   1.00
O170   O     0.83334   0.12845   0.31547   0.00000  Uiso   1.00
O171   O     0.83334   0.20489   0.31547   0.00000  Uiso   1.00
O172   O     0.83333   0.12845   0.18453   0.00000  Uiso   1.00
Zn173  Zn    0.83333   0.21771   0.25000   0.00000  Uiso   1.00
Zn174  Zn    0.83333   0.11563   0.25000   0.00000  Uiso   1.00
C175   C     0.08666   0.50000   0.24998   0.00000  Uiso   1.00
C176   C     0.31205   0.54117   0.24999   0.00000  Uiso   1.00
C177   C     0.31205   0.45886   0.24995   0.00000  Uiso   1.00
C178   C     0.02128   0.54117   0.25001   0.00000  Uiso   1.00
C179   C     0.18046   0.53864   0.04747   0.00000  Uiso   1.00
C180   C     0.18049   0.46221   0.45325   0.00000  Uiso   1.00
C181   C     0.15286   0.53864   0.45253   0.00000  Uiso   1.00
C182   C     0.15284   0.46221   0.04675   0.00000  Uiso   1.00
C183   C     0.18021   0.53860   0.09344   0.00000  Uiso   1.00
C184   C     0.17999   0.46186   0.40731   0.00000  Uiso   1.00
C185   C     0.15311   0.53860   0.40656   0.00000  Uiso   1.00
C186   C     0.24668   0.50000   0.25002   0.00000  Uiso   1.00
C187   C     0.15334   0.46186   0.09269   0.00000  Uiso   1.00
C188   C     0.16677   0.50014   0.11606   0.00000  Uiso   1.00
C189   C     0.16656   0.50014   0.38394   0.00000  Uiso   1.00
C190   C     0.16662   0.50050   0.02407   0.00000  Uiso   1.00
C191   C     0.16671   0.50050   0.47593   0.00000  Uiso   1.00
C192   C     0.29085   0.50001   0.24999   0.00000  Uiso   1.00
C193   C     0.04248   0.50001   0.25001   0.00000  Uiso   1.00
C194   C     0.22215   0.38167   0.30584   0.00000  Uiso   1.00
C195   C     0.11245   0.61815   0.19285   0.00000  Uiso   1.00
C196   C     0.11118   0.38167   0.19416   0.00000  Uiso   1.00
C197   C     0.16668   0.50002   0.16395   0.00000  Uiso   1.00
C198   C     0.22089   0.61815   0.30715   0.00000  Uiso   1.00
C199   C     0.16665   0.50002   0.33604   0.00000  Uiso   1.00
C200   C     0.19338   0.35736   0.27733   0.00000  Uiso   1.00
C201   C     0.14018   0.64260   0.22242   0.00000  Uiso   1.00
C202   C     0.13996   0.35736   0.22267   0.00000  Uiso   1.00
C203   C     0.19315   0.64260   0.27757   0.00000  Uiso   1.00
C204   C     0.02128   0.45886   0.25005   0.00000  Uiso   1.00
H205   H     0.19182   0.56817   0.03025   0.00000  Uiso   1.00
H206   H     0.29593   0.57326   0.24995   0.00000  Uiso   1.00
H207   H     0.29594   0.42676   0.24984   0.00000  Uiso   1.00
H208   H     0.03740   0.57326   0.25005   0.00000  Uiso   1.00
H209   H     0.19188   0.43278   0.47103   0.00000  Uiso   1.00
H210   H     0.14149   0.56817   0.46975   0.00000  Uiso   1.00
H211   H     0.14146   0.43277   0.02897   0.00000  Uiso   1.00
H212   H     0.19106   0.56828   0.11122   0.00000  Uiso   1.00
H213   H     0.19054   0.43196   0.39021   0.00000  Uiso   1.00
H214   H     0.14226   0.56828   0.38878   0.00000  Uiso   1.00
H215   H     0.14280   0.43196   0.10980   0.00000  Uiso   1.00
H216   H     0.03739   0.42676   0.25016   0.00000  Uiso   1.00
N217   N     0.16667   0.61907   0.25000   0.00000  Uiso   1.00
N218   N     0.16667   0.38093   0.25000   0.00000  Uiso   1.00
N219   N     0.24547   0.40082   0.32872   0.00000  Uiso   1.00
N220   N     0.09014   0.59881   0.16898   0.00000  Uiso   1.00
N221   N     0.08786   0.40082   0.17128   0.00000  Uiso   1.00
N222   N     0.24320   0.59881   0.33102   0.00000  Uiso   1.00
O223   O     0.10559   0.53821   0.24999   0.00000  Uiso   1.00
O224   O     0.22774   0.46179   0.25000   0.00000  Uiso   1.00
O225   O     0.22774   0.53821   0.25000   0.00000  Uiso   1.00
O226   O     0.10559   0.46179   0.24999   0.00000  Uiso   1.00
O227   O     0.16666   0.53822   0.18453   0.00000  Uiso   1.00
O228   O     0.16667   0.46178   0.31547   0.00000  Uiso   1.00
O229   O     0.16667   0.53822   0.31547   0.00000  Uiso   1.00
O230   O     0.16666   0.46178   0.18453   0.00000  Uiso   1.00
Zn231  Zn    0.16667   0.55104   0.25000   0.00000  Uiso   1.00
Zn232  Zn    0.16667   0.44896   0.25000   0.00000  Uiso   1.00
C233   C     0.41999   0.50000   0.24998   0.00000  Uiso   1.00
C234   C     0.64538   0.54117   0.24999   0.00000  Uiso   1.00
C235   C     0.64539   0.45886   0.24995   0.00000  Uiso   1.00
C236   C     0.35462   0.54117   0.25001   0.00000  Uiso   1.00
C237   C     0.51379   0.53864   0.04747   0.00000  Uiso   1.00
C238   C     0.51382   0.46221   0.45325   0.00000  Uiso   1.00
C239   C     0.48619   0.53864   0.45253   0.00000  Uiso   1.00
C240   C     0.48618   0.46221   0.04675   0.00000  Uiso   1.00
C241   C     0.51354   0.53860   0.09344   0.00000  Uiso   1.00
C242   C     0.51332   0.46186   0.40731   0.00000  Uiso   1.00
C243   C     0.48644   0.53860   0.40656   0.00000  Uiso   1.00
C244   C     0.58001   0.50000   0.25002   0.00000  Uiso   1.00
C245   C     0.48668   0.46186   0.09269   0.00000  Uiso   1.00
C246   C     0.50010   0.50014   0.11606   0.00000  Uiso   1.00
C247   C     0.49989   0.50014   0.38394   0.00000  Uiso   1.00
C248   C     0.49995   0.50050   0.02407   0.00000  Uiso   1.00
C249   C     0.50004   0.50050   0.47593   0.00000  Uiso   1.00
C250   C     0.62418   0.50001   0.24999   0.00000  Uiso   1.00
C251   C     0.37582   0.50001   0.25001   0.00000  Uiso   1.00
C252   C     0.55548   0.38167   0.30584   0.00000  Uiso   1.00
C253   C     0.44578   0.61815   0.19285   0.00000  Uiso   1.00
C254   C     0.44452   0.38167   0.19416   0.00000  Uiso   1.00
C255   C     0.50002   0.50002   0.16395   0.00000  Uiso   1.00
C256   C     0.55422   0.61815   0.30715   0.00000  Uiso   1.00
C257   C     0.49998   0.50002   0.33604   0.00000  Uiso   1.00
C258   C     0.52671   0.35736   0.27733   0.00000  Uiso   1.00
C259   C     0.47352   0.64260   0.22242   0.00000  Uiso   1.00
C260   C     0.47329   0.35736   0.22267   0.00000  Uiso   1.00
C261   C     0.52648   0.64260   0.27757   0.00000  Uiso   1.00
C262   C     0.35461   0.45886   0.25005   0.00000  Uiso   1.00
H263   H     0.52515   0.56817   0.03025   0.00000  Uiso   1.00
H264   H     0.62926   0.57326   0.24995   0.00000  Uiso   1.00
H265   H     0.62928   0.42676   0.24984   0.00000  Uiso   1.00
H266   H     0.37073   0.57326   0.25005   0.00000  Uiso   1.00
H267   H     0.52521   0.43278   0.47103   0.00000  Uiso   1.00
H268   H     0.47483   0.56817   0.46975   0.00000  Uiso   1.00
H269   H     0.47479   0.43277   0.02897   0.00000  Uiso   1.00
H270   H     0.52439   0.56828   0.11122   0.00000  Uiso   1.00
H271   H     0.52388   0.43196   0.39021   0.00000  Uiso   1.00
H272   H     0.47560   0.56828   0.38878   0.00000  Uiso   1.00
H273   H     0.47613   0.43196   0.10980   0.00000  Uiso   1.00
H274   H     0.37072   0.42676   0.25016   0.00000  Uiso   1.00
N275   N     0.50000   0.61907   0.25000   0.00000  Uiso   1.00
N276   N     0.50000   0.38093   0.25000   0.00000  Uiso   1.00
N277   N     0.57881   0.40082   0.32872   0.00000  Uiso   1.00
N278   N     0.42347   0.59881   0.16898   0.00000  Uiso   1.00
N279   N     0.42119   0.40082   0.17128   0.00000  Uiso   1.00
N280   N     0.57653   0.59881   0.33102   0.00000  Uiso   1.00
O281   O     0.43892   0.53821   0.24999   0.00000  Uiso   1.00
O282   O     0.56108   0.46179   0.25000   0.00000  Uiso   1.00
O283   O     0.56108   0.53821   0.25000   0.00000  Uiso   1.00
O284   O     0.43892   0.46179   0.24999   0.00000  Uiso   1.00
O285   O     0.50000   0.53822   0.18453   0.00000  Uiso   1.00
O286   O     0.50000   0.46178   0.31547   0.00000  Uiso   1.00
O287   O     0.50000   0.53822   0.31547   0.00000  Uiso   1.00
O288   O     0.50000   0.46178   0.18453   0.00000  Uiso   1.00
Zn289  Zn    0.50000   0.55104   0.25000   0.00000  Uiso   1.00
Zn290  Zn    0.50000   0.44896   0.25000   0.00000  Uiso   1.00
C291   C     0.75332   0.50000   0.24998   0.00000  Uiso   1.00
C292   C     0.97872   0.54117   0.24999   0.00000  Uiso   1.00
C293   C     0.97872   0.45886   0.24995   0.00000  Uiso   1.00
C294   C     0.68795   0.54117   0.25001   0.00000  Uiso   1.00
C295   C     0.84713   0.53864   0.04747   0.00000  Uiso   1.00
C296   C     0.84716   0.46221   0.45325   0.00000  Uiso   1.00
C297   C     0.81953   0.53864   0.45253   0.00000  Uiso   1.00
C298   C     0.81951   0.46221   0.04675   0.00000  Uiso   1.00
C299   C     0.84688   0.53860   0.09344   0.00000  Uiso   1.00
C300   C     0.84666   0.46186   0.40731   0.00000  Uiso   1.00
C301   C     0.81978   0.53860   0.40656   0.00000  Uiso   1.00
C302   C     0.91334   0.50000   0.25002   0.00000  Uiso   1.00
C303   C     0.82001   0.46186   0.09269   0.00000  Uiso   1.00
C304   C     0.83344   0.50014   0.11606   0.00000  Uiso   1.00
C305   C     0.83323   0.50014   0.38394   0.00000  Uiso   1.00
C306   C     0.83328   0.50050   0.02407   0.00000  Uiso   1.00
C307   C     0.83338   0.50050   0.47593   0.00000  Uiso   1.00
C308   C     0.95752   0.50001   0.24999   0.00000  Uiso   1.00
C309   C     0.70915   0.50001   0.25001   0.00000  Uiso   1.00
C310   C     0.88882   0.38167   0.30584   0.00000  Uiso   1.00
C311   C     0.77911   0.61815   0.19285   0.00000  Uiso   1.00
C312   C     0.77785   0.38167   0.19416   0.00000  Uiso   1.00
C313   C     0.83335   0.50002   0.16395   0.00000  Uiso   1.00
C314   C     0.88755   0.61815   0.30715   0.00000  Uiso   1.00
C315   C     0.83331   0.50002   0.33604   0.00000  Uiso   1.00
C316   C     0.86004   0.35736   0.27733   0.00000  Uiso   1.00
C317   C     0.80685   0.64260   0.22242   0.00000  Uiso   1.00
C318   C     0.80662   0.35736   0.22267   0.00000  Uiso   1.00
C319   C     0.85982   0.64260   0.27757   0.00000  Uiso   1.00
C320   C     0.68795   0.45886   0.25005   0.00000  Uiso   1.00
H321   H     0.85849   0.56817   0.03025   0.00000  Uiso   1.00
H322   H     0.96260   0.57326   0.24995   0.00000  Uiso   1.00
H323   H     0.96261   0.42676   0.24984   0.00000  Uiso   1.00
H324   H     0.70407   0.57326   0.25005   0.00000  Uiso   1.00
H325   H     0.85855   0.43278   0.47103   0.00000  Uiso   1.00
H326   H     0.80816   0.56817   0.46975   0.00000  Uiso   1.00
H327   H     0.80812   0.43277   0.02897   0.00000  Uiso   1.00
H328   H     0.85772   0.56828   0.11122   0.00000  Uiso   1.00
H329   H     0.85721   0.43196   0.39021   0.00000  Uiso   1.00
H330   H     0.80893   0.56828   0.38878   0.00000  Uiso   1.00
H331   H     0.80946   0.43196   0.10980   0.00000  Uiso   1.00
H332   H     0.70406   0.42676   0.25016   0.00000  Uiso   1.00
N333   N     0.83333   0.61907   0.25000   0.00000  Uiso   1.00
N334   N     0.83333   0.38093   0.25000   0.00000  Uiso   1.00
N335   N     0.91214   0.40082   0.32872   0.00000  Uiso   1.00
N336   N     0.75680   0.59881   0.16898   0.00000  Uiso   1.00
N337   N     0.75453   0.40082   0.17128   0.00000  Uiso   1.00
N338   N     0.90986   0.59881   0.33102   0.00000  Uiso   1.00
O339   O     0.77226   0.53821   0.24999   0.00000  Uiso   1.00
O340   O     0.89441   0.46179   0.25000   0.00000  Uiso   1.00
O341   O     0.89441   0.53821   0.25000   0.00000  Uiso   1.00
O342   O     0.77226   0.46179   0.24999   0.00000  Uiso   1.00
O343   O     0.83333   0.53822   0.18453   0.00000  Uiso   1.00
O344   O     0.83334   0.46178   0.31547   0.00000  Uiso   1.00
O345   O     0.83334   0.53822   0.31547   0.00000  Uiso   1.00
O346   O     0.83333   0.46178   0.18453   0.00000  Uiso   1.00
Zn347  Zn    0.83333   0.55104   0.25000   0.00000  Uiso   1.00
Zn348  Zn    0.83333   0.44896   0.25000   0.00000  Uiso   1.00
C349   C     0.08666   0.83334   0.24998   0.00000  Uiso   1.00
C350   C     0.31205   0.87450   0.24999   0.00000  Uiso   1.00
C351   C     0.31205   0.79219   0.24995   0.00000  Uiso   1.00
C352   C     0.02128   0.87450   0.25001   0.00000  Uiso   1.00
C353   C     0.18046   0.87198   0.04747   0.00000  Uiso   1.00
C354   C     0.18049   0.79555   0.45325   0.00000  Uiso   1.00
C355   C     0.15286   0.87197   0.45253   0.00000  Uiso   1.00
C356   C     0.15284   0.79554   0.04675   0.00000  Uiso   1.00
C357   C     0.18021   0.87194   0.09344   0.00000  Uiso   1.00
C358   C     0.17999   0.79520   0.40731   0.00000  Uiso   1.00
C359   C     0.15311   0.87193   0.40656   0.00000  Uiso   1.00
C360   C     0.24668   0.83334   0.25002   0.00000  Uiso   1.00
C361   C     0.15334   0.79520   0.09269   0.00000  Uiso   1.00
C362   C     0.16677   0.83347   0.11606   0.00000  Uiso   1.00
C363   C     0.16656   0.83347   0.38394   0.00000  Uiso   1.00
C364   C     0.16662   0.83384   0.02407   0.00000  Uiso   1.00
C365   C     0.16671   0.83384   0.47593   0.00000  Uiso   1.00
C366   C     0.29085   0.83334   0.24999   0.00000  Uiso   1.00
C367   C     0.04248   0.83334   0.25001   0.00000  Uiso   1.00
C368   C     0.22215   0.71500   0.30584   0.00000  Uiso   1.00
C369   C     0.11245   0.95149   0.19285   0.00000  Uiso   1.00
C370   C     0.11118   0.71500   0.19416   0.00000  Uiso   1.00
C371   C     0.16668   0.83335   0.16395   0.00000  Uiso   1.00
C372   C     0.22089   0.95149   0.30715   0.00000  Uiso   1.00
C373   C     0.16665   0.83335   0.33604   0.00000  Uiso   1.00
C374   C     0.19338   0.69069   0.27733   0.00000  Uiso   1.00
C375   C     0.14018   0.97593   0.22242   0.00000  Uiso   1.00
C376   C     0.13996   0.69069   0.22267   0.00000  Uiso   1.00
C377   C     0.19315   0.97593   0.27757   0.00000  Uiso   1.00
C378   C     0.02128   0.79219   0.25005   0.00000  Uiso   1.00
H379   H     0.19182   0.90150   0.03025   0.00000  Uiso   1.00
H380   H     0.29593   0.90660   0.24995   0.00000  Uiso   1.00
H381   H     0.29594   0.76009   0.24984   0.00000  Uiso   1.00
H382   H     0.03740   0.90660   0.25005   0.00000  Uiso   1.00
H383   H     0.19188   0.76611   0.47103   0.00000  Uiso   1.00
H384   H     0.14149   0.90150   0.46975   0.00000  Uiso   1.00
H385   H     0.14146   0.76611   0.02897   0.00000  Uiso   1.00
H386   H     0.19106   0.90161   0.11122   0.00000  Uiso   1.00
H387   H     0.19054   0.76530   0.39021   0.00000  Uiso   1.00
H388   H     0.14226   0.90161   0.38878   0.00000  Uiso   1.00
H389   H     0.14280   0.76529   0.10980   0.00000  Uiso   1.00
H390   H     0.03739   0.76009   0.25016   0.00000  Uiso   1.00
N391   N     0.16667   0.95240   0.25000   0.00000  Uiso   1.00
N392   N     0.16667   0.71427   0.25000   0.00000  Uiso   1.00
N393   N     0.24547   0.73415   0.32872   0.00000  Uiso   1.00
N394   N     0.09014   0.93214   0.16898   0.00000  Uiso   1.00
N395   N     0.08786   0.73415   0.17128   0.00000  Uiso   1.00
N396   N     0.24320   0.93214   0.33102   0.00000  Uiso   1.00
O397   O     0.10559   0.87154   0.24999   0.00000  Uiso   1.00
O398   O     0.22774   0.79513   0.25000   0.00000  Uiso   1.00
O399   O     0.22774   0.87154   0.25000   0.00000  Uiso   1.00
O400   O     0.10559   0.79513   0.24999   0.00000  Uiso   1.00
O401   O     0.16666   0.87155   0.18453   0.00000  Uiso   1.00
O402   O     0.16667   0.79511   0.31547   0.00000  Uiso   1.00
O403   O     0.16667   0.87155   0.31547   0.00000  Uiso   1.00
O404   O     0.16666   0.79511   0.18453   0.00000  Uiso   1.00
Zn405  Zn    0.16667   0.88437   0.25000   0.00000  Uiso   1.00
Zn406  Zn    0.16667   0.78229   0.25000   0.00000  Uiso   1.00
C407   C     0.41999   0.83334   0.24998   0.00000  Uiso   1.00
C408   C     0.64538   0.87450   0.24999   0.00000  Uiso   1.00
C409   C     0.64539   0.79219   0.24995   0.00000  Uiso   1.00
C410   C     0.35462   0.87450   0.25001   0.00000  Uiso   1.00
C411   C     0.51379   0.87198   0.04747   0.00000  Uiso   1.00
C412   C     0.51382   0.79555   0.45325   0.00000  Uiso   1.00
C413   C     0.48619   0.87197   0.45253   0.00000  Uiso   1.00
C414   C     0.48618   0.79554   0.04675   0.00000  Uiso   1.00
C415   C     0.51354   0.87194   0.09344   0.00000  Uiso   1.00
C416   C     0.51332   0.79520   0.40731   0.00000  Uiso   1.00
C417   C     0.48644   0.87193   0.40656   0.00000  Uiso   1.00
C418   C     0.58001   0.83334   0.25002   0.00000  Uiso   1.00
C419   C     0.48668   0.79520   0.09269   0.00000  Uiso   1.00
C420   C     0.50010   0.83347   0.11606   0.00000  Uiso   1.00
C421   C     0.49989   0.83347   0.38394   0.00000  Uiso   1.00
C422   C     0.49995   0.83384   0.02407   0.00000  Uiso   1.00
C423   C     0.50004   0.83384   0.47593   0.00000  Uiso   1.00
C424   C     0.62418   0.83334   0.24999   0.00000  Uiso   1.00
C425   C     0.37582   0.83334   0.25001   0.00000  Uiso   1.00
C426   C     0.55548   0.71500   0.30584   0.00000  Uiso   1.00
C427   C     0.44578   0.95149   0.19285   0.00000  Uiso   1.00
C428   C     0.44452   0.71500   0.19416   0.00000  Uiso   1.00
C429   C     0.50002   0.83335   0.16395   0.00000  Uiso   1.00
C430   C     0.55422   0.95149   0.30715   0.00000  Uiso   1.00
C431   C     0.49998   0.83335   0.33604   0.00000  Uiso   1.00
C432   C     0.52671   0.69069   0.27733   0.00000  Uiso   1.00
C433   C     0.47352   0.97593   0.22242   0.00000  Uiso   1.00
C434   C     0.47329   0.69069   0.22267   0.00000  Uiso   1.00
C435   C     0.52648   0.97593   0.27757   0.00000  Uiso   1.00
C436   C     0.35461   0.79219   0.25005   0.00000  Uiso   1.00
H437   H     0.52515   0.90150   0.03025   0.00000  Uiso   1.00
H438   H     0.62926   0.90660   0.24995   0.00000  Uiso   1.00
H439   H     0.62928   0.76009   0.24984   0.00000  Uiso   1.00
H440   H     0.37073   0.90660   0.25005   0.00000  Uiso   1.00
H441   H     0.52521   0.76611   0.47103   0.00000  Uiso   1.00
H442   H     0.47483   0.90150   0.46975   0.00000  Uiso   1.00
H443   H     0.47479   0.76611   0.02897   0.00000  Uiso   1.00
H444   H     0.52439   0.90161   0.11122   0.00000  Uiso   1.00
H445   H     0.52388   0.76530   0.39021   0.00000  Uiso   1.00
H446   H     0.47560   0.90161   0.38878   0.00000  Uiso   1.00
H447   H     0.47613   0.76529   0.10980   0.00000  Uiso   1.00
H448   H     0.37072   0.76009   0.25016   0.00000  Uiso   1.00
N449   N     0.50000   0.95240   0.25000   0.00000  Uiso   1.00
N450   N     0.50000   0.71427   0.25000   0.00000  Uiso   1.00
N451   N     0.57881   0.73415   0.32872   0.00000  Uiso   1.00
N452   N     0.42347   0.93214   0.16898   0.00000  Uiso   1.00
N453   N     0.42119   0.73415   0.17128   0.00000  Uiso   1.00
N454   N     0.57653   0.93214   0.33102   0.00000  Uiso   1.00
O455   O     0.43892   0.87154   0.24999   0.00000  Uiso   1.00
O456   O     0.56108   0.79513   0.25000   0.00000  Uiso   1.00
O457   O     0.56108   0.87154   0.25000   0.00000  Uiso   1.00
O458   O     0.43892   0.79513   0.24999   0.00000  Uiso   1.00
O459   O     0.50000   0.87155   0.18453   0.00000  Uiso   1.00
O460   O     0.50000   0.79511   0.31547   0.00000  Uiso   1.00
O461   O     0.50000   0.87155   0.31547   0.00000  Uiso   1.00
O462   O     0.50000   0.79511   0.18453   0.00000  Uiso   1.00
Zn463  Zn    0.50000   0.88437   0.25000   0.00000  Uiso   1.00
Zn464  Zn    0.50000   0.78229   0.25000   0.00000  Uiso   1.00
C465   C     0.75332   0.83334   0.24998   0.00000  Uiso   1.00
C466   C     0.97872   0.87450   0.24999   0.00000  Uiso   1.00
C467   C     0.97872   0.79219   0.24995   0.00000  Uiso   1.00
C468   C     0.68795   0.87450   0.25001   0.00000  Uiso   1.00
C469   C     0.84713   0.87198   0.04747   0.00000  Uiso   1.00
C470   C     0.84716   0.79555   0.45325   0.00000  Uiso   1.00
C471   C     0.81953   0.87197   0.45253   0.00000  Uiso   1.00
C472   C     0.81951   0.79554   0.04675   0.00000  Uiso   1.00
C473   C     0.84688   0.87194   0.09344   0.00000  Uiso   1.00
C474   C     0.84666   0.79520   0.40731   0.00000  Uiso   1.00
C475   C     0.81978   0.87193   0.40656   0.00000  Uiso   1.00
C476   C     0.91334   0.83334   0.25002   0.00000  Uiso   1.00
C477   C     0.82001   0.79520   0.09269   0.00000  Uiso   1.00
C478   C     0.83344   0.83347   0.11606   0.00000  Uiso   1.00
C479   C     0.83323   0.83347   0.38394   0.00000  Uiso   1.00
C480   C     0.83328   0.83384   0.02407   0.00000  Uiso   1.00
C481   C     0.83338   0.83384   0.47593   0.00000  Uiso   1.00
C482   C     0.95752   0.83334   0.24999   0.00000  Uiso   1.00
C483   C     0.70915   0.83334   0.25001   0.00000  Uiso   1.00
C484   C     0.88882   0.71500   0.30584   0.00000  Uiso   1.00
C485   C     0.77911   0.95149   0.19285   0.00000  Uiso   1.00
C486   C     0.77785   0.71500   0.19416   0.00000  Uiso   1.00
C487   C     0.83335   0.83335   0.16395   0.00000  Uiso   1.00
C488   C     0.88755   0.95149   0.30715   0.00000  Uiso   1.00
C489   C     0.83331   0.83335   0.33604   0.00000  Uiso   1.00
C490   C     0.86004   0.69069   0.27733   0.00000  Uiso   1.00
C491   C     0.80685   0.97593   0.22242   0.00000  Uiso   1.00
C492   C     0.80662   0.69069   0.22267   0.00000  Uiso   1.00
C493   C     0.85982   0.97593   0.27757   0.00000  Uiso   1.00
C494   C     0.68795   0.79219   0.25005   0.00000  Uiso   1.00
H495   H     0.85849   0.90150   0.03025   0.00000  Uiso   1.00
H496   H     0.96260   0.90660   0.24995   0.00000  Uiso   1.00
H497   H     0.96261   0.76009   0.24984   0.00000  Uiso   1.00
H498   H     0.70407   0.90660   0.25005   0.00000  Uiso   1.00
H499   H     0.85855   0.76611   0.47103   0.00000  Uiso   1.00
H500   H     0.80816   0.90150   0.46975   0.00000  Uiso   1.00
H501   H     0.80812   0.76611   0.02897   0.00000  Uiso   1.00
H502   H     0.85772   0.90161   0.11122   0.00000  Uiso   1.00
H503   H     0.85721   0.76530   0.39021   0.00000  Uiso   1.00
H504   H     0.80893   0.90161   0.38878   0.00000  Uiso   1.00
H505   H     0.80946   0.76529   0.10980   0.00000  Uiso   1.00
H506   H     0.70406   0.76009   0.25016   0.00000  Uiso   1.00
N507   N     0.83333   0.95240   0.25000   0.00000  Uiso   1.00
N508   N     0.83333   0.71427   0.25000   0.00000  Uiso   1.00
N509   N     0.91214   0.73415   0.32872   0.00000  Uiso   1.00
N510   N     0.75680   0.93214   0.16898   0.00000  Uiso   1.00
N511   N     0.75453   0.73415   0.17128   0.00000  Uiso   1.00
N512   N     0.90986   0.93214   0.33102   0.00000  Uiso   1.00
O513   O     0.77226   0.87154   0.24999   0.00000  Uiso   1.00
O514   O     0.89441   0.79513   0.25000   0.00000  Uiso   1.00
O515   O     0.89441   0.87154   0.25000   0.00000  Uiso   1.00
O516   O     0.77226   0.79513   0.24999   0.00000  Uiso   1.00
O517   O     0.83333   0.87155   0.18453   0.00000  Uiso   1.00
O518   O     0.83334   0.79511   0.31547   0.00000  Uiso   1.00
O519   O     0.83334   0.87155   0.31547   0.00000  Uiso   1.00
O520   O     0.83333   0.79511   0.18453   0.00000  Uiso   1.00
Zn521  Zn    0.83333   0.88437   0.25000   0.00000  Uiso   1.00
Zn522  Zn    0.83333   0.78229   0.25000   0.00000  Uiso   1.00
C523   C     0.08666   0.16667   0.74998   0.00000  Uiso   1.00
C524   C     0.31205   0.20783   0.74999   0.00000  Uiso   1.00
C525   C     0.31205   0.12553   0.74995   0.00000  Uiso   1.00
C526   C     0.02128   0.20783   0.75001   0.00000  Uiso   1.00
C527   C     0.18046   0.20531   0.54747   0.00000  Uiso   1.00
C528   C     0.18049   0.12888   0.95325   0.00000  Uiso   1.00
C529   C     0.15286   0.20531   0.95253   0.00000  Uiso   1.00
C530   C     0.15284   0.12888   0.54675   0.00000  Uiso   1.00
C531   C     0.18021   0.20527   0.59344   0.00000  Uiso   1.00
C532   C     0.17999   0.12853   0.90731   0.00000  Uiso   1.00
C533   C     0.15311   0.20527   0.90656   0.00000  Uiso   1.00
C534   C     0.24668   0.16667   0.75002   0.00000  Uiso   1.00
C535   C     0.15334   0.12853   0.59269   0.00000  Uiso   1.00
C536   C     0.16677   0.16681   0.61606   0.00000  Uiso   1.00
C537   C     0.16656   0.16681   0.88394   0.00000  Uiso   1.00
C538   C     0.16662   0.16717   0.52407   0.00000  Uiso   1.00
C539   C     0.16671   0.16717   0.97593   0.00000  Uiso   1.00
C540   C     0.29085   0.16668   0.74999   0.00000  Uiso   1.00
C541   C     0.04248   0.16668   0.75001   0.00000  Uiso   1.00
C542   C     0.22215   0.04833   0.80584   0.00000  Uiso   1.00
C543   C     0.11245   0.28482   0.69285   0.00000  Uiso   1.00
C544   C     0.11118   0.04833   0.69416   0.00000  Uiso   1.00
C545   C     0.16668   0.16669   0.66395   0.00000  Uiso   1.00
C546   C     0.22089   0.28482   0.80715   0.00000  Uiso   1.00
C547   C     0.16665   0.16669   0.83604   0.00000  Uiso   1.00
C548   C     0.19338   0.02402   0.77733   0.00000  Uiso   1.00
C549   C     0.14018   0.30926   0.72242   0.00000  Uiso   1.00
C550   C     0.13996   0.02402   0.72267   0.00000  Uiso   1.00
C551   C     0.19315   0.30926   0.77757   0.00000  Uiso   1.00
C552   C     0.02128   0.12553   0.75005   0.00000  Uiso   1.00
H553   H     0.19182   0.23484   0.53025   0.00000  Uiso   1.00
H554   H     0.29593   0.23993   0.74995   0.00000  Uiso   1.00
H555   H     0.29594   0.09343   0.74984   0.00000  Uiso   1.00
H556   H     0.03740   0.23993   0.75005   0.00000  Uiso   1.00
H557   H     0.19188   0.09944   0.97103   0.00000  Uiso   1.00
H558   H     0.14149   0.23483   0.96975   0.00000  Uiso   1.00
H559   H     0.14146   0.09944   0.52897   0.00000  Uiso   1.00
H560   H     0.19106   0.23495   0.61122   0.00000  Uiso   1.00
H561   H     0.19054   0.09863   0.89021   0.00000  Uiso   1.00
H562   H     0.14226   0.23494   0.88878   0.00000  Uiso   1.00
H563   H     0.14280   0.09863   0.60980   0.00000  Uiso   1.00
H564   H     0.03739   0.09342   0.75016   0.00000  Uiso   1.00
N565   N     0.16667   0.28573   0.75000   0.00000  Uiso   1.00
N566   N     0.16667   0.04760   0.75000   0.00000  Uiso   1.00
N567   N     0.24547   0.06748   0.82872   0.00000  Uiso   1.00
N568   N     0.09014   0.26547   0.66898   0.00000  Uiso   1.00
N569   N     0.08786   0.06748   0.67128   0.00000  Uiso   1.00
N570   N     0.24320   0.26547   0.83102   0.00000  Uiso   1.00
O571   O     0.10559   0.20487   0.74999   0.00000  Uiso   1.00
O572   O     0.22774   0.12846   0.75000   0.00000  Uiso   1.00
O573   O     0.22774   0.20487   0.75000   0.00000  Uiso   1.00
O574   O     0.10559   0.12846   0.74999   0.00000  Uiso   1.00
O575   O     0.16666   0.20489   0.68453   0.00000  Uiso   1.00
O576   O     0.16667   0.12845   0.81547   0.00000  Uiso   1.00
O577   O     0.16667   0.20489   0.81547   0.00000  Uiso   1.00
O578   O     0.16666   0.12845   0.68453   0.00000  Uiso   1.00
Zn579  Zn    0.16667   0.21771   0.75000   0.00000  Uiso   1.00
Zn580  Zn    0.16667   0.11563   0.75000   0.00000  Uiso   1.00
C581   C     0.41999   0.16667   0.74998   0.00000  Uiso   1.00
C582   C     0.64538   0.20783   0.74999   0.00000  Uiso   1.00
C583   C     0.64539   0.12553   0.74995   0.00000  Uiso   1.00
C584   C     0.35462   0.20783   0.75001   0.00000  Uiso   1.00
C585   C     0.51379   0.20531   0.54747   0.00000  Uiso   1.00
C586   C     0.51382   0.12888   0.95325   0.00000  Uiso   1.00
C587   C     0.48619   0.20531   0.95253   0.00000  Uiso   1.00
C588   C     0.48618   0.12888   0.54675   0.00000  Uiso   1.00
C589   C     0.51354   0.20527   0.59344   0.00000  Uiso   1.00
C590   C     0.51332   0.12853   0.90731   0.00000  Uiso   1.00
C591   C     0.48644   0.20527   0.90656   0.00000  Uiso   1.00
C592   C     0.58001   0.16667   0.75002   0.00000  Uiso   1.00
C593   C     0.48668   0.12853   0.59269   0.00000  Uiso   1.00
C594   C     0.50010   0.16681   0.61606   0.00000  Uiso   1.00
C595   C     0.49989   0.16681   0.88394   0.00000  Uiso   1.00
C596   C     0.49995   0.16717   0.52407   0.00000  Uiso   1.00
C597   C     0.50004   0.16717   0.97593   0.00000  Uiso   1.00
C598   C     0.62418   0.16668   0.74999   0.00000  Uiso   1.00
C599   C     0.37582   0.16668   0.75001   0.00000  Uiso   1.00
C600   C     0.55548   0.04833   0.80584   0.00000  Uiso   1.00
C601   C     0.44578   0.28482   0.69285   0.00000  Uiso   1.00
C602   C     0.44452   0.04833   0.69416   0.00000  Uiso   1.00
C603   C     0.50002   0.16669   0.66395   0.00000  Uiso   1.00
C604   C     0.55422   0.28482   0.80715   0.00000  Uiso   1.00
C605   C     0.49998   0.16669   0.83604   0.00000  Uiso   1.00
C606   C     0.52671   0.02402   0.77733   0.00000  Uiso   1.00
C607   C     0.47352   0.30926   0.72242   0.00000  Uiso   1.00
C608   C     0.47329   0.02402   0.72267   0.00000  Uiso   1.00
C609   C     0.52648   0.30926   0.77757   0.00000  Uiso   1.00
C610   C     0.35461   0.12553   0.75005   0.00000  Uiso   1.00
H611   H     0.52515   0.23484   0.53025   0.00000  Uiso   1.00
H612   H     0.62926   0.23993   0.74995   0.00000  Uiso   1.00
H613   H     0.62928   0.09343   0.74984   0.00000  Uiso   1.00
H614   H     0.37073   0.23993   0.75005   0.00000  Uiso   1.00
H615   H     0.52521   0.09944   0.97103   0.00000  Uiso   1.00
H616   H     0.47483   0.23483   0.96975   0.00000  Uiso   1.00
H617   H     0.47479   0.09944   0.52897   0.00000  Uiso   1.00
H618   H     0.52439   0.23495   0.61122   0.00000  Uiso   1.00
H619   H     0.52388   0.09863   0.89021   0.00000  Uiso   1.00
H620   H     0.47560   0.23494   0.88878   0.00000  Uiso   1.00
H621   H     0.47613   0.09863   0.60980   0.00000  Uiso   1.00
H622   H     0.37072   0.09342   0.75016   0.00000  Uiso   1.00
N623   N     0.50000   0.28573   0.75000   0.00000  Uiso   1.00
N624   N     0.50000   0.04760   0.75000   0.00000  Uiso   1.00
N625   N     0.57881   0.06748   0.82872   0.00000  Uiso   1.00
N626   N     0.42347   0.26547   0.66898   0.00000  Uiso   1.00
N627   N     0.42119   0.06748   0.67128   0.00000  Uiso   1.00
N628   N     0.57653   0.26547   0.83102   0.00000  Uiso   1.00
O629   O     0.43892   0.20487   0.74999   0.00000  Uiso   1.00
O630   O     0.56108   0.12846   0.75000   0.00000  Uiso   1.00
O631   O     0.56108   0.20487   0.75000   0.00000  Uiso   1.00
O632   O     0.43892   0.12846   0.74999   0.00000  Uiso   1.00
O633   O     0.50000   0.20489   0.68453   0.00000  Uiso   1.00
O634   O     0.50000   0.12845   0.81547   0.00000  Uiso   1.00
O635   O     0.50000   0.20489   0.81547   0.00000  Uiso   1.00
O636   O     0.50000   0.12845   0.68453   0.00000  Uiso   1.00
Zn637  Zn    0.50000   0.21771   0.75000   0.00000  Uiso   1.00
Zn638  Zn    0.50000   0.11563   0.75000   0.00000  Uiso   1.00
C639   C     0.75332   0.16667   0.74998   0.00000  Uiso   1.00
C640   C     0.97872   0.20783   0.74999   0.00000  Uiso   1.00
C641   C     0.97872   0.12553   0.74995   0.00000  Uiso   1.00
C642   C     0.68795   0.20783   0.75001   0.00000  Uiso   1.00
C643   C     0.84713   0.20531   0.54747   0.00000  Uiso   1.00
C644   C     0.84716   0.12888   0.95325   0.00000  Uiso   1.00
C645   C     0.81953   0.20531   0.95253   0.00000  Uiso   1.00
C646   C     0.81951   0.12888   0.54675   0.00000  Uiso   1.00
C647   C     0.84688   0.20527   0.59344   0.00000  Uiso   1.00
C648   C     0.84666   0.12853   0.90731   0.00000  Uiso   1.00
C649   C     0.81978   0.20527   0.90656   0.00000  Uiso   1.00
C650   C     0.91334   0.16667   0.75002   0.00000  Uiso   1.00
C651   C     0.82001   0.12853   0.59269   0.00000  Uiso   1.00
C652   C     0.83344   0.16681   0.61606   0.00000  Uiso   1.00
C653   C     0.83323   0.16681   0.88394   0.00000  Uiso   1.00
C654   C     0.83328   0.16717   0.52407   0.00000  Uiso   1.00
C655   C     0.83338   0.16717   0.97593   0.00000  Uiso   1.00
C656   C     0.95752   0.16668   0.74999   0.00000  Uiso   1.00
C657   C     0.70915   0.16668   0.75001   0.00000  Uiso   1.00
C658   C     0.88882   0.04833   0.80584   0.00000  Uiso   1.00
C659   C     0.77911   0.28482   0.69285   0.00000  Uiso   1.00
C660   C     0.77785   0.04833   0.69416   0.00000  Uiso   1.00
C661   C     0.83335   0.16669   0.66395   0.00000  Uiso   1.00
C662   C     0.88755   0.28482   0.80715   0.00000  Uiso   1.00
C663   C     0.83331   0.16669   0.83604   0.00000  Uiso   1.00
C664   C     0.86004   0.02402   0.77733   0.00000  Uiso   1.00
C665   C     0.80685   0.30926   0.72242   0.00000  Uiso   1.00
C666   C     0.80662   0.02402   0.72267   0.00000  Uiso   1.00
C667   C     0.85982   0.30926   0.77757   0.00000  Uiso   1.00
C668   C     0.68795   0.12553   0.75005   0.00000  Uiso   1.00
H669   H     0.85849   0.23484   0.53025   0.00000  Uiso   1.00
H670   H     0.96260   0.23993   0.74995   0.00000  Uiso   1.00
H671   H     0.96261   0.09343   0.74984   0.00000  Uiso   1.00
H672   H     0.70407   0.23993   0.75005   0.00000  Uiso   1.00
H673   H     0.85855   0.09944   0.97103   0.00000  Uiso   1.00
H674   H     0.80816   0.23483   0.96975   0.00000  Uiso   1.00
H675   H     0.80812   0.09944   0.52897   0.00000  Uiso   1.00
H676   H     0.85772   0.23495   0.61122   0.00000  Uiso   1.00
H677   H     0.85721   0.09863   0.89021   0.00000  Uiso   1.00
H678   H     0.80893   0.23494   0.88878   0.00000  Uiso   1.00
H679   H     0.80946   0.09863   0.60980   0.00000  Uiso   1.00
H680   H     0.70406   0.09342   0.75016   0.00000  Uiso   1.00
N681   N     0.83333   0.28573   0.75000   0.00000  Uiso   1.00
N682   N     0.83333   0.04760   0.75000   0.00000  Uiso   1.00
N683   N     0.91214   0.06748   0.82872   0.00000  Uiso   1.00
N684   N     0.75680   0.26547   0.66898   0.00000  Uiso   1.00
N685   N     0.75453   0.06748   0.67128   0.00000  Uiso   1.00
N686   N     0.90986   0.26547   0.83102   0.00000  Uiso   1.00
O687   O     0.77226   0.20487   0.74999   0.00000  Uiso   1.00
O688   O     0.89441   0.12846   0.75000   0.00000  Uiso   1.00
O689   O     0.89441   0.20487   0.75000   0.00000  Uiso   1.00
O690   O     0.77226   0.12846   0.74999   0.00000  Uiso   1.00
O691   O     0.83333   0.20489   0.68453   0.00000  Uiso   1.00
O692   O     0.83334   0.12845   0.81547   0.00000  Uiso   1.00
O693   O     0.83334   0.20489   0.81547   0.00000  Uiso   1.00
O694   O     0.83333   0.12845   0.68453   0.00000  Uiso   1.00
Zn695  Zn    0.83333   0.21771   0.75000   0.00000  Uiso   1.00
Zn696  Zn    0.83333   0.11563   0.75000   0.00000  Uiso   1.00
C697   C     0.08666   0.50000   0.74998   0.00000  Uiso   1.00
C698   C     0.31205   0.54117   0.74999   0.00000  Uiso   1.00
C699   C     0.31205   0.45886   0.74995   0.00000  Uiso   1.00
C700   C     0.02128   0.54117   0.75001   0.00000  Uiso   1.00
C701   C     0.18046   0.53864   0.54747   0.00000  Uiso   1.00
C702   C     0.18049   0.46221   0.95325   0.00000  Uiso   1.00
C703   C     0.15286   0.53864   0.95253   0.00000  Uiso   1.00
C704   C     0.15284   0.46221   0.54675   0.00000  Uiso   1.00
C705   C     0.18021   0.53860   0.59344   0.00000  Uiso   1.00
C706   C     0.17999   0.46186   0.90731   0.00000  Uiso   1.00
C707   C     0.15311   0.53860   0.90656   0.00000  Uiso   1.00
C708   C     0.24668   0.50000   0.75002   0.00000  Uiso   1.00
C709   C     0.15334   0.46186   0.59269   0.00000  Uiso   1.00
C710   C     0.16677   0.50014   0.61606   0.00000  Uiso   1.00
C711   C     0.16656   0.50014   0.88394   0.00000  Uiso   1.00
C712   C     0.16662   0.50050   0.52407   0.00000  Uiso   1.00
C713   C     0.16671   0.50050   0.97593   0.00000  Uiso   1.00
C714   C     0.29085   0.50001   0.74999   0.00000  Uiso   1.00
C715   C     0.04248   0.50001   0.75001   0.00000  Uiso   1.00
C716   C     0.22215   0.38167   0.80584   0.00000  Uiso   1.00
C717   C     0.11245   0.61815   0.69285   0.00000  Uiso   1.00
C718   C     0.11118   0.38167   0.69416   0.00000  Uiso   1.00
C719   C     0.16668   0.50002   0.66395   0.00000  Uiso   1.00
C720   C     0.22089   0.61815   0.80715   0.00000  Uiso   1.00
C721   C     0.16665   0.50002   0.83604   0.00000  Uiso   1.00
C722   C     0.19338   0.35736   0.77733   0.00000  Uiso   1.00
C723   C     0.14018   0.64260   0.72242   0.00000  Uiso   1.00
C724   C     0.13996   0.35736   0.72267   0.00000  Uiso   1.00
C725   C     0.19315   0.64260   0.77757   0.00000  Uiso   1.00
C726   C     0.02128   0.45886   0.75005   0.00000  Uiso   1.00
H727   H     0.19182   0.56817   0.53025   0.00000  Uiso   1.00
H728   H     0.29593   0.57326   0.74995   0.00000  Uiso   1.00
H729   H     0.29594   0.42676   0.74984   0.00000  Uiso   1.00
H730   H     0.03740   0.57326   0.75005   0.00000  Uiso   1.00
H731   H     0.19188   0.43278   0.97103   0.00000  Uiso   1.00
H732   H     0.14149   0.56817   0.96975   0.00000  Uiso   1.00
H733   H     0.14146   0.43277   0.52897   0.00000  Uiso   1.00
H734   H     0.19106   0.56828   0.61122   0.00000  Uiso   1.00
H735   H     0.19054   0.43196   0.89021   0.00000  Uiso   1.00
H736   H     0.14226   0.56828   0.88878   0.00000  Uiso   1.00
H737   H     0.14280   0.43196   0.60980   0.00000  Uiso   1.00
H738   H     0.03739   0.42676   0.75016   0.00000  Uiso   1.00
N739   N     0.16667   0.61907   0.75000   0.00000  Uiso   1.00
N740   N     0.16667   0.38093   0.75000   0.00000  Uiso   1.00
N741   N     0.24547   0.40082   0.82872   0.00000  Uiso   1.00
N742   N     0.09014   0.59881   0.66898   0.00000  Uiso   1.00
N743   N     0.08786   0.40082   0.67128   0.00000  Uiso   1.00
N744   N     0.24320   0.59881   0.83102   0.00000  Uiso   1.00
O745   O     0.10559   0.53821   0.74999   0.00000  Uiso   1.00
O746   O     0.22774   0.46179   0.75000   0.00000  Uiso   1.00
O747   O     0.22774   0.53821   0.75000   0.00000  Uiso   1.00
O748   O     0.10559   0.46179   0.74999   0.00000  Uiso   1.00
O749   O     0.16666   0.53822   0.68453   0.00000  Uiso   1.00
O750   O     0.16667   0.46178   0.81547   0.00000  Uiso   1.00
O751   O     0.16667   0.53822   0.81547   0.00000  Uiso   1.00
O752   O     0.16666   0.46178   0.68453   0.00000  Uiso   1.00
Zn753  Zn    0.16667   0.55104   0.75000   0.00000  Uiso   1.00
Zn754  Zn    0.16667   0.44896   0.75000   0.00000  Uiso   1.00
C755   C     0.41999   0.50000   0.74998   0.00000  Uiso   1.00
C756   C     0.64538   0.54117   0.74999   0.00000  Uiso   1.00
C757   C     0.64539   0.45886   0.74995   0.00000  Uiso   1.00
C758   C     0.35462   0.54117   0.75001   0.00000  Uiso   1.00
C759   C     0.51379   0.53864   0.54747   0.00000  Uiso   1.00
C760   C     0.51382   0.46221   0.95325   0.00000  Uiso   1.00
C761   C     0.48619   0.53864   0.95253   0.00000  Uiso   1.00
C762   C     0.48618   0.46221   0.54675   0.00000  Uiso   1.00
C763   C     0.51354   0.53860   0.59344   0.00000  Uiso   1.00
C764   C     0.51332   0.46186   0.90731   0.00000  Uiso   1.00
C765   C     0.48644   0.53860   0.90656   0.00000  Uiso   1.00
C766   C     0.58001   0.50000   0.75002   0.00000  Uiso   1.00
C767   C     0.48668   0.46186   0.59269   0.00000  Uiso   1.00
C768   C     0.50010   0.50014   0.61606   0.00000  Uiso   1.00
C769   C     0.49989   0.50014   0.88394   0.00000  Uiso   1.00
C770   C     0.49995   0.50050   0.52407   0.00000  Uiso   1.00
C771   C     0.50004   0.50050   0.97593   0.00000  Uiso   1.00
C772   C     0.62418   0.50001   0.74999   0.00000  Uiso   1.00
C773   C     0.37582   0.50001   0.75001   0.00000  Uiso   1.00
C774   C     0.55548   0.38167   0.80584   0.00000  Uiso   1.00
C775   C     0.44578   0.61815   0.69285   0.00000  Uiso   1.00
C776   C     0.44452   0.38167   0.69416   0.00000  Uiso   1.00
C777   C     0.50002   0.50002   0.66395   0.00000  Uiso   1.00
C778   C     0.55422   0.61815   0.80715   0.00000  Uiso   1.00
C779   C     0.49998   0.50002   0.83604   0.00000  Uiso   1.00
C780   C     0.52671   0.35736   0.77733   0.00000  Uiso   1.00
C781   C     0.47352   0.64260   0.72242   0.00000  Uiso   1.00
C782   C     0.47329   0.35736   0.72267   0.00000  Uiso   1.00
C783   C     0.52648   0.64260   0.77757   0.00000  Uiso   1.00
C784   C     0.35461   0.45886   0.75005   0.00000  Uiso   1.00
H785   H     0.52515   0.56817   0.53025   0.00000  Uiso   1.00
H786   H     0.62926   0.57326   0.74995   0.00000  Uiso   1.00
H787   H     0.62928   0.42676   0.74984   0.00000  Uiso   1.00
H788   H     0.37073   0.57326   0.75005   0.00000  Uiso   1.00
H789   H     0.52521   0.43278   0.97103   0.00000  Uiso   1.00
H790   H     0.47483   0.56817   0.96975   0.00000  Uiso   1.00
H791   H     0.47479   0.43277   0.52897   0.00000  Uiso   1.00
H792   H     0.52439   0.56828   0.61122   0.00000  Uiso   1.00
H793   H     0.52388   0.43196   0.89021   0.00000  Uiso   1.00
H794   H     0.47560   0.56828   0.88878   0.00000  Uiso   1.00
H795   H     0.47613   0.43196   0.60980   0.00000  Uiso   1.00
H796   H     0.37072   0.42676   0.75016   0.00000  Uiso   1.00
N797   N     0.50000   0.61907   0.75000   0.00000  Uiso   1.00
N798   N     0.50000   0.38093   0.75000   0.00000  Uiso   1.00
N799   N     0.57881   0.40082   0.82872   0.00000  Uiso   1.00
N800   N     0.42347   0.59881   0.66898   0.00000  Uiso   1.00
N801   N     0.42119   0.40082   0.67128   0.00000  Uiso   1.00
N802   N     0.57653   0.59881   0.83102   0.00000  Uiso   1.00
O803   O     0.43892   0.53821   0.74999   0.00000  Uiso   1.00
O804   O     0.56108   0.46179   0.75000   0.00000  Uiso   1.00
O805   O     0.56108   0.53821   0.75000   0.00000  Uiso   1.00
O806   O     0.43892   0.46179   0.74999   0.00000  Uiso   1.00
O807   O     0.50000   0.53822   0.68453   0.00000  Uiso   1.00
O808   O     0.50000   0.46178   0.81547   0.00000  Uiso   1.00
O809   O     0.50000   0.53822   0.81547   0.00000  Uiso   1.00
O810   O     0.50000   0.46178   0.68453   0.00000  Uiso   1.00
Zn811  Zn    0.50000   0.55104   0.75000   0.00000  Uiso   1.00
Zn812  Zn    0.50000   0.44896   0.75000   0.00000  Uiso   1.00
C813   C     0.75332   0.50000   0.74998   0.00000  Uiso   1.00
C814   C     0.97872   0.54117   0.74999   0.00000  Uiso   1.00
C815   C     0.97872   0.45886   0.74995   0.00000  Uiso   1.00
C816   C     0.68795   0.54117   0.75001   0.00000  Uiso   1.00
C817   C     0.84713   0.53864   0.54747   0.00000  Uiso   1.00
C818   C     0.84716   0.46221   0.95325   0.00000  Uiso   1.00
C819   C     0.81953   0.53864   0.95253   0.00000  Uiso   1.00
C820   C     0.81951   0.46221   0.54675   0.00000  Uiso   1.00
C821   C     0.84688   0.53860   0.59344   0.00000  Uiso   1.00
C822   C     0.84666   0.46186   0.90731   0.00000  Uiso   1.00
C823   C     0.81978   0.53860   0.90656   0.00000  Uiso   1.00
C824   C     0.91334   0.50000   0.75002   0.00000  Uiso   1.00
C825   C     0.82001   0.46186   0.59269   0.00000  Uiso   1.00
C826   C     0.83344   0.50014   0.61606   0.00000  Uiso   1.00
C827   C     0.83323   0.50014   0.88394   0.00000  Uiso   1.00
C828   C     0.83328   0.50050   0.52407   0.00000  Uiso   1.00
C829   C     0.83338   0.50050   0.97593   0.00000  Uiso   1.00
C830   C     0.95752   0.50001   0.74999   0.00000  Uiso   1.00
C831   C     0.70915   0.50001   0.75001   0.00000  Uiso   1.00
C832   C     0.88882   0.38167   0.80584   0.00000  Uiso   1.00
C833   C     0.77911   0.61815   0.69285   0.00000  Uiso   1.00
C834   C     0.77785   0.38167   0.69416   0.00000  Uiso   1.00
C835   C     0.83335   0.50002   0.66395   0.00000  Uiso   1.00
C836   C     0.88755   0.61815   0.80715   0.00000  Uiso   1.00
C837   C     0.83331   0.50002   0.83604   0.00000  Uiso   1.00
C838   C     0.86004   0.35736   0.77733   0.00000  Uiso   1.00
C839   C     0.80685   0.64260   0.72242   0.00000  Uiso   1.00
C840   C     0.80662   0.35736   0.72267   0.00000  Uiso   1.00
C841   C     0.85982   0.64260   0.77757   0.00000  Uiso   1.00
C842   C     0.68795   0.45886   0.75005   0.00000  Uiso   1.00
H843   H     0.85849   0.56817   0.53025   0.00000  Uiso   1.00
H844   H     0.96260   0.57326   0.74995   0.00000  Uiso   1.00
H845   H     0.96261   0.42676   0.74984   0.00000  Uiso   1.00
H846   H     0.70407   0.57326   0.75005   0.00000  Uiso   1.00
H847   H     0.85855   0.43278   0.97103   0.00000  Uiso   1.00
H848   H     0.80816   0.56817   0.96975   0.00000  Uiso   1.00
H849   H     0.80812   0.43277   0.52897   0.00000  Uiso   1.00
H850   H     0.85772   0.56828   0.61122   0.00000  Uiso   1.00
H851   H     0.85721   0.43196   0.89021   0.00000  Uiso   1.00
H852   H     0.80893   0.56828   0.88878   0.00000  Uiso   1.00
H853   H     0.80946   0.43196   0.60980   0.00000  Uiso   1.00
H854   H     0.70406   0.42676   0.75016   0.00000  Uiso   1.00
N855   N     0.83333   0.61907   0.75000   0.00000  Uiso   1.00
N856   N     0.83333   0.38093   0.75000   0.00000  Uiso   1.00
N857   N     0.91214   0.40082   0.82872   0.00000  Uiso   1.00
N858   N     0.75680   0.59881   0.66898   0.00000  Uiso   1.00
N859   N     0.75453   0.40082   0.67128   0.00000  Uiso   1.00
N860   N     0.90986   0.59881   0.83102   0.00000  Uiso   1.00
O861   O     0.77226   0.53821   0.74999   0.00000  Uiso   1.00
O862   O     0.89441   0.46179   0.75000   0.00000  Uiso   1.00
O863   O     0.89441   0.53821   0.75000   0.00000  Uiso   1.00
O864   O     0.77226   0.46179   0.74999   0.00000  Uiso   1.00
O865   O     0.83333   0.53822   0.68453   0.00000  Uiso   1.00
O866   O     0.83334   0.46178   0.81547   0.00000  Uiso   1.00
O867   O     0.83334   0.53822   0.81547   0.00000  Uiso   1.00
O868   O     0.83333   0.46178   0.68453   0.00000  Uiso   1.00
Zn869  Zn    0.83333   0.55104   0.75000   0.00000  Uiso   1.00
Zn870  Zn    0.83333   0.44896   0.75000   0.00000  Uiso   1.00
C871   C     0.08666   0.83334   0.74998   0.00000  Uiso   1.00
C872   C     0.31205   0.87450   0.74999   0.00000  Uiso   1.00
C873   C     0.31205   0.79219   0.74995   0.00000  Uiso   1.00
C874   C     0.02128   0.87450   0.75001   0.00000  Uiso   1.00
C875   C     0.18046   0.87198   0.54747   0.00000  Uiso   1.00
C876   C     0.18049   0.79555   0.95325   0.00000  Uiso   1.00
C877   C     0.15286   0.87197   0.95253   0.00000  Uiso   1.00
C878   C     0.15284   0.79554   0.54675   0.00000  Uiso   1.00
C879   C     0.18021   0.87194   0.59344   0.00000  Uiso   1.00
C880   C     0.17999   0.79520   0.90731   0.00000  Uiso   1.00
C881   C     0.15311   0.87193   0.90656   0.00000  Uiso   1.00
C882   C     0.24668   0.83334   0.75002   0.00000  Uiso   1.00
C883   C     0.15334   0.79520   0.59269   0.00000  Uiso   1.00
C884   C     0.16677   0.83347   0.61606   0.00000  Uiso   1.00
C885   C     0.16656   0.83347   0.88394   0.00000  Uiso   1.00
C886   C     0.16662   0.83384   0.52407   0.00000  Uiso   1.00
C887   C     0.16671   0.83384   0.97593   0.00000  Uiso   1.00
C888   C     0.29085   0.83334   0.74999   0.00000  Uiso   1.00
C889   C     0.04248   0.83334   0.75001   0.00000  Uiso   1.00
C890   C     0.22215   0.71500   0.80584   0.00000  Uiso   1.00
C891   C     0.11245   0.95149   0.69285   0.00000  Uiso   1.00
C892   C     0.11118   0.71500   0.69416   0.00000  Uiso   1.00
C893   C     0.16668   0.83335   0.66395   0.00000  Uiso   1.00
C894   C     0.22089   0.95149   0.80715   0.00000  Uiso   1.00
C895   C     0.16665   0.83335   0.83604   0.00000  Uiso   1.00
C896   C     0.19338   0.69069   0.77733   0.00000  Uiso   1.00
C897   C     0.14018   0.97593   0.72242   0.00000  Uiso   1.00
C898   C     0.13996   0.69069   0.72267   0.00000  Uiso   1.00
C899   C     0.19315   0.97593   0.77757   0.00000  Uiso   1.00
C900   C     0.02128   0.79219   0.75005   0.00000  Uiso   1.00
H901   H     0.19182   0.90150   0.53025   0.00000  Uiso   1.00
H902   H     0.29593   0.90660   0.74995   0.00000  Uiso   1.00
H903   H     0.29594   0.76009   0.74984   0.00000  Uiso   1.00
H904   H     0.03740   0.90660   0.75005   0.00000  Uiso   1.00
H905   H     0.19188   0.76611   0.97103   0.00000  Uiso   1.00
H906   H     0.14149   0.90150   0.96975   0.00000  Uiso   1.00
H907   H     0.14146   0.76611   0.52897   0.00000  Uiso   1.00
H908   H     0.19106   0.90161   0.61122   0.00000  Uiso   1.00
H909   H     0.19054   0.76530   0.89021   0.00000  Uiso   1.00
H910   H     0.14226   0.90161   0.88878   0.00000  Uiso   1.00
H911   H     0.14280   0.76529   0.60980   0.00000  Uiso   1.00
H912   H     0.03739   0.76009   0.75016   0.00000  Uiso   1.00
N913   N     0.16667   0.95240   0.75000   0.00000  Uiso   1.00
N914   N     0.16667   0.71427   0.75000   0.00000  Uiso   1.00
N915   N     0.24547   0.73415   0.82872   0.00000  Uiso   1.00
N916   N     0.09014   0.93214   0.66898   0.00000  Uiso   1.00
N917   N     0.08786   0.73415   0.67128   0.00000  Uiso   1.00
N918   N     0.24320   0.93214   0.83102   0.00000  Uiso   1.00
O919   O     0.10559   0.87154   0.74999   0.00000  Uiso   1.00
O920   O     0.22774   0.79513   0.75000   0.00000  Uiso   1.00
O921   O     0.22774   0.87154   0.75000   0.00000  Uiso   1.00
O922   O     0.10559   0.79513   0.74999   0.00000  Uiso   1.00
O923   O     0.16666   0.87155   0.68453   0.00000  Uiso   1.00
O924   O     0.16667   0.79511   0.81547   0.00000  Uiso   1.00
O925   O     0.16667   0.87155   0.81547   0.00000  Uiso   1.00
O926   O     0.16666   0.79511   0.68453   0.00000  Uiso   1.00
Zn927  Zn    0.16667   0.88437   0.75000   0.00000  Uiso   1.00
Zn928  Zn    0.16667   0.78229   0.75000   0.00000  Uiso   1.00
C929   C     0.41999   0.83334   0.74998   0.00000  Uiso   1.00
C930   C     0.64538   0.87450   0.74999   0.00000  Uiso   1.00
C931   C     0.64539   0.79219   0.74995   0.00000  Uiso   1.00
C932   C     0.35462   0.87450   0.75001   0.00000  Uiso   1.00
C933   C     0.51379   0.87198   0.54747   0.00000  Uiso   1.00
C934   C     0.51382   0.79555   0.95325   0.00000  Uiso   1.00
C935   C     0.48619   0.87197   0.95253   0.00000  Uiso   1.00
C936   C     0.48618   0.79554   0.54675   0.00000  Uiso   1.00
C937   C     0.51354   0.87194   0.59344   0.00000  Uiso   1.00
C938   C     0.51332   0.79520   0.90731   0.00000  Uiso   1.00
C939   C     0.48644   0.87193   0.90656   0.00000  Uiso   1.00
C940   C     0.58001   0.83334   0.75002   0.00000  Uiso   1.00
C941   C     0.48668   0.79520   0.59269   0.00000  Uiso   1.00
C942   C     0.50010   0.83347   0.61606   0.00000  Uiso   1.00
C943   C     0.49989   0.83347   0.88394   0.00000  Uiso   1.00
C944   C     0.49995   0.83384   0.52407   0.00000  Uiso   1.00
C945   C     0.50004   0.83384   0.97593   0.00000  Uiso   1.00
C946   C     0.62418   0.83334   0.74999   0.00000  Uiso   1.00
C947   C     0.37582   0.83334   0.75001   0.00000  Uiso   1.00
C948   C     0.55548   0.71500   0.80584   0.00000  Uiso   1.00
C949   C     0.44578   0.95149   0.69285   0.00000  Uiso   1.00
C950   C     0.44452   0.71500   0.69416   0.00000  Uiso   1.00
C951   C     0.50002   0.83335   0.66395   0.00000  Uiso   1.00
C952   C     0.55422   0.95149   0.80715   0.00000  Uiso   1.00
C953   C     0.49998   0.83335   0.83604   0.00000  Uiso   1.00
C954   C     0.52671   0.69069   0.77733   0.00000  Uiso   1.00
C955   C     0.47352   0.97593   0.72242   0.00000  Uiso   1.00
C956   C     0.47329   0.69069   0.72267   0.00000  Uiso   1.00
C957   C     0.52648   0.97593   0.77757   0.00000  Uiso   1.00
C958   C     0.35461   0.79219   0.75005   0.00000  Uiso   1.00
H959   H     0.52515   0.90150   0.53025   0.00000  Uiso   1.00
H960   H     0.62926   0.90660   0.74995   0.00000  Uiso   1.00
H961   H     0.62928   0.76009   0.74984   0.00000  Uiso   1.00
H962   H     0.37073   0.90660   0.75005   0.00000  Uiso   1.00
H963   H     0.52521   0.76611   0.97103   0.00000  Uiso   1.00
H964   H     0.47483   0.90150   0.96975   0.00000  Uiso   1.00
H965   H     0.47479   0.76611   0.52897   0.00000  Uiso   1.00
H966   H     0.52439   0.90161   0.61122   0.00000  Uiso   1.00
H967   H     0.52388   0.76530   0.89021   0.00000  Uiso   1.00
H968   H     0.47560   0.90161   0.88878   0.00000  Uiso   1.00
H969   H     0.47613   0.76529   0.60980   0.00000  Uiso   1.00
H970   H     0.37072   0.76009   0.75016   0.00000  Uiso   1.00
N971   N     0.50000   0.95240   0.75000   0.00000  Uiso   1.00
N972   N     0.50000   0.71427   0.75000   0.00000  Uiso   1.00
N973   N     0.57881   0.73415   0.82872   0.00000  Uiso   1.00
N974   N     0.42347   0.93214   0.66898   0.00000  Uiso   1.00
N975   N     0.42119   0.73415   0.67128   0.00000  Uiso   1.00
N976   N     0.57653   0.93214   0.83102   0.00000  Uiso   1.00
O977   O     0.43892   0.87154   0.74999   0.00000  Uiso   1.00
O978   O     0.56108   0.79513   0.75000   0.00000  Uiso   1.00
O979   O     0.56108   0.87154   0.75000   0.00000  Uiso   1.00
O980   O     0.43892   0.79513   0.74999   0.00000  Uiso   1.00
O981   O     0.50000   0.87155   0.68453   0.00000  Uiso   1.00
O982   O     0.50000   0.79511   0.81547   0.00000  Uiso   1.00
O983   O     0.50000   0.87155   0.81547   0.00000  Uiso   1.00
O984   O     0.50000   0.79511   0.68453   0.00000  Uiso   1.00
Zn985  Zn    0.50000   0.88437   0.75000   0.00000  Uiso   1.00
Zn986  Zn    0.50000   0.78229   0.75000   0.00000  Uiso   1.00
C987   C     0.75332   0.83334   0.74998   0.00000  Uiso   1.00
C988   C     0.97872   0.87450   0.74999   0.00000  Uiso   1.00
C989   C     0.97872   0.79219   0.74995   0.00000  Uiso   1.00
C990   C     0.68795   0.87450   0.75001   0.00000  Uiso   1.00
C991   C     0.84713   0.87198   0.54747   0.00000  Uiso   1.00
C992   C     0.84716   0.79555   0.95325   0.00000  Uiso   1.00
C993   C     0.81953   0.87197   0.95253   0.00000  Uiso   1.00
C994   C     0.81951   0.79554   0.54675   0.00000  Uiso   1.00
C995   C     0.84688   0.87194   0.59344   0.00000  Uiso   1.00
C996   C     0.84666   0.79520   0.90731   0.00000  Uiso   1.00
C997   C     0.81978   0.87193   0.90656   0.00000  Uiso   1.00
C998   C     0.91334   0.83334   0.75002   0.00000  Uiso   1.00
C999   C     0.82001   0.79520   0.59269   0.00000  Uiso   1.00
C1000  C     0.83344   0.83347   0.61606   0.00000  Uiso   1.00
C1001  C     0.83323   0.83347   0.88394   0.00000  Uiso   1.00
C1002  C     0.83328   0.83384   0.52407   0.00000  Uiso   1.00
C1003  C     0.83338   0.83384   0.97593   0.00000  Uiso   1.00
C1004  C     0.95752   0.83334   0.74999   0.00000  Uiso   1.00
C1005  C     0.70915   0.83334   0.75001   0.00000  Uiso   1.00
C1006  C     0.88882   0.71500   0.80584   0.00000  Uiso   1.00
C1007  C     0.77911   0.95149   0.69285   0.00000  Uiso   1.00
C1008  C     0.77785   0.71500   0.69416   0.00000  Uiso   1.00
C1009  C     0.83335   0.83335   0.66395   0.00000  Uiso   1.00
C1010  C     0.88755   0.95149   0.80715   0.00000  Uiso   1.00
C1011  C     0.83331   0.83335   0.83604   0.00000  Uiso   1.00
C1012  C     0.86004   0.69069   0.77733   0.00000  Uiso   1.00
C1013  C     0.80685   0.97593   0.72242   0.00000  Uiso   1.00
C1014  C     0.80662   0.69069   0.72267   0.00000  Uiso   1.00
C1015  C     0.85982   0.97593   0.77757   0.00000  Uiso   1.00
C1016  C     0.68795   0.79219   0.75005   0.00000  Uiso   1.00
H1017  H     0.85849   0.90150   0.53025   0.00000  Uiso   1.00
H1018  H     0.96260   0.90660   0.74995   0.00000  Uiso   1.00
H1019  H     0.96261   0.76009   0.74984   0.00000  Uiso   1.00
H1020  H     0.70407   0.90660   0.75005   0.00000  Uiso   1.00
H1021  H     0.85855   0.76611   0.97103   0.00000  Uiso   1.00
H1022  H     0.80816   0.90150   0.96975   0.00000  Uiso   1.00
H1023  H     0.80812   0.76611   0.52897   0.00000  Uiso   1.00
H1024  H     0.85772   0.90161   0.61122   0.00000  Uiso   1.00
H1025  H     0.85721   0.76530   0.89021   0.00000  Uiso   1.00
H1026  H     0.80893   0.90161   0.88878   0.00000  Uiso   1.00
H1027  H     0.80946   0.76529   0.60980   0.00000  Uiso   1.00
H1028  H     0.70406   0.76009   0.75016   0.00000  Uiso   1.00
N1029  N     0.83333   0.95240   0.75000   0.00000  Uiso   1.00
N1030  N     0.83333   0.71427   0.75000   0.00000  Uiso   1.00
N1031  N     0.91214   0.73415   0.82872   0.00000  Uiso   1.00
N1032  N     0.75680   0.93214   0.66898   0.00000  Uiso   1.00
N1033  N     0.75453   0.73415   0.67128   0.00000  Uiso   1.00
N1034  N     0.90986   0.93214   0.83102   0.00000  Uiso   1.00
O1035  O     0.77226   0.87154   0.74999   0.00000  Uiso   1.00
O1036  O     0.89441   0.79513   0.75000   0.00000  Uiso   1.00
O1037  O     0.89441   0.87154   0.75000   0.00000  Uiso   1.00
O1038  O     0.77226   0.79513   0.74999   0.00000  Uiso   1.00
O1039  O     0.83333   0.87155   0.68453   0.00000  Uiso   1.00
O1040  O     0.83334   0.79511   0.81547   0.00000  Uiso   1.00
O1041  O     0.83334   0.87155   0.81547   0.00000  Uiso   1.00
O1042  O     0.83333   0.79511   0.68453   0.00000  Uiso   1.00
Zn1043 Zn    0.83333   0.88437   0.75000   0.00000  Uiso   1.00
Zn1044 Zn    0.83333   0.78229   0.75000   0.00000  Uiso   1.00
loop_
_geom_bond_atom_site_label_1
_geom_bond_atom_site_label_2
_geom_bond_distance
_geom_bond_site_symmetry_2
_ccdc_geom_bond_type
C1     O52     1.286   .     A
C1     C19     1.421   .     S
C1     O49     1.286   .     A
C2     C18     1.397   .     A
C2     H32     1.083   .     S
C2     C62     1.369   .     S
C3     C18     1.397   .     A
C3     H33     1.083   .     S
C3     C88     1.369   .     S
C4     H34     1.083   .     S
C4     C19     1.397   .     A
C4     C118    1.369   1_455 S
C5     C9      1.381   .     A
C5     C16     1.400   .     A
C5     H31     1.083   .     S
C6     C10     1.380   .     A
C6     C17     1.400   .     A
C6     H35     1.083   .     S
C7     H36     1.083   .     S
C7     C11     1.381   .     A
C7     C17     1.400   .     A
C8     C13     1.380   .     A
C8     C16     1.400   .     A
C8     H37     1.083   .     S
C9     C14     1.399   .     A
C9     H38     1.084   .     S
C10    C15     1.398   .     A
C10    H39     1.082   .     S
C11    C15     1.399   .     A
C11    H40     1.084   .     S
C12    O50     1.286   .     A
C12    O51     1.286   .     A
C12    C18     1.421   .     S
C13    H41     1.082   .     S
C13    C14     1.398   .     A
C14    C23     1.439   .     S
C15    C25     1.439   .     S
C16    C539    1.446   1_554 S
C17    C538    1.446   .     S
C19    C30     1.397   .     A
C20    N45     1.157   .     T
C20    C26     1.443   .     S
C21    C27     1.443   .     S
C21    N46     1.158   .     T
C22    N47     1.157   .     T
C22    C28     1.443   .     S
C23    O56     1.291   .     A
C23    O53     1.290   .     A
C24    N48     1.158   .     T
C24    C29     1.443   .     S
C25    O54     1.291   .     A
C25    O55     1.290   .     A
C26    N44     1.370   .     A
C26    C377    1.425   1_545 S
C27    N43     1.369   .     A
C27    C202    1.425   .     S
C28    N44     1.370   .     A
C28    C375    1.425   1_545 S
C29    N43     1.369   .     A
C29    C200    1.425   .     S
C30    H42     1.083   .     S
C30    C119    1.369   1_455 S
N43    Zn57    2.016   .     S
N44    Zn58    2.016   .     S
O49    Zn57    2.001   .     S
O50    Zn58    2.001   .     S
O51    Zn57    2.001   .     S
O52    Zn58    2.001   .     S
O53    Zn57    2.003   .     S
O54    Zn58    2.003   .     S
O55    Zn57    2.003   .     S
O56    Zn58    2.003   .     S
C59    O110    1.286   .     A
C59    C77     1.421   .     S
C59    O107    1.286   .     A
C60    C76     1.397   .     A
C60    H90     1.083   .     S
C60    C120    1.369   .     S
C61    C76     1.397   .     A
C61    H91     1.083   .     S
C61    C146    1.369   .     S
C62    H92     1.083   .     S
C62    C77     1.397   .     A
C63    C67     1.381   .     A
C63    C74     1.400   .     A
C63    H89     1.083   .     S
C64    C68     1.380   .     A
C64    C75     1.400   .     A
C64    H93     1.083   .     S
C65    H94     1.083   .     S
C65    C69     1.381   .     A
C65    C75     1.400   .     A
C66    C71     1.380   .     A
C66    C74     1.400   .     A
C66    H95     1.083   .     S
C67    C72     1.399   .     A
C67    H96     1.084   .     S
C68    C73     1.398   .     A
C68    H97     1.082   .     S
C69    C73     1.399   .     A
C69    H98     1.084   .     S
C70    O108    1.286   .     A
C70    O109    1.286   .     A
C70    C76     1.421   .     S
C71    H99     1.082   .     S
C71    C72     1.398   .     A
C72    C81     1.439   .     S
C73    C83     1.439   .     S
C74    C597    1.446   1_554 S
C75    C596    1.446   .     S
C77    C88     1.397   .     A
C78    N103    1.157   .     T
C78    C84     1.443   .     S
C79    C85     1.443   .     S
C79    N104    1.158   .     T
C80    N105    1.157   .     T
C80    C86     1.443   .     S
C81    O114    1.291   .     A
C81    O111    1.290   .     A
C82    N106    1.158   .     T
C82    C87     1.443   .     S
C83    O112    1.291   .     A
C83    O113    1.290   .     A
C84    N102    1.370   .     A
C84    C435    1.425   1_545 S
C85    N101    1.369   .     A
C85    C260    1.425   .     S
C86    N102    1.370   .     A
C86    C433    1.425   1_545 S
C87    N101    1.369   .     A
C87    C258    1.425   .     S
C88    H100    1.083   .     S
N101   Zn115   2.016   .     S
N102   Zn116   2.016   .     S
O107   Zn115   2.001   .     S
O108   Zn116   2.001   .     S
O109   Zn115   2.001   .     S
O110   Zn116   2.001   .     S
O111   Zn115   2.003   .     S
O112   Zn116   2.003   .     S
O113   Zn115   2.003   .     S
O114   Zn116   2.003   .     S
C117   O168    1.286   .     A
C117   C135    1.421   .     S
C117   O165    1.286   .     A
C118   C134    1.397   .     A
C118   H148    1.083   .     S
C118   C4      1.369   1_655 S
C119   C134    1.397   .     A
C119   H149    1.083   .     S
C119   C30     1.369   1_655 S
C120   H150    1.083   .     S
C120   C135    1.397   .     A
C121   C125    1.381   .     A
C121   C132    1.400   .     A
C121   H147    1.083   .     S
C122   C126    1.380   .     A
C122   C133    1.400   .     A
C122   H151    1.083   .     S
C123   H152    1.083   .     S
C123   C127    1.381   .     A
C123   C133    1.400   .     A
C124   C129    1.380   .     A
C124   C132    1.400   .     A
C124   H153    1.083   .     S
C125   C130    1.399   .     A
C125   H154    1.084   .     S
C126   C131    1.398   .     A
C126   H155    1.082   .     S
C127   C131    1.399   .     A
C127   H156    1.084   .     S
C128   O166    1.286   .     A
C128   O167    1.286   .     A
C128   C134    1.421   .     S
C129   H157    1.082   .     S
C129   C130    1.398   .     A
C130   C139    1.439   .     S
C131   C141    1.439   .     S
C132   C655    1.446   1_554 S
C133   C654    1.446   .     S
C135   C146    1.397   .     A
C136   N161    1.157   .     T
C136   C142    1.443   .     S
C137   C143    1.443   .     S
C137   N162    1.158   .     T
C138   N163    1.157   .     T
C138   C144    1.443   .     S
C139   O172    1.291   .     A
C139   O169    1.290   .     A
C140   N164    1.158   .     T
C140   C145    1.443   .     S
C141   O170    1.291   .     A
C141   O171    1.290   .     A
C142   N160    1.370   .     A
C142   C493    1.425   1_545 S
C143   N159    1.369   .     A
C143   C318    1.425   .     S
C144   N160    1.370   .     A
C144   C491    1.425   1_545 S
C145   N159    1.369   .     A
C145   C316    1.425   .     S
C146   H158    1.083   .     S
N159   Zn173   2.016   .     S
N160   Zn174   2.016   .     S
O165   Zn173   2.001   .     S
O166   Zn174   2.001   .     S
O167   Zn173   2.001   .     S
O168   Zn174   2.001   .     S
O169   Zn173   2.003   .     S
O170   Zn174   2.003   .     S
O171   Zn173   2.003   .     S
O172   Zn174   2.003   .     S
C175   O226    1.286   .     A
C175   C193    1.421   .     S
C175   O223    1.286   .     A
C176   C192    1.397   .     A
C176   H206    1.083   .     S
C176   C236    1.369   .     S
C177   C192    1.397   .     A
C177   H207    1.083   .     S
C177   C262    1.369   .     S
C178   H208    1.083   .     S
C178   C193    1.397   .     A
C178   C292    1.369   1_455 S
C179   C183    1.381   .     A
C179   C190    1.400   .     A
C179   H205    1.083   .     S
C180   C184    1.380   .     A
C180   C191    1.400   .     A
C180   H209    1.083   .     S
C181   H210    1.083   .     S
C181   C185    1.381   .     A
C181   C191    1.400   .     A
C182   C187    1.380   .     A
C182   C190    1.400   .     A
C182   H211    1.083   .     S
C183   C188    1.399   .     A
C183   H212    1.084   .     S
C184   C189    1.398   .     A
C184   H213    1.082   .     S
C185   C189    1.399   .     A
C185   H214    1.084   .     S
C186   O224    1.286   .     A
C186   O225    1.286   .     A
C186   C192    1.421   .     S
C187   H215    1.082   .     S
C187   C188    1.398   .     A
C188   C197    1.439   .     S
C189   C199    1.439   .     S
C190   C713    1.446   1_554 S
C191   C712    1.446   .     S
C193   C204    1.397   .     A
C194   N219    1.157   .     T
C194   C200    1.443   .     S
C195   C201    1.443   .     S
C195   N220    1.158   .     T
C196   N221    1.157   .     T
C196   C202    1.443   .     S
C197   O230    1.291   .     A
C197   O227    1.290   .     A
C198   N222    1.158   .     T
C198   C203    1.443   .     S
C199   O228    1.291   .     A
C199   O229    1.290   .     A
C200   N218    1.370   .     A
C201   N217    1.369   .     A
C201   C376    1.425   .     S
C202   N218    1.370   .     A
C203   N217    1.369   .     A
C203   C374    1.425   .     S
C204   H216    1.083   .     S
C204   C293    1.369   1_455 S
N217   Zn231   2.016   .     S
N218   Zn232   2.016   .     S
O223   Zn231   2.001   .     S
O224   Zn232   2.001   .     S
O225   Zn231   2.001   .     S
O226   Zn232   2.001   .     S
O227   Zn231   2.003   .     S
O228   Zn232   2.003   .     S
O229   Zn231   2.003   .     S
O230   Zn232   2.003   .     S
C233   O284    1.286   .     A
C233   C251    1.421   .     S
C233   O281    1.286   .     A
C234   C250    1.397   .     A
C234   H264    1.083   .     S
C234   C294    1.369   .     S
C235   C250    1.397   .     A
C235   H265    1.083   .     S
C235   C320    1.369   .     S
C236   H266    1.083   .     S
C236   C251    1.397   .     A
C237   C241    1.381   .     A
C237   C248    1.400   .     A
C237   H263    1.083   .     S
C238   C242    1.380   .     A
C238   C249    1.400   .     A
C238   H267    1.083   .     S
C239   H268    1.083   .     S
C239   C243    1.381   .     A
C239   C249    1.400   .     A
C240   C245    1.380   .     A
C240   C248    1.400   .     A
C240   H269    1.083   .     S
C241   C246    1.399   .     A
C241   H270    1.084   .     S
C242   C247    1.398   .     A
C242   H271    1.082   .     S
C243   C247    1.399   .     A
C243   H272    1.084   .     S
C244   O282    1.286   .     A
C244   O283    1.286   .     A
C244   C250    1.421   .     S
C245   H273    1.082   .     S
C245   C246    1.398   .     A
C246   C255    1.439   .     S
C247   C257    1.439   .     S
C248   C771    1.446   1_554 S
C249   C770    1.446   .     S
C251   C262    1.397   .     A
C252   N277    1.157   .     T
C252   C258    1.443   .     S
C253   C259    1.443   .     S
C253   N278    1.158   .     T
C254   N279    1.157   .     T
C254   C260    1.443   .     S
C255   O288    1.291   .     A
C255   O285    1.290   .     A
C256   N280    1.158   .     T
C256   C261    1.443   .     S
C257   O286    1.291   .     A
C257   O287    1.290   .     A
C258   N276    1.370   .     A
C259   N275    1.369   .     A
C259   C434    1.425   .     S
C260   N276    1.370   .     A
C261   N275    1.369   .     A
C261   C432    1.425   .     S
C262   H274    1.083   .     S
N275   Zn289   2.016   .     S
N276   Zn290   2.016   .     S
O281   Zn289   2.001   .     S
O282   Zn290   2.001   .     S
O283   Zn289   2.001   .     S
O284   Zn290   2.001   .     S
O285   Zn289   2.003   .     S
O286   Zn290   2.003   .     S
O287   Zn289   2.003   .     S
O288   Zn290   2.003   .     S
C291   O342    1.286   .     A
C291   C309    1.421   .     S
C291   O339    1.286   .     A
C292   C308    1.397   .     A
C292   H322    1.083   .     S
C292   C178    1.369   1_655 S
C293   C308    1.397   .     A
C293   H323    1.083   .     S
C293   C204    1.369   1_655 S
C294   H324    1.083   .     S
C294   C309    1.397   .     A
C295   C299    1.381   .     A
C295   C306    1.400   .     A
C295   H321    1.083   .     S
C296   C300    1.380   .     A
C296   C307    1.400   .     A
C296   H325    1.083   .     S
C297   H326    1.083   .     S
C297   C301    1.381   .     A
C297   C307    1.400   .     A
C298   C303    1.380   .     A
C298   C306    1.400   .     A
C298   H327    1.083   .     S
C299   C304    1.399   .     A
C299   H328    1.084   .     S
C300   C305    1.398   .     A
C300   H329    1.082   .     S
C301   C305    1.399   .     A
C301   H330    1.084   .     S
C302   O340    1.286   .     A
C302   O341    1.286   .     A
C302   C308    1.421   .     S
C303   H331    1.082   .     S
C303   C304    1.398   .     A
C304   C313    1.439   .     S
C305   C315    1.439   .     S
C306   C829    1.446   1_554 S
C307   C828    1.446   .     S
C309   C320    1.397   .     A
C310   N335    1.157   .     T
C310   C316    1.443   .     S
C311   C317    1.443   .     S
C311   N336    1.158   .     T
C312   N337    1.157   .     T
C312   C318    1.443   .     S
C313   O346    1.291   .     A
C313   O343    1.290   .     A
C314   N338    1.158   .     T
C314   C319    1.443   .     S
C315   O344    1.291   .     A
C315   O345    1.290   .     A
C316   N334    1.370   .     A
C317   N333    1.369   .     A
C317   C492    1.425   .     S
C318   N334    1.370   .     A
C319   N333    1.369   .     A
C319   C490    1.425   .     S
C320   H332    1.083   .     S
N333   Zn347   2.016   .     S
N334   Zn348   2.016   .     S
O339   Zn347   2.001   .     S
O340   Zn348   2.001   .     S
O341   Zn347   2.001   .     S
O342   Zn348   2.001   .     S
O343   Zn347   2.003   .     S
O344   Zn348   2.003   .     S
O345   Zn347   2.003   .     S
O346   Zn348   2.003   .     S
C349   O400    1.286   .     A
C349   C367    1.421   .     S
C349   O397    1.286   .     A
C350   C366    1.397   .     A
C350   H380    1.083   .     S
C350   C410    1.369   .     S
C351   C366    1.397   .     A
C351   H381    1.083   .     S
C351   C436    1.369   .     S
C352   H382    1.083   .     S
C352   C367    1.397   .     A
C352   C466    1.369   1_455 S
C353   C357    1.381   .     A
C353   C364    1.400   .     A
C353   H379    1.083   .     S
C354   C358    1.380   .     A
C354   C365    1.400   .     A
C354   H383    1.083   .     S
C355   H384    1.083   .     S
C355   C359    1.381   .     A
C355   C365    1.400   .     A
C356   C361    1.380   .     A
C356   C364    1.400   .     A
C356   H385    1.083   .     S
C357   C362    1.399   .     A
C357   H386    1.084   .     S
C358   C363    1.398   .     A
C358   H387    1.082   .     S
C359   C363    1.399   .     A
C359   H388    1.084   .     S
C360   O398    1.286   .     A
C360   O399    1.286   .     A
C360   C366    1.421   .     S
C361   H389    1.082   .     S
C361   C362    1.398   .     A
C362   C371    1.439   .     S
C363   C373    1.439   .     S
C364   C887    1.446   1_554 S
C365   C886    1.446   .     S
C367   C378    1.397   .     A
C368   N393    1.157   .     T
C368   C374    1.443   .     S
C369   C375    1.443   .     S
C369   N394    1.158   .     T
C370   N395    1.157   .     T
C370   C376    1.443   .     S
C371   O404    1.291   .     A
C371   O401    1.290   .     A
C372   N396    1.158   .     T
C372   C377    1.443   .     S
C373   O402    1.291   .     A
C373   O403    1.290   .     A
C374   N392    1.370   .     A
C375   N391    1.369   .     A
C375   C28     1.425   1_565 S
C376   N392    1.370   .     A
C377   N391    1.369   .     A
C377   C26     1.425   1_565 S
C378   H390    1.083   .     S
C378   C467    1.369   1_455 S
N391   Zn405   2.016   .     S
N392   Zn406   2.016   .     S
O397   Zn405   2.001   .     S
O398   Zn406   2.001   .     S
O399   Zn405   2.001   .     S
O400   Zn406   2.001   .     S
O401   Zn405   2.003   .     S
O402   Zn406   2.003   .     S
O403   Zn405   2.003   .     S
O404   Zn406   2.003   .     S
C407   O458    1.286   .     A
C407   C425    1.421   .     S
C407   O455    1.286   .     A
C408   C424    1.397   .     A
C408   H438    1.083   .     S
C408   C468    1.369   .     S
C409   C424    1.397   .     A
C409   H439    1.083   .     S
C409   C494    1.369   .     S
C410   H440    1.083   .     S
C410   C425    1.397   .     A
C411   C415    1.381   .     A
C411   C422    1.400   .     A
C411   H437    1.083   .     S
C412   C416    1.380   .     A
C412   C423    1.400   .     A
C412   H441    1.083   .     S
C413   H442    1.083   .     S
C413   C417    1.381   .     A
C413   C423    1.400   .     A
C414   C419    1.380   .     A
C414   C422    1.400   .     A
C414   H443    1.083   .     S
C415   C420    1.399   .     A
C415   H444    1.084   .     S
C416   C421    1.398   .     A
C416   H445    1.082   .     S
C417   C421    1.399   .     A
C417   H446    1.084   .     S
C418   O456    1.286   .     A
C418   O457    1.286   .     A
C418   C424    1.421   .     S
C419   H447    1.082   .     S
C419   C420    1.398   .     A
C420   C429    1.439   .     S
C421   C431    1.439   .     S
C422   C945    1.446   1_554 S
C423   C944    1.446   .     S
C425   C436    1.397   .     A
C426   N451    1.157   .     T
C426   C432    1.443   .     S
C427   C433    1.443   .     S
C427   N452    1.158   .     T
C428   N453    1.157   .     T
C428   C434    1.443   .     S
C429   O462    1.291   .     A
C429   O459    1.290   .     A
C430   N454    1.158   .     T
C430   C435    1.443   .     S
C431   O460    1.291   .     A
C431   O461    1.290   .     A
C432   N450    1.370   .     A
C433   N449    1.369   .     A
C433   C86     1.425   1_565 S
C434   N450    1.370   .     A
C435   N449    1.369   .     A
C435   C84     1.425   1_565 S
C436   H448    1.083   .     S
N449   Zn463   2.016   .     S
N450   Zn464   2.016   .     S
O455   Zn463   2.001   .     S
O456   Zn464   2.001   .     S
O457   Zn463   2.001   .     S
O458   Zn464   2.001   .     S
O459   Zn463   2.003   .     S
O460   Zn464   2.003   .     S
O461   Zn463   2.003   .     S
O462   Zn464   2.003   .     S
C465   O516    1.286   .     A
C465   C483    1.421   .     S
C465   O513    1.286   .     A
C466   C482    1.397   .     A
C466   H496    1.083   .     S
C466   C352    1.369   1_655 S
C467   C482    1.397   .     A
C467   H497    1.083   .     S
C467   C378    1.369   1_655 S
C468   H498    1.083   .     S
C468   C483    1.397   .     A
C469   C473    1.381   .     A
C469   C480    1.400   .     A
C469   H495    1.083   .     S
C470   C474    1.380   .     A
C470   C481    1.400   .     A
C470   H499    1.083   .     S
C471   H500    1.083   .     S
C471   C475    1.381   .     A
C471   C481    1.400   .     A
C472   C477    1.380   .     A
C472   C480    1.400   .     A
C472   H501    1.083   .     S
C473   C478    1.399   .     A
C473   H502    1.084   .     S
C474   C479    1.398   .     A
C474   H503    1.082   .     S
C475   C479    1.399   .     A
C475   H504    1.084   .     S
C476   O514    1.286   .     A
C476   O515    1.286   .     A
C476   C482    1.421   .     S
C477   H505    1.082   .     S
C477   C478    1.398   .     A
C478   C487    1.439   .     S
C479   C489    1.439   .     S
C480   C1003   1.446   1_554 S
C481   C1002   1.446   .     S
C483   C494    1.397   .     A
C484   N509    1.157   .     T
C484   C490    1.443   .     S
C485   C491    1.443   .     S
C485   N510    1.158   .     T
C486   N511    1.157   .     T
C486   C492    1.443   .     S
C487   O520    1.291   .     A
C487   O517    1.290   .     A
C488   N512    1.158   .     T
C488   C493    1.443   .     S
C489   O518    1.291   .     A
C489   O519    1.290   .     A
C490   N508    1.370   .     A
C491   N507    1.369   .     A
C491   C144    1.425   1_565 S
C492   N508    1.370   .     A
C493   N507    1.369   .     A
C493   C142    1.425   1_565 S
C494   H506    1.083   .     S
N507   Zn521   2.016   .     S
N508   Zn522   2.016   .     S
O513   Zn521   2.001   .     S
O514   Zn522   2.001   .     S
O515   Zn521   2.001   .     S
O516   Zn522   2.001   .     S
O517   Zn521   2.003   .     S
O518   Zn522   2.003   .     S
O519   Zn521   2.003   .     S
O520   Zn522   2.003   .     S
C523   O574    1.286   .     A
C523   C541    1.421   .     S
C523   O571    1.286   .     A
C524   C540    1.397   .     A
C524   H554    1.083   .     S
C524   C584    1.369   .     S
C525   C540    1.397   .     A
C525   H555    1.083   .     S
C525   C610    1.369   .     S
C526   H556    1.083   .     S
C526   C541    1.397   .     A
C526   C640    1.369   1_455 S
C527   C531    1.381   .     A
C527   C538    1.400   .     A
C527   H553    1.083   .     S
C528   C532    1.380   .     A
C528   C539    1.400   .     A
C528   H557    1.083   .     S
C529   H558    1.083   .     S
C529   C533    1.381   .     A
C529   C539    1.400   .     A
C530   C535    1.380   .     A
C530   C538    1.400   .     A
C530   H559    1.083   .     S
C531   C536    1.399   .     A
C531   H560    1.084   .     S
C532   C537    1.398   .     A
C532   H561    1.082   .     S
C533   C537    1.399   .     A
C533   H562    1.084   .     S
C534   O572    1.286   .     A
C534   O573    1.286   .     A
C534   C540    1.421   .     S
C535   H563    1.082   .     S
C535   C536    1.398   .     A
C536   C545    1.439   .     S
C537   C547    1.439   .     S
C539   C16     1.446   1_556 S
C541   C552    1.397   .     A
C542   N567    1.157   .     T
C542   C548    1.443   .     S
C543   C549    1.443   .     S
C543   N568    1.158   .     T
C544   N569    1.157   .     T
C544   C550    1.443   .     S
C545   O578    1.291   .     A
C545   O575    1.290   .     A
C546   N570    1.158   .     T
C546   C551    1.443   .     S
C547   O576    1.291   .     A
C547   O577    1.290   .     A
C548   N566    1.370   .     A
C548   C899    1.425   1_545 S
C549   N565    1.369   .     A
C549   C724    1.425   .     S
C550   N566    1.370   .     A
C550   C897    1.425   1_545 S
C551   N565    1.369   .     A
C551   C722    1.425   .     S
C552   H564    1.083   .     S
C552   C641    1.369   1_455 S
N565   Zn579   2.016   .     S
N566   Zn580   2.016   .     S
O571   Zn579   2.001   .     S
O572   Zn580   2.001   .     S
O573   Zn579   2.001   .     S
O574   Zn580   2.001   .     S
O575   Zn579   2.003   .     S
O576   Zn580   2.003   .     S
O577   Zn579   2.003   .     S
O578   Zn580   2.003   .     S
C581   O632    1.286   .     A
C581   C599    1.421   .     S
C581   O629    1.286   .     A
C582   C598    1.397   .     A
C582   H612    1.083   .     S
C582   C642    1.369   .     S
C583   C598    1.397   .     A
C583   H613    1.083   .     S
C583   C668    1.369   .     S
C584   H614    1.083   .     S
C584   C599    1.397   .     A
C585   C589    1.381   .     A
C585   C596    1.400   .     A
C585   H611    1.083   .     S
C586   C590    1.380   .     A
C586   C597    1.400   .     A
C586   H615    1.083   .     S
C587   H616    1.083   .     S
C587   C591    1.381   .     A
C587   C597    1.400   .     A
C588   C593    1.380   .     A
C588   C596    1.400   .     A
C588   H617    1.083   .     S
C589   C594    1.399   .     A
C589   H618    1.084   .     S
C590   C595    1.398   .     A
C590   H619    1.082   .     S
C591   C595    1.399   .     A
C591   H620    1.084   .     S
C592   O630    1.286   .     A
C592   O631    1.286   .     A
C592   C598    1.421   .     S
C593   H621    1.082   .     S
C593   C594    1.398   .     A
C594   C603    1.439   .     S
C595   C605    1.439   .     S
C597   C74     1.446   1_556 S
C599   C610    1.397   .     A
C600   N625    1.157   .     T
C600   C606    1.443   .     S
C601   C607    1.443   .     S
C601   N626    1.158   .     T
C602   N627    1.157   .     T
C602   C608    1.443   .     S
C603   O636    1.291   .     A
C603   O633    1.290   .     A
C604   N628    1.158   .     T
C604   C609    1.443   .     S
C605   O634    1.291   .     A
C605   O635    1.290   .     A
C606   N624    1.370   .     A
C606   C957    1.425   1_545 S
C607   N623    1.369   .     A
C607   C782    1.425   .     S
C608   N624    1.370   .     A
C608   C955    1.425   1_545 S
C609   N623    1.369   .     A
C609   C780    1.425   .     S
C610   H622    1.083   .     S
N623   Zn637   2.016   .     S
N624   Zn638   2.016   .     S
O629   Zn637   2.001   .     S
O630   Zn638   2.001   .     S
O631   Zn637   2.001   .     S
O632   Zn638   2.001   .     S
O633   Zn637   2.003   .     S
O634   Zn638   2.003   .     S
O635   Zn637   2.003   .     S
O636   Zn638   2.003   .     S
C639   O690    1.286   .     A
C639   C657    1.421   .     S
C639   O687    1.286   .     A
C640   C656    1.397   .     A
C640   H670    1.083   .     S
C640   C526    1.369   1_655 S
C641   C656    1.397   .     A
C641   H671    1.083   .     S
C641   C552    1.369   1_655 S
C642   H672    1.083   .     S
C642   C657    1.397   .     A
C643   C647    1.381   .     A
C643   C654    1.400   .     A
C643   H669    1.083   .     S
C644   C648    1.380   .     A
C644   C655    1.400   .     A
C644   H673    1.083   .     S
C645   H674    1.083   .     S
C645   C649    1.381   .     A
C645   C655    1.400   .     A
C646   C651    1.380   .     A
C646   C654    1.400   .     A
C646   H675    1.083   .     S
C647   C652    1.399   .     A
C647   H676    1.084   .     S
C648   C653    1.398   .     A
C648   H677    1.082   .     S
C649   C653    1.399   .     A
C649   H678    1.084   .     S
C650   O688    1.286   .     A
C650   O689    1.286   .     A
C650   C656    1.421   .     S
C651   H679    1.082   .     S
C651   C652    1.398   .     A
C652   C661    1.439   .     S
C653   C663    1.439   .     S
C655   C132    1.446   1_556 S
C657   C668    1.397   .     A
C658   N683    1.157   .     T
C658   C664    1.443   .     S
C659   C665    1.443   .     S
C659   N684    1.158   .     T
C660   N685    1.157   .     T
C660   C666    1.443   .     S
C661   O694    1.291   .     A
C661   O691    1.290   .     A
C662   N686    1.158   .     T
C662   C667    1.443   .     S
C663   O692    1.291   .     A
C663   O693    1.290   .     A
C664   N682    1.370   .     A
C664   C1015   1.425   1_545 S
C665   N681    1.369   .     A
C665   C840    1.425   .     S
C666   N682    1.370   .     A
C666   C1013   1.425   1_545 S
C667   N681    1.369   .     A
C667   C838    1.425   .     S
C668   H680    1.083   .     S
N681   Zn695   2.016   .     S
N682   Zn696   2.016   .     S
O687   Zn695   2.001   .     S
O688   Zn696   2.001   .     S
O689   Zn695   2.001   .     S
O690   Zn696   2.001   .     S
O691   Zn695   2.003   .     S
O692   Zn696   2.003   .     S
O693   Zn695   2.003   .     S
O694   Zn696   2.003   .     S
C697   O748    1.286   .     A
C697   C715    1.421   .     S
C697   O745    1.286   .     A
C698   C714    1.397   .     A
C698   H728    1.083   .     S
C698   C758    1.369   .     S
C699   C714    1.397   .     A
C699   H729    1.083   .     S
C699   C784    1.369   .     S
C700   H730    1.083   .     S
C700   C715    1.397   .     A
C700   C814    1.369   1_455 S
C701   C705    1.381   .     A
C701   C712    1.400   .     A
C701   H727    1.083   .     S
C702   C706    1.380   .     A
C702   C713    1.400   .     A
C702   H731    1.083   .     S
C703   H732    1.083   .     S
C703   C707    1.381   .     A
C703   C713    1.400   .     A
C704   C709    1.380   .     A
C704   C712    1.400   .     A
C704   H733    1.083   .     S
C705   C710    1.399   .     A
C705   H734    1.084   .     S
C706   C711    1.398   .     A
C706   H735    1.082   .     S
C707   C711    1.399   .     A
C707   H736    1.084   .     S
C708   O746    1.286   .     A
C708   O747    1.286   .     A
C708   C714    1.421   .     S
C709   H737    1.082   .     S
C709   C710    1.398   .     A
C710   C719    1.439   .     S
C711   C721    1.439   .     S
C713   C190    1.446   1_556 S
C715   C726    1.397   .     A
C716   N741    1.157   .     T
C716   C722    1.443   .     S
C717   C723    1.443   .     S
C717   N742    1.158   .     T
C718   N743    1.157   .     T
C718   C724    1.443   .     S
C719   O752    1.291   .     A
C719   O749    1.290   .     A
C720   N744    1.158   .     T
C720   C725    1.443   .     S
C721   O750    1.291   .     A
C721   O751    1.290   .     A
C722   N740    1.370   .     A
C723   N739    1.369   .     A
C723   C898    1.425   .     S
C724   N740    1.370   .     A
C725   N739    1.369   .     A
C725   C896    1.425   .     S
C726   H738    1.083   .     S
C726   C815    1.369   1_455 S
N739   Zn753   2.016   .     S
N740   Zn754   2.016   .     S
O745   Zn753   2.001   .     S
O746   Zn754   2.001   .     S
O747   Zn753   2.001   .     S
O748   Zn754   2.001   .     S
O749   Zn753   2.003   .     S
O750   Zn754   2.003   .     S
O751   Zn753   2.003   .     S
O752   Zn754   2.003   .     S
C755   O806    1.286   .     A
C755   C773    1.421   .     S
C755   O803    1.286   .     A
C756   C772    1.397   .     A
C756   H786    1.083   .     S
C756   C816    1.369   .     S
C757   C772    1.397   .     A
C757   H787    1.083   .     S
C757   C842    1.369   .     S
C758   H788    1.083   .     S
C758   C773    1.397   .     A
C759   C763    1.381   .     A
C759   C770    1.400   .     A
C759   H785    1.083   .     S
C760   C764    1.380   .     A
C760   C771    1.400   .     A
C760   H789    1.083   .     S
C761   H790    1.083   .     S
C761   C765    1.381   .     A
C761   C771    1.400   .     A
C762   C767    1.380   .     A
C762   C770    1.400   .     A
C762   H791    1.083   .     S
C763   C768    1.399   .     A
C763   H792    1.084   .     S
C764   C769    1.398   .     A
C764   H793    1.082   .     S
C765   C769    1.399   .     A
C765   H794    1.084   .     S
C766   O804    1.286   .     A
C766   O805    1.286   .     A
C766   C772    1.421   .     S
C767   H795    1.082   .     S
C767   C768    1.398   .     A
C768   C777    1.439   .     S
C769   C779    1.439   .     S
C771   C248    1.446   1_556 S
C773   C784    1.397   .     A
C774   N799    1.157   .     T
C774   C780    1.443   .     S
C775   C781    1.443   .     S
C775   N800    1.158   .     T
C776   N801    1.157   .     T
C776   C782    1.443   .     S
C777   O810    1.291   .     A
C777   O807    1.290   .     A
C778   N802    1.158   .     T
C778   C783    1.443   .     S
C779   O808    1.291   .     A
C779   O809    1.290   .     A
C780   N798    1.370   .     A
C781   N797    1.369   .     A
C781   C956    1.425   .     S
C782   N798    1.370   .     A
C783   N797    1.369   .     A
C783   C954    1.425   .     S
C784   H796    1.083   .     S
N797   Zn811   2.016   .     S
N798   Zn812   2.016   .     S
O803   Zn811   2.001   .     S
O804   Zn812   2.001   .     S
O805   Zn811   2.001   .     S
O806   Zn812   2.001   .     S
O807   Zn811   2.003   .     S
O808   Zn812   2.003   .     S
O809   Zn811   2.003   .     S
O810   Zn812   2.003   .     S
C813   O864    1.286   .     A
C813   C831    1.421   .     S
C813   O861    1.286   .     A
C814   C830    1.397   .     A
C814   H844    1.083   .     S
C814   C700    1.369   1_655 S
C815   C830    1.397   .     A
C815   H845    1.083   .     S
C815   C726    1.369   1_655 S
C816   H846    1.083   .     S
C816   C831    1.397   .     A
C817   C821    1.381   .     A
C817   C828    1.400   .     A
C817   H843    1.083   .     S
C818   C822    1.380   .     A
C818   C829    1.400   .     A
C818   H847    1.083   .     S
C819   H848    1.083   .     S
C819   C823    1.381   .     A
C819   C829    1.400   .     A
C820   C825    1.380   .     A
C820   C828    1.400   .     A
C820   H849    1.083   .     S
C821   C826    1.399   .     A
C821   H850    1.084   .     S
C822   C827    1.398   .     A
C822   H851    1.082   .     S
C823   C827    1.399   .     A
C823   H852    1.084   .     S
C824   O862    1.286   .     A
C824   O863    1.286   .     A
C824   C830    1.421   .     S
C825   H853    1.082   .     S
C825   C826    1.398   .     A
C826   C835    1.439   .     S
C827   C837    1.439   .     S
C829   C306    1.446   1_556 S
C831   C842    1.397   .     A
C832   N857    1.157   .     T
C832   C838    1.443   .     S
C833   C839    1.443   .     S
C833   N858    1.158   .     T
C834   N859    1.157   .     T
C834   C840    1.443   .     S
C835   O868    1.291   .     A
C835   O865    1.290   .     A
C836   N860    1.158   .     T
C836   C841    1.443   .     S
C837   O866    1.291   .     A
C837   O867    1.290   .     A
C838   N856    1.370   .     A
C839   N855    1.369   .     A
C839   C1014   1.425   .     S
C840   N856    1.370   .     A
C841   N855    1.369   .     A
C841   C1012   1.425   .     S
C842   H854    1.083   .     S
N855   Zn869   2.016   .     S
N856   Zn870   2.016   .     S
O861   Zn869   2.001   .     S
O862   Zn870   2.001   .     S
O863   Zn869   2.001   .     S
O864   Zn870   2.001   .     S
O865   Zn869   2.003   .     S
O866   Zn870   2.003   .     S
O867   Zn869   2.003   .     S
O868   Zn870   2.003   .     S
C871   O922    1.286   .     A
C871   C889    1.421   .     S
C871   O919    1.286   .     A
C872   C888    1.397   .     A
C872   H902    1.083   .     S
C872   C932    1.369   .     S
C873   C888    1.397   .     A
C873   H903    1.083   .     S
C873   C958    1.369   .     S
C874   H904    1.083   .     S
C874   C889    1.397   .     A
C874   C988    1.369   1_455 S
C875   C879    1.381   .     A
C875   C886    1.400   .     A
C875   H901    1.083   .     S
C876   C880    1.380   .     A
C876   C887    1.400   .     A
C876   H905    1.083   .     S
C877   H906    1.083   .     S
C877   C881    1.381   .     A
C877   C887    1.400   .     A
C878   C883    1.380   .     A
C878   C886    1.400   .     A
C878   H907    1.083   .     S
C879   C884    1.399   .     A
C879   H908    1.084   .     S
C880   C885    1.398   .     A
C880   H909    1.082   .     S
C881   C885    1.399   .     A
C881   H910    1.084   .     S
C882   O920    1.286   .     A
C882   O921    1.286   .     A
C882   C888    1.421   .     S
C883   H911    1.082   .     S
C883   C884    1.398   .     A
C884   C893    1.439   .     S
C885   C895    1.439   .     S
C887   C364    1.446   1_556 S
C889   C900    1.397   .     A
C890   N915    1.157   .     T
C890   C896    1.443   .     S
C891   C897    1.443   .     S
C891   N916    1.158   .     T
C892   N917    1.157   .     T
C892   C898    1.443   .     S
C893   O926    1.291   .     A
C893   O923    1.290   .     A
C894   N918    1.158   .     T
C894   C899    1.443   .     S
C895   O924    1.291   .     A
C895   O925    1.290   .     A
C896   N914    1.370   .     A
C897   N913    1.369   .     A
C897   C550    1.425   1_565 S
C898   N914    1.370   .     A
C899   N913    1.369   .     A
C899   C548    1.425   1_565 S
C900   H912    1.083   .     S
C900   C989    1.369   1_455 S
N913   Zn927   2.016   .     S
N914   Zn928   2.016   .     S
O919   Zn927   2.001   .     S
O920   Zn928   2.001   .     S
O921   Zn927   2.001   .     S
O922   Zn928   2.001   .     S
O923   Zn927   2.003   .     S
O924   Zn928   2.003   .     S
O925   Zn927   2.003   .     S
O926   Zn928   2.003   .     S
C929   O980    1.286   .     A
C929   C947    1.421   .     S
C929   O977    1.286   .     A
C930   C946    1.397   .     A
C930   H960    1.083   .     S
C930   C990    1.369   .     S
C931   C946    1.397   .     A
C931   H961    1.083   .     S
C931   C1016   1.369   .     S
C932   H962    1.083   .     S
C932   C947    1.397   .     A
C933   C937    1.381   .     A
C933   C944    1.400   .     A
C933   H959    1.083   .     S
C934   C938    1.380   .     A
C934   C945    1.400   .     A
C934   H963    1.083   .     S
C935   H964    1.083   .     S
C935   C939    1.381   .     A
C935   C945    1.400   .     A
C936   C941    1.380   .     A
C936   C944    1.400   .     A
C936   H965    1.083   .     S
C937   C942    1.399   .     A
C937   H966    1.084   .     S
C938   C943    1.398   .     A
C938   H967    1.082   .     S
C939   C943    1.399   .     A
C939   H968    1.084   .     S
C940   O978    1.286   .     A
C940   O979    1.286   .     A
C940   C946    1.421   .     S
C941   H969    1.082   .     S
C941   C942    1.398   .     A
C942   C951    1.439   .     S
C943   C953    1.439   .     S
C945   C422    1.446   1_556 S
C947   C958    1.397   .     A
C948   N973    1.157   .     T
C948   C954    1.443   .     S
C949   C955    1.443   .     S
C949   N974    1.158   .     T
C950   N975    1.157   .     T
C950   C956    1.443   .     S
C951   O984    1.291   .     A
C951   O981    1.290   .     A
C952   N976    1.158   .     T
C952   C957    1.443   .     S
C953   O982    1.291   .     A
C953   O983    1.290   .     A
C954   N972    1.370   .     A
C955   N971    1.369   .     A
C955   C608    1.425   1_565 S
C956   N972    1.370   .     A
C957   N971    1.369   .     A
C957   C606    1.425   1_565 S
C958   H970    1.083   .     S
N971   Zn985   2.016   .     S
N972   Zn986   2.016   .     S
O977   Zn985   2.001   .     S
O978   Zn986   2.001   .     S
O979   Zn985   2.001   .     S
O980   Zn986   2.001   .     S
O981   Zn985   2.003   .     S
O982   Zn986   2.003   .     S
O983   Zn985   2.003   .     S
O984   Zn986   2.003   .     S
C987   O1038   1.286   .     A
C987   C1005   1.421   .     S
C987   O1035   1.286   .     A
C988   C1004   1.397   .     A
C988   H1018   1.083   .     S
C988   C874    1.369   1_655 S
C989   C1004   1.397   .     A
C989   H1019   1.083   .     S
C989   C900    1.369   1_655 S
C990   H1020   1.083   .     S
C990   C1005   1.397   .     A
C991   C995    1.381   .     A
C991   C1002   1.400   .     A
C991   H1017   1.083   .     S
C992   C996    1.380   .     A
C992   C1003   1.400   .     A
C992   H1021   1.083   .     S
C993   H1022   1.083   .     S
C993   C997    1.381   .     A
C993   C1003   1.400   .     A
C994   C999    1.380   .     A
C994   C1002   1.400   .     A
C994   H1023   1.083   .     S
C995   C1000   1.399   .     A
C995   H1024   1.084   .     S
C996   C1001   1.398   .     A
C996   H1025   1.082   .     S
C997   C1001   1.399   .     A
C997   H1026   1.084   .     S
C998   O1036   1.286   .     A
C998   O1037   1.286   .     A
C998   C1004   1.421   .     S
C999   H1027   1.082   .     S
C999   C1000   1.398   .     A
C1000  C1009   1.439   .     S
C1001  C1011   1.439   .     S
C1003  C480    1.446   1_556 S
C1005  C1016   1.397   .     A
C1006  N1031   1.157   .     T
C1006  C1012   1.443   .     S
C1007  C1013   1.443   .     S
C1007  N1032   1.158   .     T
C1008  N1033   1.157   .     T
C1008  C1014   1.443   .     S
C1009  O1042   1.291   .     A
C1009  O1039   1.290   .     A
C1010  N1034   1.158   .     T
C1010  C1015   1.443   .     S
C1011  O1040   1.291   .     A
C1011  O1041   1.290   .     A
C1012  N1030   1.370   .     A
C1013  N1029   1.369   .     A
C1013  C666    1.425   1_565 S
C1014  N1030   1.370   .     A
C1015  N1029   1.369   .     A
C1015  C664    1.425   1_565 S
C1016  H1028   1.083   .     S
N1029  Zn1043  2.016   .     S
N1030  Zn1044  2.016   .     S
O1035  Zn1043  2.001   .     S
O1036  Zn1044  2.001   .     S
O1037  Zn1043  2.001   .     S
O1038  Zn1044  2.001   .     S
O1039  Zn1043  2.003   .     S
O1040  Zn1044  2.003   .     S
O1041  Zn1043  2.003   .     S
O1042  Zn1044  2.003   .     S
