data_str_m2_o2_o5_pcu_sym.31
_audit_creation_date              2020-01-03
_audit_creation_method            'Materials Studio'
_symmetry_space_group_name_H-M    'P1'
_symmetry_Int_Tables_number       1
_symmetry_cell_setting            triclinic
loop_
_symmetry_equiv_pos_as_xyz
  x,y,z
_cell_length_a                    30.2981
_cell_length_b                    27.9202
_cell_length_c                    27.2425
_cell_angle_alpha                 90.0002
_cell_angle_beta                  92.0707
_cell_angle_gamma                 89.9961
loop_
_atom_site_label
_atom_site_type_symbol
_atom_site_fract_x
_atom_site_fract_y
_atom_site_fract_z
_atom_site_U_iso_or_equiv
_atom_site_adp_type
_atom_site_occupancy
C1     C     0.16531   0.25002   0.17151   0.00000  Uiso   1.00
C2     C     0.26594   0.44650   0.20751   0.00000  Uiso   1.00
C3     C     0.24987   0.25000   0.07357   0.00000  Uiso   1.00
C4     C     0.25013   0.25000   0.25976   0.00000  Uiso   1.00
C5     C     0.25000   0.02713   0.16667   0.00000  Uiso   1.00
C6     C     0.25000   0.47285   0.16667   0.00000  Uiso   1.00
C7     C     0.24996   0.25001   0.02185   0.00000  Uiso   1.00
C8     C     0.25005   0.25001   0.31148   0.00000  Uiso   1.00
C9     C     0.04796   0.29323   0.18356   0.00000  Uiso   1.00
C10    C     0.45220   0.20735   0.14933   0.00000  Uiso   1.00
C11    C     0.45204   0.29321   0.14970   0.00000  Uiso   1.00
C12    C     0.33469   0.25001   0.16182   0.00000  Uiso   1.00
C13    C     0.04781   0.20737   0.18404   0.00000  Uiso   1.00
C14    C     0.09396   0.29358   0.18599   0.00000  Uiso   1.00
C15    C     0.40618   0.20683   0.14675   0.00000  Uiso   1.00
C16    C     0.40603   0.29356   0.14728   0.00000  Uiso   1.00
C17    C     0.09383   0.20685   0.18662   0.00000  Uiso   1.00
C18    C     0.11743   0.25012   0.18094   0.00000  Uiso   1.00
C19    C     0.38257   0.25011   0.15238   0.00000  Uiso   1.00
C20    C     0.02431   0.25031   0.17408   0.00000  Uiso   1.00
C21    C     0.47569   0.25030   0.15923   0.00000  Uiso   1.00
C22    C     0.28509   0.10383   0.18732   0.00000  Uiso   1.00
C23    C     0.23155   0.39615   0.12758   0.00000  Uiso   1.00
C24    C     0.21491   0.10383   0.14602   0.00000  Uiso   1.00
C25    C     0.26845   0.39615   0.20575   0.00000  Uiso   1.00
C26    C     0.28668   0.05348   0.18451   0.00000  Uiso   1.00
C27    C     0.23406   0.44650   0.12582   0.00000  Uiso   1.00
C28    C     0.21332   0.05348   0.14882   0.00000  Uiso   1.00
Cu29   Cu    0.25000   0.29822   0.16667   0.00000  Uiso   1.00
Cu30   Cu    0.25000   0.20179   0.16667   0.00000  Uiso   1.00
F31    F     0.02746   0.33383   0.19781   0.00000  Uiso   1.00
F32    F     0.47293   0.16695   0.13492   0.00000  Uiso   1.00
F33    F     0.47253   0.33379   0.13540   0.00000  Uiso   1.00
F34    F     0.02708   0.16698   0.19849   0.00000  Uiso   1.00
F35    F     0.32421   0.03070   0.20017   0.00000  Uiso   1.00
F36    F     0.22009   0.46928   0.08404   0.00000  Uiso   1.00
F37    F     0.17579   0.03071   0.13316   0.00000  Uiso   1.00
F38    F     0.27991   0.46928   0.24930   0.00000  Uiso   1.00
H39    H     0.30742   0.15256   0.23070   0.00000  Uiso   1.00
H40    H     0.19238   0.34763   0.10271   0.00000  Uiso   1.00
H41    H     0.19258   0.15256   0.10263   0.00000  Uiso   1.00
H42    H     0.30761   0.34762   0.23062   0.00000  Uiso   1.00
H43    H     0.13885   0.33071   0.22021   0.00000  Uiso   1.00
H44    H     0.36105   0.17009   0.11236   0.00000  Uiso   1.00
H45    H     0.36111   0.33064   0.11303   0.00000  Uiso   1.00
H46    H     0.13897   0.17016   0.22104   0.00000  Uiso   1.00
N47    N     0.25000   0.12935   0.16667   0.00000  Uiso   1.00
N48    N     0.25000   0.37066   0.16667   0.00000  Uiso   1.00
O49    O     0.18573   0.29072   0.16667   0.00000  Uiso   1.00
O50    O     0.20970   0.37396   0.08889   0.00000  Uiso   1.00
O51    O     0.18019   0.12597   0.12154   0.00000  Uiso   1.00
O52    O     0.29030   0.37395   0.24445   0.00000  Uiso   1.00
O53    O     0.11453   0.33676   0.19567   0.00000  Uiso   1.00
O54    O     0.38578   0.16372   0.13627   0.00000  Uiso   1.00
O55    O     0.38546   0.33672   0.13753   0.00000  Uiso   1.00
O56    O     0.11423   0.16375   0.19716   0.00000  Uiso   1.00
O57    O     0.31427   0.20929   0.16666   0.00000  Uiso   1.00
O58    O     0.31427   0.29072   0.16666   0.00000  Uiso   1.00
O59    O     0.18573   0.20929   0.16667   0.00000  Uiso   1.00
O60    O     0.25000   0.29071   0.09613   0.00000  Uiso   1.00
O61    O     0.25000   0.20929   0.23720   0.00000  Uiso   1.00
O62    O     0.25000   0.29071   0.23720   0.00000  Uiso   1.00
O63    O     0.25000   0.20929   0.09613   0.00000  Uiso   1.00
O64    O     0.31981   0.12596   0.21180   0.00000  Uiso   1.00
C65    C     0.66531   0.25002   0.17151   0.00000  Uiso   1.00
C66    C     0.76594   0.44650   0.20751   0.00000  Uiso   1.00
C67    C     0.74987   0.25000   0.07357   0.00000  Uiso   1.00
C68    C     0.75013   0.25000   0.25976   0.00000  Uiso   1.00
C69    C     0.75000   0.02713   0.16667   0.00000  Uiso   1.00
C70    C     0.75000   0.47285   0.16667   0.00000  Uiso   1.00
C71    C     0.74996   0.25001   0.02185   0.00000  Uiso   1.00
C72    C     0.75005   0.25001   0.31148   0.00000  Uiso   1.00
C73    C     0.54796   0.29323   0.18356   0.00000  Uiso   1.00
C74    C     0.95220   0.20735   0.14933   0.00000  Uiso   1.00
C75    C     0.95204   0.29321   0.14970   0.00000  Uiso   1.00
C76    C     0.83469   0.25001   0.16182   0.00000  Uiso   1.00
C77    C     0.54781   0.20737   0.18404   0.00000  Uiso   1.00
C78    C     0.59396   0.29358   0.18599   0.00000  Uiso   1.00
C79    C     0.90618   0.20683   0.14675   0.00000  Uiso   1.00
C80    C     0.90603   0.29356   0.14728   0.00000  Uiso   1.00
C81    C     0.59383   0.20685   0.18662   0.00000  Uiso   1.00
C82    C     0.61743   0.25012   0.18094   0.00000  Uiso   1.00
C83    C     0.88257   0.25011   0.15238   0.00000  Uiso   1.00
C84    C     0.52431   0.25031   0.17408   0.00000  Uiso   1.00
C85    C     0.97569   0.25030   0.15923   0.00000  Uiso   1.00
C86    C     0.78509   0.10383   0.18732   0.00000  Uiso   1.00
C87    C     0.73155   0.39615   0.12758   0.00000  Uiso   1.00
C88    C     0.71491   0.10383   0.14602   0.00000  Uiso   1.00
C89    C     0.76845   0.39615   0.20575   0.00000  Uiso   1.00
C90    C     0.78668   0.05348   0.18451   0.00000  Uiso   1.00
C91    C     0.73406   0.44650   0.12582   0.00000  Uiso   1.00
C92    C     0.71332   0.05348   0.14882   0.00000  Uiso   1.00
Cu93   Cu    0.75000   0.29822   0.16667   0.00000  Uiso   1.00
Cu94   Cu    0.75000   0.20179   0.16667   0.00000  Uiso   1.00
F95    F     0.52746   0.33383   0.19781   0.00000  Uiso   1.00
F96    F     0.97293   0.16695   0.13492   0.00000  Uiso   1.00
F97    F     0.97253   0.33379   0.13540   0.00000  Uiso   1.00
F98    F     0.52708   0.16698   0.19849   0.00000  Uiso   1.00
F99    F     0.82421   0.03070   0.20017   0.00000  Uiso   1.00
F100   F     0.72009   0.46928   0.08404   0.00000  Uiso   1.00
F101   F     0.67579   0.03071   0.13316   0.00000  Uiso   1.00
F102   F     0.77991   0.46928   0.24930   0.00000  Uiso   1.00
H103   H     0.80742   0.15256   0.23070   0.00000  Uiso   1.00
H104   H     0.69238   0.34763   0.10271   0.00000  Uiso   1.00
H105   H     0.69258   0.15256   0.10263   0.00000  Uiso   1.00
H106   H     0.80761   0.34762   0.23062   0.00000  Uiso   1.00
H107   H     0.63885   0.33071   0.22021   0.00000  Uiso   1.00
H108   H     0.86105   0.17009   0.11236   0.00000  Uiso   1.00
H109   H     0.86111   0.33064   0.11303   0.00000  Uiso   1.00
H110   H     0.63897   0.17016   0.22104   0.00000  Uiso   1.00
N111   N     0.75000   0.12935   0.16667   0.00000  Uiso   1.00
N112   N     0.75000   0.37066   0.16667   0.00000  Uiso   1.00
O113   O     0.68573   0.29072   0.16667   0.00000  Uiso   1.00
O114   O     0.70970   0.37396   0.08889   0.00000  Uiso   1.00
O115   O     0.68019   0.12597   0.12154   0.00000  Uiso   1.00
O116   O     0.79030   0.37395   0.24445   0.00000  Uiso   1.00
O117   O     0.61453   0.33676   0.19567   0.00000  Uiso   1.00
O118   O     0.88578   0.16372   0.13627   0.00000  Uiso   1.00
O119   O     0.88546   0.33672   0.13753   0.00000  Uiso   1.00
O120   O     0.61423   0.16375   0.19716   0.00000  Uiso   1.00
O121   O     0.81427   0.20929   0.16666   0.00000  Uiso   1.00
O122   O     0.81427   0.29072   0.16666   0.00000  Uiso   1.00
O123   O     0.68573   0.20929   0.16667   0.00000  Uiso   1.00
O124   O     0.75000   0.29071   0.09613   0.00000  Uiso   1.00
O125   O     0.75000   0.20929   0.23720   0.00000  Uiso   1.00
O126   O     0.75000   0.29071   0.23720   0.00000  Uiso   1.00
O127   O     0.75000   0.20929   0.09613   0.00000  Uiso   1.00
O128   O     0.81981   0.12596   0.21180   0.00000  Uiso   1.00
C129   C     0.16531   0.75002   0.17151   0.00000  Uiso   1.00
C130   C     0.26594   0.94650   0.20751   0.00000  Uiso   1.00
C131   C     0.24987   0.75000   0.07357   0.00000  Uiso   1.00
C132   C     0.25013   0.75000   0.25976   0.00000  Uiso   1.00
C133   C     0.25000   0.52713   0.16667   0.00000  Uiso   1.00
C134   C     0.25000   0.97285   0.16667   0.00000  Uiso   1.00
C135   C     0.24996   0.75001   0.02185   0.00000  Uiso   1.00
C136   C     0.25005   0.75001   0.31148   0.00000  Uiso   1.00
C137   C     0.04796   0.79323   0.18356   0.00000  Uiso   1.00
C138   C     0.45220   0.70735   0.14933   0.00000  Uiso   1.00
C139   C     0.45204   0.79321   0.14970   0.00000  Uiso   1.00
C140   C     0.33469   0.75001   0.16182   0.00000  Uiso   1.00
C141   C     0.04781   0.70737   0.18404   0.00000  Uiso   1.00
C142   C     0.09396   0.79358   0.18599   0.00000  Uiso   1.00
C143   C     0.40618   0.70683   0.14675   0.00000  Uiso   1.00
C144   C     0.40603   0.79356   0.14728   0.00000  Uiso   1.00
C145   C     0.09383   0.70685   0.18662   0.00000  Uiso   1.00
C146   C     0.11743   0.75012   0.18094   0.00000  Uiso   1.00
C147   C     0.38257   0.75011   0.15238   0.00000  Uiso   1.00
C148   C     0.02431   0.75031   0.17408   0.00000  Uiso   1.00
C149   C     0.47569   0.75030   0.15923   0.00000  Uiso   1.00
C150   C     0.28509   0.60383   0.18732   0.00000  Uiso   1.00
C151   C     0.23155   0.89615   0.12758   0.00000  Uiso   1.00
C152   C     0.21491   0.60383   0.14602   0.00000  Uiso   1.00
C153   C     0.26845   0.89615   0.20575   0.00000  Uiso   1.00
C154   C     0.28668   0.55348   0.18451   0.00000  Uiso   1.00
C155   C     0.23406   0.94650   0.12582   0.00000  Uiso   1.00
C156   C     0.21332   0.55348   0.14882   0.00000  Uiso   1.00
Cu157  Cu    0.25000   0.79822   0.16667   0.00000  Uiso   1.00
Cu158  Cu    0.25000   0.70179   0.16667   0.00000  Uiso   1.00
F159   F     0.02746   0.83383   0.19781   0.00000  Uiso   1.00
F160   F     0.47293   0.66695   0.13492   0.00000  Uiso   1.00
F161   F     0.47253   0.83379   0.13540   0.00000  Uiso   1.00
F162   F     0.02708   0.66698   0.19849   0.00000  Uiso   1.00
F163   F     0.32421   0.53070   0.20017   0.00000  Uiso   1.00
F164   F     0.22009   0.96928   0.08404   0.00000  Uiso   1.00
F165   F     0.17579   0.53071   0.13316   0.00000  Uiso   1.00
F166   F     0.27991   0.96928   0.24930   0.00000  Uiso   1.00
H167   H     0.30742   0.65256   0.23070   0.00000  Uiso   1.00
H168   H     0.19238   0.84763   0.10271   0.00000  Uiso   1.00
H169   H     0.19258   0.65256   0.10263   0.00000  Uiso   1.00
H170   H     0.30761   0.84762   0.23062   0.00000  Uiso   1.00
H171   H     0.13885   0.83071   0.22021   0.00000  Uiso   1.00
H172   H     0.36105   0.67009   0.11236   0.00000  Uiso   1.00
H173   H     0.36111   0.83064   0.11303   0.00000  Uiso   1.00
H174   H     0.13897   0.67016   0.22104   0.00000  Uiso   1.00
N175   N     0.25000   0.62935   0.16667   0.00000  Uiso   1.00
N176   N     0.25000   0.87066   0.16667   0.00000  Uiso   1.00
O177   O     0.18573   0.79072   0.16667   0.00000  Uiso   1.00
O178   O     0.20970   0.87396   0.08889   0.00000  Uiso   1.00
O179   O     0.18019   0.62597   0.12154   0.00000  Uiso   1.00
O180   O     0.29030   0.87395   0.24445   0.00000  Uiso   1.00
O181   O     0.11453   0.83676   0.19567   0.00000  Uiso   1.00
O182   O     0.38578   0.66372   0.13627   0.00000  Uiso   1.00
O183   O     0.38546   0.83672   0.13753   0.00000  Uiso   1.00
O184   O     0.11423   0.66375   0.19716   0.00000  Uiso   1.00
O185   O     0.31427   0.70929   0.16666   0.00000  Uiso   1.00
O186   O     0.31427   0.79072   0.16666   0.00000  Uiso   1.00
O187   O     0.18573   0.70929   0.16667   0.00000  Uiso   1.00
O188   O     0.25000   0.79071   0.09613   0.00000  Uiso   1.00
O189   O     0.25000   0.70929   0.23720   0.00000  Uiso   1.00
O190   O     0.25000   0.79071   0.23720   0.00000  Uiso   1.00
O191   O     0.25000   0.70929   0.09613   0.00000  Uiso   1.00
O192   O     0.31981   0.62596   0.21180   0.00000  Uiso   1.00
C193   C     0.66531   0.75002   0.17151   0.00000  Uiso   1.00
C194   C     0.76594   0.94650   0.20751   0.00000  Uiso   1.00
C195   C     0.74987   0.75000   0.07357   0.00000  Uiso   1.00
C196   C     0.75013   0.75000   0.25976   0.00000  Uiso   1.00
C197   C     0.75000   0.52713   0.16667   0.00000  Uiso   1.00
C198   C     0.75000   0.97285   0.16667   0.00000  Uiso   1.00
C199   C     0.74996   0.75001   0.02185   0.00000  Uiso   1.00
C200   C     0.75005   0.75001   0.31148   0.00000  Uiso   1.00
C201   C     0.54796   0.79323   0.18356   0.00000  Uiso   1.00
C202   C     0.95220   0.70735   0.14933   0.00000  Uiso   1.00
C203   C     0.95204   0.79321   0.14970   0.00000  Uiso   1.00
C204   C     0.83469   0.75001   0.16182   0.00000  Uiso   1.00
C205   C     0.54781   0.70737   0.18404   0.00000  Uiso   1.00
C206   C     0.59396   0.79358   0.18599   0.00000  Uiso   1.00
C207   C     0.90618   0.70683   0.14675   0.00000  Uiso   1.00
C208   C     0.90603   0.79356   0.14728   0.00000  Uiso   1.00
C209   C     0.59383   0.70685   0.18662   0.00000  Uiso   1.00
C210   C     0.61743   0.75012   0.18094   0.00000  Uiso   1.00
C211   C     0.88257   0.75011   0.15238   0.00000  Uiso   1.00
C212   C     0.52431   0.75031   0.17408   0.00000  Uiso   1.00
C213   C     0.97569   0.75030   0.15923   0.00000  Uiso   1.00
C214   C     0.78509   0.60383   0.18732   0.00000  Uiso   1.00
C215   C     0.73155   0.89615   0.12758   0.00000  Uiso   1.00
C216   C     0.71491   0.60383   0.14602   0.00000  Uiso   1.00
C217   C     0.76845   0.89615   0.20575   0.00000  Uiso   1.00
C218   C     0.78668   0.55348   0.18451   0.00000  Uiso   1.00
C219   C     0.73406   0.94650   0.12582   0.00000  Uiso   1.00
C220   C     0.71332   0.55348   0.14882   0.00000  Uiso   1.00
Cu221  Cu    0.75000   0.79822   0.16667   0.00000  Uiso   1.00
Cu222  Cu    0.75000   0.70179   0.16667   0.00000  Uiso   1.00
F223   F     0.52746   0.83383   0.19781   0.00000  Uiso   1.00
F224   F     0.97293   0.66695   0.13492   0.00000  Uiso   1.00
F225   F     0.97253   0.83379   0.13540   0.00000  Uiso   1.00
F226   F     0.52708   0.66698   0.19849   0.00000  Uiso   1.00
F227   F     0.82421   0.53070   0.20017   0.00000  Uiso   1.00
F228   F     0.72009   0.96928   0.08404   0.00000  Uiso   1.00
F229   F     0.67579   0.53071   0.13316   0.00000  Uiso   1.00
F230   F     0.77991   0.96928   0.24930   0.00000  Uiso   1.00
H231   H     0.80742   0.65256   0.23070   0.00000  Uiso   1.00
H232   H     0.69238   0.84763   0.10271   0.00000  Uiso   1.00
H233   H     0.69258   0.65256   0.10263   0.00000  Uiso   1.00
H234   H     0.80761   0.84762   0.23062   0.00000  Uiso   1.00
H235   H     0.63885   0.83071   0.22021   0.00000  Uiso   1.00
H236   H     0.86105   0.67009   0.11236   0.00000  Uiso   1.00
H237   H     0.86111   0.83064   0.11303   0.00000  Uiso   1.00
H238   H     0.63897   0.67016   0.22104   0.00000  Uiso   1.00
N239   N     0.75000   0.62935   0.16667   0.00000  Uiso   1.00
N240   N     0.75000   0.87066   0.16667   0.00000  Uiso   1.00
O241   O     0.68573   0.79072   0.16667   0.00000  Uiso   1.00
O242   O     0.70970   0.87396   0.08889   0.00000  Uiso   1.00
O243   O     0.68019   0.62597   0.12154   0.00000  Uiso   1.00
O244   O     0.79030   0.87395   0.24445   0.00000  Uiso   1.00
O245   O     0.61453   0.83676   0.19567   0.00000  Uiso   1.00
O246   O     0.88578   0.66372   0.13627   0.00000  Uiso   1.00
O247   O     0.88546   0.83672   0.13753   0.00000  Uiso   1.00
O248   O     0.61423   0.66375   0.19716   0.00000  Uiso   1.00
O249   O     0.81427   0.70929   0.16666   0.00000  Uiso   1.00
O250   O     0.81427   0.79072   0.16666   0.00000  Uiso   1.00
O251   O     0.68573   0.70929   0.16667   0.00000  Uiso   1.00
O252   O     0.75000   0.79071   0.09613   0.00000  Uiso   1.00
O253   O     0.75000   0.70929   0.23720   0.00000  Uiso   1.00
O254   O     0.75000   0.79071   0.23720   0.00000  Uiso   1.00
O255   O     0.75000   0.70929   0.09613   0.00000  Uiso   1.00
O256   O     0.81981   0.62596   0.21180   0.00000  Uiso   1.00
C257   C     0.16531   0.25002   0.50484   0.00000  Uiso   1.00
C258   C     0.26594   0.44650   0.54084   0.00000  Uiso   1.00
C259   C     0.24987   0.25000   0.40691   0.00000  Uiso   1.00
C260   C     0.25013   0.25000   0.59309   0.00000  Uiso   1.00
C261   C     0.25000   0.02713   0.50000   0.00000  Uiso   1.00
C262   C     0.25000   0.47285   0.50000   0.00000  Uiso   1.00
C263   C     0.24996   0.25001   0.35518   0.00000  Uiso   1.00
C264   C     0.25005   0.25001   0.64482   0.00000  Uiso   1.00
C265   C     0.04796   0.29323   0.51689   0.00000  Uiso   1.00
C266   C     0.45220   0.20735   0.48267   0.00000  Uiso   1.00
C267   C     0.45204   0.29321   0.48303   0.00000  Uiso   1.00
C268   C     0.33469   0.25001   0.49515   0.00000  Uiso   1.00
C269   C     0.04781   0.20737   0.51737   0.00000  Uiso   1.00
C270   C     0.09396   0.29358   0.51932   0.00000  Uiso   1.00
C271   C     0.40618   0.20683   0.48008   0.00000  Uiso   1.00
C272   C     0.40603   0.29356   0.48061   0.00000  Uiso   1.00
C273   C     0.09383   0.20685   0.51996   0.00000  Uiso   1.00
C274   C     0.11743   0.25012   0.51427   0.00000  Uiso   1.00
C275   C     0.38257   0.25011   0.48571   0.00000  Uiso   1.00
C276   C     0.02431   0.25031   0.50742   0.00000  Uiso   1.00
C277   C     0.47569   0.25030   0.49256   0.00000  Uiso   1.00
C278   C     0.28509   0.10383   0.52065   0.00000  Uiso   1.00
C279   C     0.23155   0.39615   0.46091   0.00000  Uiso   1.00
C280   C     0.21491   0.10383   0.47935   0.00000  Uiso   1.00
C281   C     0.26845   0.39615   0.53909   0.00000  Uiso   1.00
C282   C     0.28668   0.05348   0.51785   0.00000  Uiso   1.00
C283   C     0.23406   0.44650   0.45915   0.00000  Uiso   1.00
C284   C     0.21332   0.05348   0.48215   0.00000  Uiso   1.00
Cu285  Cu    0.25000   0.29822   0.50000   0.00000  Uiso   1.00
Cu286  Cu    0.25000   0.20179   0.50000   0.00000  Uiso   1.00
F287   F     0.02746   0.33383   0.53114   0.00000  Uiso   1.00
F288   F     0.47293   0.16695   0.46826   0.00000  Uiso   1.00
F289   F     0.47253   0.33379   0.46873   0.00000  Uiso   1.00
F290   F     0.02708   0.16698   0.53183   0.00000  Uiso   1.00
F291   F     0.32421   0.03070   0.53351   0.00000  Uiso   1.00
F292   F     0.22009   0.46928   0.41737   0.00000  Uiso   1.00
F293   F     0.17579   0.03071   0.46649   0.00000  Uiso   1.00
F294   F     0.27991   0.46928   0.58263   0.00000  Uiso   1.00
H295   H     0.30742   0.15256   0.56403   0.00000  Uiso   1.00
H296   H     0.19238   0.34763   0.43605   0.00000  Uiso   1.00
H297   H     0.19258   0.15256   0.43597   0.00000  Uiso   1.00
H298   H     0.30761   0.34762   0.56396   0.00000  Uiso   1.00
H299   H     0.13885   0.33071   0.55354   0.00000  Uiso   1.00
H300   H     0.36105   0.17009   0.44569   0.00000  Uiso   1.00
H301   H     0.36111   0.33064   0.44637   0.00000  Uiso   1.00
H302   H     0.13897   0.17016   0.55438   0.00000  Uiso   1.00
N303   N     0.25000   0.12935   0.50000   0.00000  Uiso   1.00
N304   N     0.25000   0.37066   0.50000   0.00000  Uiso   1.00
O305   O     0.18573   0.29072   0.50000   0.00000  Uiso   1.00
O306   O     0.20970   0.37396   0.42222   0.00000  Uiso   1.00
O307   O     0.18019   0.12597   0.45487   0.00000  Uiso   1.00
O308   O     0.29030   0.37395   0.57778   0.00000  Uiso   1.00
O309   O     0.11453   0.33676   0.52901   0.00000  Uiso   1.00
O310   O     0.38578   0.16372   0.46960   0.00000  Uiso   1.00
O311   O     0.38546   0.33672   0.47086   0.00000  Uiso   1.00
O312   O     0.11423   0.16375   0.53049   0.00000  Uiso   1.00
O313   O     0.31427   0.20929   0.50000   0.00000  Uiso   1.00
O314   O     0.31427   0.29072   0.50000   0.00000  Uiso   1.00
O315   O     0.18573   0.20929   0.50000   0.00000  Uiso   1.00
O316   O     0.25000   0.29071   0.42946   0.00000  Uiso   1.00
O317   O     0.25000   0.20929   0.57054   0.00000  Uiso   1.00
O318   O     0.25000   0.29071   0.57054   0.00000  Uiso   1.00
O319   O     0.25000   0.20929   0.42946   0.00000  Uiso   1.00
O320   O     0.31981   0.12596   0.54513   0.00000  Uiso   1.00
C321   C     0.66531   0.25002   0.50484   0.00000  Uiso   1.00
C322   C     0.76594   0.44650   0.54084   0.00000  Uiso   1.00
C323   C     0.74987   0.25000   0.40691   0.00000  Uiso   1.00
C324   C     0.75013   0.25000   0.59309   0.00000  Uiso   1.00
C325   C     0.75000   0.02713   0.50000   0.00000  Uiso   1.00
C326   C     0.75000   0.47285   0.50000   0.00000  Uiso   1.00
C327   C     0.74996   0.25001   0.35518   0.00000  Uiso   1.00
C328   C     0.75005   0.25001   0.64482   0.00000  Uiso   1.00
C329   C     0.54796   0.29323   0.51689   0.00000  Uiso   1.00
C330   C     0.95220   0.20735   0.48267   0.00000  Uiso   1.00
C331   C     0.95204   0.29321   0.48303   0.00000  Uiso   1.00
C332   C     0.83469   0.25001   0.49515   0.00000  Uiso   1.00
C333   C     0.54781   0.20737   0.51737   0.00000  Uiso   1.00
C334   C     0.59396   0.29358   0.51932   0.00000  Uiso   1.00
C335   C     0.90618   0.20683   0.48008   0.00000  Uiso   1.00
C336   C     0.90603   0.29356   0.48061   0.00000  Uiso   1.00
C337   C     0.59383   0.20685   0.51996   0.00000  Uiso   1.00
C338   C     0.61743   0.25012   0.51427   0.00000  Uiso   1.00
C339   C     0.88257   0.25011   0.48571   0.00000  Uiso   1.00
C340   C     0.52431   0.25031   0.50742   0.00000  Uiso   1.00
C341   C     0.97569   0.25030   0.49256   0.00000  Uiso   1.00
C342   C     0.78509   0.10383   0.52065   0.00000  Uiso   1.00
C343   C     0.73155   0.39615   0.46091   0.00000  Uiso   1.00
C344   C     0.71491   0.10383   0.47935   0.00000  Uiso   1.00
C345   C     0.76845   0.39615   0.53909   0.00000  Uiso   1.00
C346   C     0.78668   0.05348   0.51785   0.00000  Uiso   1.00
C347   C     0.73406   0.44650   0.45915   0.00000  Uiso   1.00
C348   C     0.71332   0.05348   0.48215   0.00000  Uiso   1.00
Cu349  Cu    0.75000   0.29822   0.50000   0.00000  Uiso   1.00
Cu350  Cu    0.75000   0.20179   0.50000   0.00000  Uiso   1.00
F351   F     0.52746   0.33383   0.53114   0.00000  Uiso   1.00
F352   F     0.97293   0.16695   0.46826   0.00000  Uiso   1.00
F353   F     0.97253   0.33379   0.46873   0.00000  Uiso   1.00
F354   F     0.52708   0.16698   0.53183   0.00000  Uiso   1.00
F355   F     0.82421   0.03070   0.53351   0.00000  Uiso   1.00
F356   F     0.72009   0.46928   0.41737   0.00000  Uiso   1.00
F357   F     0.67579   0.03071   0.46649   0.00000  Uiso   1.00
F358   F     0.77991   0.46928   0.58263   0.00000  Uiso   1.00
H359   H     0.80742   0.15256   0.56403   0.00000  Uiso   1.00
H360   H     0.69238   0.34763   0.43605   0.00000  Uiso   1.00
H361   H     0.69258   0.15256   0.43597   0.00000  Uiso   1.00
H362   H     0.80761   0.34762   0.56396   0.00000  Uiso   1.00
H363   H     0.63885   0.33071   0.55354   0.00000  Uiso   1.00
H364   H     0.86105   0.17009   0.44569   0.00000  Uiso   1.00
H365   H     0.86111   0.33064   0.44637   0.00000  Uiso   1.00
H366   H     0.63897   0.17016   0.55438   0.00000  Uiso   1.00
N367   N     0.75000   0.12935   0.50000   0.00000  Uiso   1.00
N368   N     0.75000   0.37066   0.50000   0.00000  Uiso   1.00
O369   O     0.68573   0.29072   0.50000   0.00000  Uiso   1.00
O370   O     0.70970   0.37396   0.42222   0.00000  Uiso   1.00
O371   O     0.68019   0.12597   0.45487   0.00000  Uiso   1.00
O372   O     0.79030   0.37395   0.57778   0.00000  Uiso   1.00
O373   O     0.61453   0.33676   0.52901   0.00000  Uiso   1.00
O374   O     0.88578   0.16372   0.46960   0.00000  Uiso   1.00
O375   O     0.88546   0.33672   0.47086   0.00000  Uiso   1.00
O376   O     0.61423   0.16375   0.53049   0.00000  Uiso   1.00
O377   O     0.81427   0.20929   0.50000   0.00000  Uiso   1.00
O378   O     0.81427   0.29072   0.50000   0.00000  Uiso   1.00
O379   O     0.68573   0.20929   0.50000   0.00000  Uiso   1.00
O380   O     0.75000   0.29071   0.42946   0.00000  Uiso   1.00
O381   O     0.75000   0.20929   0.57054   0.00000  Uiso   1.00
O382   O     0.75000   0.29071   0.57054   0.00000  Uiso   1.00
O383   O     0.75000   0.20929   0.42946   0.00000  Uiso   1.00
O384   O     0.81981   0.12596   0.54513   0.00000  Uiso   1.00
C385   C     0.16531   0.75002   0.50484   0.00000  Uiso   1.00
C386   C     0.26594   0.94650   0.54084   0.00000  Uiso   1.00
C387   C     0.24987   0.75000   0.40691   0.00000  Uiso   1.00
C388   C     0.25013   0.75000   0.59309   0.00000  Uiso   1.00
C389   C     0.25000   0.52713   0.50000   0.00000  Uiso   1.00
C390   C     0.25000   0.97285   0.50000   0.00000  Uiso   1.00
C391   C     0.24996   0.75001   0.35518   0.00000  Uiso   1.00
C392   C     0.25005   0.75001   0.64482   0.00000  Uiso   1.00
C393   C     0.04796   0.79323   0.51689   0.00000  Uiso   1.00
C394   C     0.45220   0.70735   0.48267   0.00000  Uiso   1.00
C395   C     0.45204   0.79321   0.48303   0.00000  Uiso   1.00
C396   C     0.33469   0.75001   0.49515   0.00000  Uiso   1.00
C397   C     0.04781   0.70737   0.51737   0.00000  Uiso   1.00
C398   C     0.09396   0.79358   0.51932   0.00000  Uiso   1.00
C399   C     0.40618   0.70683   0.48008   0.00000  Uiso   1.00
C400   C     0.40603   0.79356   0.48061   0.00000  Uiso   1.00
C401   C     0.09383   0.70685   0.51996   0.00000  Uiso   1.00
C402   C     0.11743   0.75012   0.51427   0.00000  Uiso   1.00
C403   C     0.38257   0.75011   0.48571   0.00000  Uiso   1.00
C404   C     0.02431   0.75031   0.50742   0.00000  Uiso   1.00
C405   C     0.47569   0.75030   0.49256   0.00000  Uiso   1.00
C406   C     0.28509   0.60383   0.52065   0.00000  Uiso   1.00
C407   C     0.23155   0.89615   0.46091   0.00000  Uiso   1.00
C408   C     0.21491   0.60383   0.47935   0.00000  Uiso   1.00
C409   C     0.26845   0.89615   0.53909   0.00000  Uiso   1.00
C410   C     0.28668   0.55348   0.51785   0.00000  Uiso   1.00
C411   C     0.23406   0.94650   0.45915   0.00000  Uiso   1.00
C412   C     0.21332   0.55348   0.48215   0.00000  Uiso   1.00
Cu413  Cu    0.25000   0.79822   0.50000   0.00000  Uiso   1.00
Cu414  Cu    0.25000   0.70179   0.50000   0.00000  Uiso   1.00
F415   F     0.02746   0.83383   0.53114   0.00000  Uiso   1.00
F416   F     0.47293   0.66695   0.46826   0.00000  Uiso   1.00
F417   F     0.47253   0.83379   0.46873   0.00000  Uiso   1.00
F418   F     0.02708   0.66698   0.53183   0.00000  Uiso   1.00
F419   F     0.32421   0.53070   0.53351   0.00000  Uiso   1.00
F420   F     0.22009   0.96928   0.41737   0.00000  Uiso   1.00
F421   F     0.17579   0.53071   0.46649   0.00000  Uiso   1.00
F422   F     0.27991   0.96928   0.58263   0.00000  Uiso   1.00
H423   H     0.30742   0.65256   0.56403   0.00000  Uiso   1.00
H424   H     0.19238   0.84763   0.43605   0.00000  Uiso   1.00
H425   H     0.19258   0.65256   0.43597   0.00000  Uiso   1.00
H426   H     0.30761   0.84762   0.56396   0.00000  Uiso   1.00
H427   H     0.13885   0.83071   0.55354   0.00000  Uiso   1.00
H428   H     0.36105   0.67009   0.44569   0.00000  Uiso   1.00
H429   H     0.36111   0.83064   0.44637   0.00000  Uiso   1.00
H430   H     0.13897   0.67016   0.55438   0.00000  Uiso   1.00
N431   N     0.25000   0.62935   0.50000   0.00000  Uiso   1.00
N432   N     0.25000   0.87066   0.50000   0.00000  Uiso   1.00
O433   O     0.18573   0.79072   0.50000   0.00000  Uiso   1.00
O434   O     0.20970   0.87396   0.42222   0.00000  Uiso   1.00
O435   O     0.18019   0.62597   0.45487   0.00000  Uiso   1.00
O436   O     0.29030   0.87395   0.57778   0.00000  Uiso   1.00
O437   O     0.11453   0.83676   0.52901   0.00000  Uiso   1.00
O438   O     0.38578   0.66372   0.46960   0.00000  Uiso   1.00
O439   O     0.38546   0.83672   0.47086   0.00000  Uiso   1.00
O440   O     0.11423   0.66375   0.53049   0.00000  Uiso   1.00
O441   O     0.31427   0.70929   0.50000   0.00000  Uiso   1.00
O442   O     0.31427   0.79072   0.50000   0.00000  Uiso   1.00
O443   O     0.18573   0.70929   0.50000   0.00000  Uiso   1.00
O444   O     0.25000   0.79071   0.42946   0.00000  Uiso   1.00
O445   O     0.25000   0.70929   0.57054   0.00000  Uiso   1.00
O446   O     0.25000   0.79071   0.57054   0.00000  Uiso   1.00
O447   O     0.25000   0.70929   0.42946   0.00000  Uiso   1.00
O448   O     0.31981   0.62596   0.54513   0.00000  Uiso   1.00
C449   C     0.66531   0.75002   0.50484   0.00000  Uiso   1.00
C450   C     0.76594   0.94650   0.54084   0.00000  Uiso   1.00
C451   C     0.74987   0.75000   0.40691   0.00000  Uiso   1.00
C452   C     0.75013   0.75000   0.59309   0.00000  Uiso   1.00
C453   C     0.75000   0.52713   0.50000   0.00000  Uiso   1.00
C454   C     0.75000   0.97285   0.50000   0.00000  Uiso   1.00
C455   C     0.74996   0.75001   0.35518   0.00000  Uiso   1.00
C456   C     0.75005   0.75001   0.64482   0.00000  Uiso   1.00
C457   C     0.54796   0.79323   0.51689   0.00000  Uiso   1.00
C458   C     0.95220   0.70735   0.48267   0.00000  Uiso   1.00
C459   C     0.95204   0.79321   0.48303   0.00000  Uiso   1.00
C460   C     0.83469   0.75001   0.49515   0.00000  Uiso   1.00
C461   C     0.54781   0.70737   0.51737   0.00000  Uiso   1.00
C462   C     0.59396   0.79358   0.51932   0.00000  Uiso   1.00
C463   C     0.90618   0.70683   0.48008   0.00000  Uiso   1.00
C464   C     0.90603   0.79356   0.48061   0.00000  Uiso   1.00
C465   C     0.59383   0.70685   0.51996   0.00000  Uiso   1.00
C466   C     0.61743   0.75012   0.51427   0.00000  Uiso   1.00
C467   C     0.88257   0.75011   0.48571   0.00000  Uiso   1.00
C468   C     0.52431   0.75031   0.50742   0.00000  Uiso   1.00
C469   C     0.97569   0.75030   0.49256   0.00000  Uiso   1.00
C470   C     0.78509   0.60383   0.52065   0.00000  Uiso   1.00
C471   C     0.73155   0.89615   0.46091   0.00000  Uiso   1.00
C472   C     0.71491   0.60383   0.47935   0.00000  Uiso   1.00
C473   C     0.76845   0.89615   0.53909   0.00000  Uiso   1.00
C474   C     0.78668   0.55348   0.51785   0.00000  Uiso   1.00
C475   C     0.73406   0.94650   0.45915   0.00000  Uiso   1.00
C476   C     0.71332   0.55348   0.48215   0.00000  Uiso   1.00
Cu477  Cu    0.75000   0.79822   0.50000   0.00000  Uiso   1.00
Cu478  Cu    0.75000   0.70179   0.50000   0.00000  Uiso   1.00
F479   F     0.52746   0.83383   0.53114   0.00000  Uiso   1.00
F480   F     0.97293   0.66695   0.46826   0.00000  Uiso   1.00
F481   F     0.97253   0.83379   0.46873   0.00000  Uiso   1.00
F482   F     0.52708   0.66698   0.53183   0.00000  Uiso   1.00
F483   F     0.82421   0.53070   0.53351   0.00000  Uiso   1.00
F484   F     0.72009   0.96928   0.41737   0.00000  Uiso   1.00
F485   F     0.67579   0.53071   0.46649   0.00000  Uiso   1.00
F486   F     0.77991   0.96928   0.58263   0.00000  Uiso   1.00
H487   H     0.80742   0.65256   0.56403   0.00000  Uiso   1.00
H488   H     0.69238   0.84763   0.43605   0.00000  Uiso   1.00
H489   H     0.69258   0.65256   0.43597   0.00000  Uiso   1.00
H490   H     0.80761   0.84762   0.56396   0.00000  Uiso   1.00
H491   H     0.63885   0.83071   0.55354   0.00000  Uiso   1.00
H492   H     0.86105   0.67009   0.44569   0.00000  Uiso   1.00
H493   H     0.86111   0.83064   0.44637   0.00000  Uiso   1.00
H494   H     0.63897   0.67016   0.55438   0.00000  Uiso   1.00
N495   N     0.75000   0.62935   0.50000   0.00000  Uiso   1.00
N496   N     0.75000   0.87066   0.50000   0.00000  Uiso   1.00
O497   O     0.68573   0.79072   0.50000   0.00000  Uiso   1.00
O498   O     0.70970   0.87396   0.42222   0.00000  Uiso   1.00
O499   O     0.68019   0.62597   0.45487   0.00000  Uiso   1.00
O500   O     0.79030   0.87395   0.57778   0.00000  Uiso   1.00
O501   O     0.61453   0.83676   0.52901   0.00000  Uiso   1.00
O502   O     0.88578   0.66372   0.46960   0.00000  Uiso   1.00
O503   O     0.88546   0.83672   0.47086   0.00000  Uiso   1.00
O504   O     0.61423   0.66375   0.53049   0.00000  Uiso   1.00
O505   O     0.81427   0.70929   0.50000   0.00000  Uiso   1.00
O506   O     0.81427   0.79072   0.50000   0.00000  Uiso   1.00
O507   O     0.68573   0.70929   0.50000   0.00000  Uiso   1.00
O508   O     0.75000   0.79071   0.42946   0.00000  Uiso   1.00
O509   O     0.75000   0.70929   0.57054   0.00000  Uiso   1.00
O510   O     0.75000   0.79071   0.57054   0.00000  Uiso   1.00
O511   O     0.75000   0.70929   0.42946   0.00000  Uiso   1.00
O512   O     0.81981   0.62596   0.54513   0.00000  Uiso   1.00
C513   C     0.16531   0.25002   0.83818   0.00000  Uiso   1.00
C514   C     0.26594   0.44650   0.87418   0.00000  Uiso   1.00
C515   C     0.24987   0.25000   0.74024   0.00000  Uiso   1.00
C516   C     0.25013   0.25000   0.92643   0.00000  Uiso   1.00
C517   C     0.25000   0.02713   0.83333   0.00000  Uiso   1.00
C518   C     0.25000   0.47285   0.83333   0.00000  Uiso   1.00
C519   C     0.24996   0.25001   0.68852   0.00000  Uiso   1.00
C520   C     0.25005   0.25001   0.97815   0.00000  Uiso   1.00
C521   C     0.04796   0.29323   0.85023   0.00000  Uiso   1.00
C522   C     0.45220   0.20735   0.81600   0.00000  Uiso   1.00
C523   C     0.45204   0.29321   0.81637   0.00000  Uiso   1.00
C524   C     0.33469   0.25001   0.82849   0.00000  Uiso   1.00
C525   C     0.04781   0.20737   0.85070   0.00000  Uiso   1.00
C526   C     0.09396   0.29358   0.85265   0.00000  Uiso   1.00
C527   C     0.40618   0.20683   0.81342   0.00000  Uiso   1.00
C528   C     0.40603   0.29356   0.81394   0.00000  Uiso   1.00
C529   C     0.09383   0.20685   0.85329   0.00000  Uiso   1.00
C530   C     0.11743   0.25012   0.84761   0.00000  Uiso   1.00
C531   C     0.38257   0.25011   0.81905   0.00000  Uiso   1.00
C532   C     0.02431   0.25031   0.84075   0.00000  Uiso   1.00
C533   C     0.47569   0.25030   0.82590   0.00000  Uiso   1.00
C534   C     0.28509   0.10383   0.85399   0.00000  Uiso   1.00
C535   C     0.23155   0.39615   0.79425   0.00000  Uiso   1.00
C536   C     0.21491   0.10383   0.81268   0.00000  Uiso   1.00
C537   C     0.26845   0.39615   0.87242   0.00000  Uiso   1.00
C538   C     0.28668   0.05348   0.85118   0.00000  Uiso   1.00
C539   C     0.23406   0.44650   0.79249   0.00000  Uiso   1.00
C540   C     0.21332   0.05348   0.81549   0.00000  Uiso   1.00
Cu541  Cu    0.25000   0.29822   0.83333   0.00000  Uiso   1.00
Cu542  Cu    0.25000   0.20179   0.83333   0.00000  Uiso   1.00
F543   F     0.02746   0.33383   0.86448   0.00000  Uiso   1.00
F544   F     0.47293   0.16695   0.80159   0.00000  Uiso   1.00
F545   F     0.47253   0.33379   0.80206   0.00000  Uiso   1.00
F546   F     0.02708   0.16698   0.86516   0.00000  Uiso   1.00
F547   F     0.32421   0.03070   0.86684   0.00000  Uiso   1.00
F548   F     0.22009   0.46928   0.75070   0.00000  Uiso   1.00
F549   F     0.17579   0.03071   0.79983   0.00000  Uiso   1.00
F550   F     0.27991   0.46928   0.91596   0.00000  Uiso   1.00
H551   H     0.30742   0.15256   0.89736   0.00000  Uiso   1.00
H552   H     0.19238   0.34763   0.76938   0.00000  Uiso   1.00
H553   H     0.19258   0.15256   0.76930   0.00000  Uiso   1.00
H554   H     0.30761   0.34762   0.89729   0.00000  Uiso   1.00
H555   H     0.13885   0.33071   0.88687   0.00000  Uiso   1.00
H556   H     0.36105   0.17009   0.77903   0.00000  Uiso   1.00
H557   H     0.36111   0.33064   0.77970   0.00000  Uiso   1.00
H558   H     0.13897   0.17016   0.88771   0.00000  Uiso   1.00
N559   N     0.25000   0.12935   0.83333   0.00000  Uiso   1.00
N560   N     0.25000   0.37066   0.83333   0.00000  Uiso   1.00
O561   O     0.18573   0.29072   0.83334   0.00000  Uiso   1.00
O562   O     0.20970   0.37396   0.75555   0.00000  Uiso   1.00
O563   O     0.18019   0.12597   0.78820   0.00000  Uiso   1.00
O564   O     0.29030   0.37395   0.91112   0.00000  Uiso   1.00
O565   O     0.11453   0.33676   0.86234   0.00000  Uiso   1.00
O566   O     0.38578   0.16372   0.80294   0.00000  Uiso   1.00
O567   O     0.38546   0.33672   0.80419   0.00000  Uiso   1.00
O568   O     0.11423   0.16375   0.86382   0.00000  Uiso   1.00
O569   O     0.31427   0.20929   0.83333   0.00000  Uiso   1.00
O570   O     0.31427   0.29072   0.83333   0.00000  Uiso   1.00
O571   O     0.18573   0.20929   0.83334   0.00000  Uiso   1.00
O572   O     0.25000   0.29071   0.76280   0.00000  Uiso   1.00
O573   O     0.25000   0.20929   0.90387   0.00000  Uiso   1.00
O574   O     0.25000   0.29071   0.90387   0.00000  Uiso   1.00
O575   O     0.25000   0.20929   0.76280   0.00000  Uiso   1.00
O576   O     0.31981   0.12596   0.87847   0.00000  Uiso   1.00
C577   C     0.66531   0.25002   0.83818   0.00000  Uiso   1.00
C578   C     0.76594   0.44650   0.87418   0.00000  Uiso   1.00
C579   C     0.74987   0.25000   0.74024   0.00000  Uiso   1.00
C580   C     0.75013   0.25000   0.92643   0.00000  Uiso   1.00
C581   C     0.75000   0.02713   0.83333   0.00000  Uiso   1.00
C582   C     0.75000   0.47285   0.83333   0.00000  Uiso   1.00
C583   C     0.74996   0.25001   0.68852   0.00000  Uiso   1.00
C584   C     0.75005   0.25001   0.97815   0.00000  Uiso   1.00
C585   C     0.54796   0.29323   0.85023   0.00000  Uiso   1.00
C586   C     0.95220   0.20735   0.81600   0.00000  Uiso   1.00
C587   C     0.95204   0.29321   0.81637   0.00000  Uiso   1.00
C588   C     0.83469   0.25001   0.82849   0.00000  Uiso   1.00
C589   C     0.54781   0.20737   0.85070   0.00000  Uiso   1.00
C590   C     0.59396   0.29358   0.85265   0.00000  Uiso   1.00
C591   C     0.90618   0.20683   0.81342   0.00000  Uiso   1.00
C592   C     0.90603   0.29356   0.81394   0.00000  Uiso   1.00
C593   C     0.59383   0.20685   0.85329   0.00000  Uiso   1.00
C594   C     0.61743   0.25012   0.84761   0.00000  Uiso   1.00
C595   C     0.88257   0.25011   0.81905   0.00000  Uiso   1.00
C596   C     0.52431   0.25031   0.84075   0.00000  Uiso   1.00
C597   C     0.97569   0.25030   0.82590   0.00000  Uiso   1.00
C598   C     0.78509   0.10383   0.85399   0.00000  Uiso   1.00
C599   C     0.73155   0.39615   0.79425   0.00000  Uiso   1.00
C600   C     0.71491   0.10383   0.81268   0.00000  Uiso   1.00
C601   C     0.76845   0.39615   0.87242   0.00000  Uiso   1.00
C602   C     0.78668   0.05348   0.85118   0.00000  Uiso   1.00
C603   C     0.73406   0.44650   0.79249   0.00000  Uiso   1.00
C604   C     0.71332   0.05348   0.81549   0.00000  Uiso   1.00
Cu605  Cu    0.75000   0.29822   0.83333   0.00000  Uiso   1.00
Cu606  Cu    0.75000   0.20179   0.83333   0.00000  Uiso   1.00
F607   F     0.52746   0.33383   0.86448   0.00000  Uiso   1.00
F608   F     0.97293   0.16695   0.80159   0.00000  Uiso   1.00
F609   F     0.97253   0.33379   0.80206   0.00000  Uiso   1.00
F610   F     0.52708   0.16698   0.86516   0.00000  Uiso   1.00
F611   F     0.82421   0.03070   0.86684   0.00000  Uiso   1.00
F612   F     0.72009   0.46928   0.75070   0.00000  Uiso   1.00
F613   F     0.67579   0.03071   0.79983   0.00000  Uiso   1.00
F614   F     0.77991   0.46928   0.91596   0.00000  Uiso   1.00
H615   H     0.80742   0.15256   0.89736   0.00000  Uiso   1.00
H616   H     0.69238   0.34763   0.76938   0.00000  Uiso   1.00
H617   H     0.69258   0.15256   0.76930   0.00000  Uiso   1.00
H618   H     0.80761   0.34762   0.89729   0.00000  Uiso   1.00
H619   H     0.63885   0.33071   0.88687   0.00000  Uiso   1.00
H620   H     0.86105   0.17009   0.77903   0.00000  Uiso   1.00
H621   H     0.86111   0.33064   0.77970   0.00000  Uiso   1.00
H622   H     0.63897   0.17016   0.88771   0.00000  Uiso   1.00
N623   N     0.75000   0.12935   0.83333   0.00000  Uiso   1.00
N624   N     0.75000   0.37066   0.83333   0.00000  Uiso   1.00
O625   O     0.68573   0.29072   0.83334   0.00000  Uiso   1.00
O626   O     0.70970   0.37396   0.75555   0.00000  Uiso   1.00
O627   O     0.68019   0.12597   0.78820   0.00000  Uiso   1.00
O628   O     0.79030   0.37395   0.91112   0.00000  Uiso   1.00
O629   O     0.61453   0.33676   0.86234   0.00000  Uiso   1.00
O630   O     0.88578   0.16372   0.80294   0.00000  Uiso   1.00
O631   O     0.88546   0.33672   0.80419   0.00000  Uiso   1.00
O632   O     0.61423   0.16375   0.86382   0.00000  Uiso   1.00
O633   O     0.81427   0.20929   0.83333   0.00000  Uiso   1.00
O634   O     0.81427   0.29072   0.83333   0.00000  Uiso   1.00
O635   O     0.68573   0.20929   0.83334   0.00000  Uiso   1.00
O636   O     0.75000   0.29071   0.76280   0.00000  Uiso   1.00
O637   O     0.75000   0.20929   0.90387   0.00000  Uiso   1.00
O638   O     0.75000   0.29071   0.90387   0.00000  Uiso   1.00
O639   O     0.75000   0.20929   0.76280   0.00000  Uiso   1.00
O640   O     0.81981   0.12596   0.87847   0.00000  Uiso   1.00
C641   C     0.16531   0.75002   0.83818   0.00000  Uiso   1.00
C642   C     0.26594   0.94650   0.87418   0.00000  Uiso   1.00
C643   C     0.24987   0.75000   0.74024   0.00000  Uiso   1.00
C644   C     0.25013   0.75000   0.92643   0.00000  Uiso   1.00
C645   C     0.25000   0.52713   0.83333   0.00000  Uiso   1.00
C646   C     0.25000   0.97285   0.83333   0.00000  Uiso   1.00
C647   C     0.24996   0.75001   0.68852   0.00000  Uiso   1.00
C648   C     0.25005   0.75001   0.97815   0.00000  Uiso   1.00
C649   C     0.04796   0.79323   0.85023   0.00000  Uiso   1.00
C650   C     0.45220   0.70735   0.81600   0.00000  Uiso   1.00
C651   C     0.45204   0.79321   0.81637   0.00000  Uiso   1.00
C652   C     0.33469   0.75001   0.82849   0.00000  Uiso   1.00
C653   C     0.04781   0.70737   0.85070   0.00000  Uiso   1.00
C654   C     0.09396   0.79358   0.85265   0.00000  Uiso   1.00
C655   C     0.40618   0.70683   0.81342   0.00000  Uiso   1.00
C656   C     0.40603   0.79356   0.81394   0.00000  Uiso   1.00
C657   C     0.09383   0.70685   0.85329   0.00000  Uiso   1.00
C658   C     0.11743   0.75012   0.84761   0.00000  Uiso   1.00
C659   C     0.38257   0.75011   0.81905   0.00000  Uiso   1.00
C660   C     0.02431   0.75031   0.84075   0.00000  Uiso   1.00
C661   C     0.47569   0.75030   0.82590   0.00000  Uiso   1.00
C662   C     0.28509   0.60383   0.85399   0.00000  Uiso   1.00
C663   C     0.23155   0.89615   0.79425   0.00000  Uiso   1.00
C664   C     0.21491   0.60383   0.81268   0.00000  Uiso   1.00
C665   C     0.26845   0.89615   0.87242   0.00000  Uiso   1.00
C666   C     0.28668   0.55348   0.85118   0.00000  Uiso   1.00
C667   C     0.23406   0.94650   0.79249   0.00000  Uiso   1.00
C668   C     0.21332   0.55348   0.81549   0.00000  Uiso   1.00
Cu669  Cu    0.25000   0.79822   0.83333   0.00000  Uiso   1.00
Cu670  Cu    0.25000   0.70179   0.83333   0.00000  Uiso   1.00
F671   F     0.02746   0.83383   0.86448   0.00000  Uiso   1.00
F672   F     0.47293   0.66695   0.80159   0.00000  Uiso   1.00
F673   F     0.47253   0.83379   0.80206   0.00000  Uiso   1.00
F674   F     0.02708   0.66698   0.86516   0.00000  Uiso   1.00
F675   F     0.32421   0.53070   0.86684   0.00000  Uiso   1.00
F676   F     0.22009   0.96928   0.75070   0.00000  Uiso   1.00
F677   F     0.17579   0.53071   0.79983   0.00000  Uiso   1.00
F678   F     0.27991   0.96928   0.91596   0.00000  Uiso   1.00
H679   H     0.30742   0.65256   0.89736   0.00000  Uiso   1.00
H680   H     0.19238   0.84763   0.76938   0.00000  Uiso   1.00
H681   H     0.19258   0.65256   0.76930   0.00000  Uiso   1.00
H682   H     0.30761   0.84762   0.89729   0.00000  Uiso   1.00
H683   H     0.13885   0.83071   0.88687   0.00000  Uiso   1.00
H684   H     0.36105   0.67009   0.77903   0.00000  Uiso   1.00
H685   H     0.36111   0.83064   0.77970   0.00000  Uiso   1.00
H686   H     0.13897   0.67016   0.88771   0.00000  Uiso   1.00
N687   N     0.25000   0.62935   0.83333   0.00000  Uiso   1.00
N688   N     0.25000   0.87066   0.83333   0.00000  Uiso   1.00
O689   O     0.18573   0.79072   0.83334   0.00000  Uiso   1.00
O690   O     0.20970   0.87396   0.75555   0.00000  Uiso   1.00
O691   O     0.18019   0.62597   0.78820   0.00000  Uiso   1.00
O692   O     0.29030   0.87395   0.91112   0.00000  Uiso   1.00
O693   O     0.11453   0.83676   0.86234   0.00000  Uiso   1.00
O694   O     0.38578   0.66372   0.80294   0.00000  Uiso   1.00
O695   O     0.38546   0.83672   0.80419   0.00000  Uiso   1.00
O696   O     0.11423   0.66375   0.86382   0.00000  Uiso   1.00
O697   O     0.31427   0.70929   0.83333   0.00000  Uiso   1.00
O698   O     0.31427   0.79072   0.83333   0.00000  Uiso   1.00
O699   O     0.18573   0.70929   0.83334   0.00000  Uiso   1.00
O700   O     0.25000   0.79071   0.76280   0.00000  Uiso   1.00
O701   O     0.25000   0.70929   0.90387   0.00000  Uiso   1.00
O702   O     0.25000   0.79071   0.90387   0.00000  Uiso   1.00
O703   O     0.25000   0.70929   0.76280   0.00000  Uiso   1.00
O704   O     0.31981   0.62596   0.87847   0.00000  Uiso   1.00
C705   C     0.66531   0.75002   0.83818   0.00000  Uiso   1.00
C706   C     0.76594   0.94650   0.87418   0.00000  Uiso   1.00
C707   C     0.74987   0.75000   0.74024   0.00000  Uiso   1.00
C708   C     0.75013   0.75000   0.92643   0.00000  Uiso   1.00
C709   C     0.75000   0.52713   0.83333   0.00000  Uiso   1.00
C710   C     0.75000   0.97285   0.83333   0.00000  Uiso   1.00
C711   C     0.74996   0.75001   0.68852   0.00000  Uiso   1.00
C712   C     0.75005   0.75001   0.97815   0.00000  Uiso   1.00
C713   C     0.54796   0.79323   0.85023   0.00000  Uiso   1.00
C714   C     0.95220   0.70735   0.81600   0.00000  Uiso   1.00
C715   C     0.95204   0.79321   0.81637   0.00000  Uiso   1.00
C716   C     0.83469   0.75001   0.82849   0.00000  Uiso   1.00
C717   C     0.54781   0.70737   0.85070   0.00000  Uiso   1.00
C718   C     0.59396   0.79358   0.85265   0.00000  Uiso   1.00
C719   C     0.90618   0.70683   0.81342   0.00000  Uiso   1.00
C720   C     0.90603   0.79356   0.81394   0.00000  Uiso   1.00
C721   C     0.59383   0.70685   0.85329   0.00000  Uiso   1.00
C722   C     0.61743   0.75012   0.84761   0.00000  Uiso   1.00
C723   C     0.88257   0.75011   0.81905   0.00000  Uiso   1.00
C724   C     0.52431   0.75031   0.84075   0.00000  Uiso   1.00
C725   C     0.97569   0.75030   0.82590   0.00000  Uiso   1.00
C726   C     0.78509   0.60383   0.85399   0.00000  Uiso   1.00
C727   C     0.73155   0.89615   0.79425   0.00000  Uiso   1.00
C728   C     0.71491   0.60383   0.81268   0.00000  Uiso   1.00
C729   C     0.76845   0.89615   0.87242   0.00000  Uiso   1.00
C730   C     0.78668   0.55348   0.85118   0.00000  Uiso   1.00
C731   C     0.73406   0.94650   0.79249   0.00000  Uiso   1.00
C732   C     0.71332   0.55348   0.81549   0.00000  Uiso   1.00
Cu733  Cu    0.75000   0.79822   0.83333   0.00000  Uiso   1.00
Cu734  Cu    0.75000   0.70179   0.83333   0.00000  Uiso   1.00
F735   F     0.52746   0.83383   0.86448   0.00000  Uiso   1.00
F736   F     0.97293   0.66695   0.80159   0.00000  Uiso   1.00
F737   F     0.97253   0.83379   0.80206   0.00000  Uiso   1.00
F738   F     0.52708   0.66698   0.86516   0.00000  Uiso   1.00
F739   F     0.82421   0.53070   0.86684   0.00000  Uiso   1.00
F740   F     0.72009   0.96928   0.75070   0.00000  Uiso   1.00
F741   F     0.67579   0.53071   0.79983   0.00000  Uiso   1.00
F742   F     0.77991   0.96928   0.91596   0.00000  Uiso   1.00
H743   H     0.80742   0.65256   0.89736   0.00000  Uiso   1.00
H744   H     0.69238   0.84763   0.76938   0.00000  Uiso   1.00
H745   H     0.69258   0.65256   0.76930   0.00000  Uiso   1.00
H746   H     0.80761   0.84762   0.89729   0.00000  Uiso   1.00
H747   H     0.63885   0.83071   0.88687   0.00000  Uiso   1.00
H748   H     0.86105   0.67009   0.77903   0.00000  Uiso   1.00
H749   H     0.86111   0.83064   0.77970   0.00000  Uiso   1.00
H750   H     0.63897   0.67016   0.88771   0.00000  Uiso   1.00
N751   N     0.75000   0.62935   0.83333   0.00000  Uiso   1.00
N752   N     0.75000   0.87066   0.83333   0.00000  Uiso   1.00
O753   O     0.68573   0.79072   0.83334   0.00000  Uiso   1.00
O754   O     0.70970   0.87396   0.75555   0.00000  Uiso   1.00
O755   O     0.68019   0.62597   0.78820   0.00000  Uiso   1.00
O756   O     0.79030   0.87395   0.91112   0.00000  Uiso   1.00
O757   O     0.61453   0.83676   0.86234   0.00000  Uiso   1.00
O758   O     0.88578   0.66372   0.80294   0.00000  Uiso   1.00
O759   O     0.88546   0.83672   0.80419   0.00000  Uiso   1.00
O760   O     0.61423   0.66375   0.86382   0.00000  Uiso   1.00
O761   O     0.81427   0.70929   0.83333   0.00000  Uiso   1.00
O762   O     0.81427   0.79072   0.83333   0.00000  Uiso   1.00
O763   O     0.68573   0.70929   0.83334   0.00000  Uiso   1.00
O764   O     0.75000   0.79071   0.76280   0.00000  Uiso   1.00
O765   O     0.75000   0.70929   0.90387   0.00000  Uiso   1.00
O766   O     0.75000   0.79071   0.90387   0.00000  Uiso   1.00
O767   O     0.75000   0.70929   0.76280   0.00000  Uiso   1.00
O768   O     0.81981   0.62596   0.87847   0.00000  Uiso   1.00
loop_
_geom_bond_atom_site_label_1
_geom_bond_atom_site_label_2
_geom_bond_distance
_geom_bond_site_symmetry_2
_ccdc_geom_bond_type
C1     C18     1.483   .     S
C1     O59     1.303   .     A
C1     O49     1.303   .     A
C2     F38     1.358   .     S
C2     C6      1.405   .     A
C2     C25     1.409   .     A
C3     O63     1.292   .     A
C3     O60     1.292   .     A
C3     C7      1.409   .     S
C4     C8      1.409   .     S
C4     O62     1.292   .     A
C4     O61     1.292   .     A
C5     C28     1.405   .     A
C5     C26     1.405   .     A
C5     C134    1.515   1_545 S
C6     C27     1.405   .     A
C6     C133    1.515   .     S
C7     C520    1.191   1_554 S
C8     C263    1.191   .     S
C9     C14     1.393   .     A
C9     C20     1.415   .     A
C9     F31     1.356   .     S
C10    F32     1.356   .     S
C10    C21     1.415   .     A
C10    C15     1.394   .     A
C11    C16     1.393   .     A
C11    F33     1.356   .     S
C11    C21     1.415   .     A
C12    O58     1.303   .     A
C12    O57     1.303   .     A
C12    C19     1.483   .     S
C13    C17     1.394   .     A
C13    F34     1.356   .     S
C13    C20     1.415   .     A
C14    O53     1.378   .     S
C14    C18     1.415   .     A
C15    C19     1.415   .     A
C15    O54     1.378   .     S
C16    O55     1.378   .     S
C16    C19     1.415   .     A
C17    C18     1.415   .     A
C17    O56     1.378   .     S
C20    C85     1.513   1_455 S
C21    C84     1.513   .     S
C22    N47     1.382   .     A
C22    O64     1.372   .     S
C22    C26     1.409   .     A
C23    C27     1.409   .     A
C23    O50     1.372   .     S
C23    N48     1.382   .     A
C24    O51     1.372   .     S
C24    N47     1.382   .     A
C24    C28     1.409   .     A
C25    N48     1.382   .     A
C25    O52     1.372   .     S
C26    F35     1.358   .     S
C27    F36     1.358   .     S
C28    F37     1.358   .     S
Cu29   Cu30    2.692   .     S
Cu29   O60     1.933   .     S
Cu29   O49     1.959   .     S
Cu29   O58     1.958   .     S
Cu29   N48     2.023   .     S
Cu29   O62     1.933   .     S
Cu30   O57     1.959   .     S
Cu30   O63     1.933   .     S
Cu30   N47     2.023   .     S
Cu30   O61     1.933   .     S
Cu30   O59     1.958   .     S
H39    O64     0.985   .     S
H40    O50     0.986   .     S
H41    O51     0.985   .     S
H42    O52     0.986   .     S
H43    O53     0.991   .     S
H44    O54     0.991   .     S
H45    O55     0.991   .     S
H46    O56     0.991   .     S
C65    C82     1.483   .     S
C65    O123    1.303   .     A
C65    O113    1.303   .     A
C66    F102    1.358   .     S
C66    C70     1.405   .     A
C66    C89     1.409   .     A
C67    O127    1.292   .     A
C67    O124    1.292   .     A
C67    C71     1.409   .     S
C68    C72     1.409   .     S
C68    O126    1.292   .     A
C68    O125    1.292   .     A
C69    C92     1.405   .     A
C69    C90     1.405   .     A
C69    C198    1.515   1_545 S
C70    C91     1.405   .     A
C70    C197    1.515   .     S
C71    C584    1.191   1_554 S
C72    C327    1.191   .     S
C73    C78     1.393   .     A
C73    C84     1.415   .     A
C73    F95     1.356   .     S
C74    F96     1.356   .     S
C74    C85     1.415   .     A
C74    C79     1.394   .     A
C75    C80     1.393   .     A
C75    F97     1.356   .     S
C75    C85     1.415   .     A
C76    O122    1.303   .     A
C76    O121    1.303   .     A
C76    C83     1.483   .     S
C77    C81     1.394   .     A
C77    F98     1.356   .     S
C77    C84     1.415   .     A
C78    O117    1.378   .     S
C78    C82     1.415   .     A
C79    C83     1.415   .     A
C79    O118    1.378   .     S
C80    O119    1.378   .     S
C80    C83     1.415   .     A
C81    C82     1.415   .     A
C81    O120    1.378   .     S
C85    C20     1.513   1_655 S
C86    N111    1.382   .     A
C86    O128    1.372   .     S
C86    C90     1.409   .     A
C87    C91     1.409   .     A
C87    O114    1.372   .     S
C87    N112    1.382   .     A
C88    O115    1.372   .     S
C88    N111    1.382   .     A
C88    C92     1.409   .     A
C89    N112    1.382   .     A
C89    O116    1.372   .     S
C90    F99     1.358   .     S
C91    F100    1.358   .     S
C92    F101    1.358   .     S
Cu93   Cu94    2.692   .     S
Cu93   O124    1.933   .     S
Cu93   O113    1.959   .     S
Cu93   O122    1.958   .     S
Cu93   N112    2.023   .     S
Cu93   O126    1.933   .     S
Cu94   O121    1.959   .     S
Cu94   O127    1.933   .     S
Cu94   N111    2.023   .     S
Cu94   O125    1.933   .     S
Cu94   O123    1.958   .     S
H103   O128    0.985   .     S
H104   O114    0.986   .     S
H105   O115    0.985   .     S
H106   O116    0.986   .     S
H107   O117    0.991   .     S
H108   O118    0.991   .     S
H109   O119    0.991   .     S
H110   O120    0.991   .     S
C129   C146    1.483   .     S
C129   O187    1.303   .     A
C129   O177    1.303   .     A
C130   F166    1.358   .     S
C130   C134    1.405   .     A
C130   C153    1.409   .     A
C131   O191    1.292   .     A
C131   O188    1.292   .     A
C131   C135    1.409   .     S
C132   C136    1.409   .     S
C132   O190    1.292   .     A
C132   O189    1.292   .     A
C133   C156    1.405   .     A
C133   C154    1.405   .     A
C134   C155    1.405   .     A
C134   C5      1.515   1_565 S
C135   C648    1.191   1_554 S
C136   C391    1.191   .     S
C137   C142    1.393   .     A
C137   C148    1.415   .     A
C137   F159    1.356   .     S
C138   F160    1.356   .     S
C138   C149    1.415   .     A
C138   C143    1.394   .     A
C139   C144    1.393   .     A
C139   F161    1.356   .     S
C139   C149    1.415   .     A
C140   O186    1.303   .     A
C140   O185    1.303   .     A
C140   C147    1.483   .     S
C141   C145    1.394   .     A
C141   F162    1.356   .     S
C141   C148    1.415   .     A
C142   O181    1.378   .     S
C142   C146    1.415   .     A
C143   C147    1.415   .     A
C143   O182    1.378   .     S
C144   O183    1.378   .     S
C144   C147    1.415   .     A
C145   C146    1.415   .     A
C145   O184    1.378   .     S
C148   C213    1.513   1_455 S
C149   C212    1.513   .     S
C150   N175    1.382   .     A
C150   O192    1.372   .     S
C150   C154    1.409   .     A
C151   C155    1.409   .     A
C151   O178    1.372   .     S
C151   N176    1.382   .     A
C152   O179    1.372   .     S
C152   N175    1.382   .     A
C152   C156    1.409   .     A
C153   N176    1.382   .     A
C153   O180    1.372   .     S
C154   F163    1.358   .     S
C155   F164    1.358   .     S
C156   F165    1.358   .     S
Cu157  Cu158   2.692   .     S
Cu157  O188    1.933   .     S
Cu157  O177    1.959   .     S
Cu157  O186    1.958   .     S
Cu157  N176    2.023   .     S
Cu157  O190    1.933   .     S
Cu158  O185    1.959   .     S
Cu158  O191    1.933   .     S
Cu158  N175    2.023   .     S
Cu158  O189    1.933   .     S
Cu158  O187    1.958   .     S
H167   O192    0.985   .     S
H168   O178    0.986   .     S
H169   O179    0.985   .     S
H170   O180    0.986   .     S
H171   O181    0.991   .     S
H172   O182    0.991   .     S
H173   O183    0.991   .     S
H174   O184    0.991   .     S
C193   C210    1.483   .     S
C193   O251    1.303   .     A
C193   O241    1.303   .     A
C194   F230    1.358   .     S
C194   C198    1.405   .     A
C194   C217    1.409   .     A
C195   O255    1.292   .     A
C195   O252    1.292   .     A
C195   C199    1.409   .     S
C196   C200    1.409   .     S
C196   O254    1.292   .     A
C196   O253    1.292   .     A
C197   C220    1.405   .     A
C197   C218    1.405   .     A
C198   C219    1.405   .     A
C198   C69     1.515   1_565 S
C199   C712    1.191   1_554 S
C200   C455    1.191   .     S
C201   C206    1.393   .     A
C201   C212    1.415   .     A
C201   F223    1.356   .     S
C202   F224    1.356   .     S
C202   C213    1.415   .     A
C202   C207    1.394   .     A
C203   C208    1.393   .     A
C203   F225    1.356   .     S
C203   C213    1.415   .     A
C204   O250    1.303   .     A
C204   O249    1.303   .     A
C204   C211    1.483   .     S
C205   C209    1.394   .     A
C205   F226    1.356   .     S
C205   C212    1.415   .     A
C206   O245    1.378   .     S
C206   C210    1.415   .     A
C207   C211    1.415   .     A
C207   O246    1.378   .     S
C208   O247    1.378   .     S
C208   C211    1.415   .     A
C209   C210    1.415   .     A
C209   O248    1.378   .     S
C213   C148    1.513   1_655 S
C214   N239    1.382   .     A
C214   O256    1.372   .     S
C214   C218    1.409   .     A
C215   C219    1.409   .     A
C215   O242    1.372   .     S
C215   N240    1.382   .     A
C216   O243    1.372   .     S
C216   N239    1.382   .     A
C216   C220    1.409   .     A
C217   N240    1.382   .     A
C217   O244    1.372   .     S
C218   F227    1.358   .     S
C219   F228    1.358   .     S
C220   F229    1.358   .     S
Cu221  Cu222   2.692   .     S
Cu221  O252    1.933   .     S
Cu221  O241    1.959   .     S
Cu221  O250    1.958   .     S
Cu221  N240    2.023   .     S
Cu221  O254    1.933   .     S
Cu222  O249    1.959   .     S
Cu222  O255    1.933   .     S
Cu222  N239    2.023   .     S
Cu222  O253    1.933   .     S
Cu222  O251    1.958   .     S
H231   O256    0.985   .     S
H232   O242    0.986   .     S
H233   O243    0.985   .     S
H234   O244    0.986   .     S
H235   O245    0.991   .     S
H236   O246    0.991   .     S
H237   O247    0.991   .     S
H238   O248    0.991   .     S
C257   C274    1.483   .     S
C257   O315    1.303   .     A
C257   O305    1.303   .     A
C258   F294    1.358   .     S
C258   C262    1.405   .     A
C258   C281    1.409   .     A
C259   O319    1.292   .     A
C259   O316    1.292   .     A
C259   C263    1.409   .     S
C260   C264    1.409   .     S
C260   O318    1.292   .     A
C260   O317    1.292   .     A
C261   C284    1.405   .     A
C261   C282    1.405   .     A
C261   C390    1.515   1_545 S
C262   C283    1.405   .     A
C262   C389    1.515   .     S
C264   C519    1.191   .     S
C265   C270    1.393   .     A
C265   C276    1.415   .     A
C265   F287    1.356   .     S
C266   F288    1.356   .     S
C266   C277    1.415   .     A
C266   C271    1.394   .     A
C267   C272    1.393   .     A
C267   F289    1.356   .     S
C267   C277    1.415   .     A
C268   O314    1.303   .     A
C268   O313    1.303   .     A
C268   C275    1.483   .     S
C269   C273    1.394   .     A
C269   F290    1.356   .     S
C269   C276    1.415   .     A
C270   O309    1.378   .     S
C270   C274    1.415   .     A
C271   C275    1.415   .     A
C271   O310    1.378   .     S
C272   O311    1.378   .     S
C272   C275    1.415   .     A
C273   C274    1.415   .     A
C273   O312    1.378   .     S
C276   C341    1.513   1_455 S
C277   C340    1.513   .     S
C278   N303    1.382   .     A
C278   O320    1.372   .     S
C278   C282    1.409   .     A
C279   C283    1.409   .     A
C279   O306    1.372   .     S
C279   N304    1.382   .     A
C280   O307    1.372   .     S
C280   N303    1.382   .     A
C280   C284    1.409   .     A
C281   N304    1.382   .     A
C281   O308    1.372   .     S
C282   F291    1.358   .     S
C283   F292    1.358   .     S
C284   F293    1.358   .     S
Cu285  Cu286   2.692   .     S
Cu285  O316    1.933   .     S
Cu285  O305    1.959   .     S
Cu285  O314    1.958   .     S
Cu285  N304    2.023   .     S
Cu285  O318    1.933   .     S
Cu286  O313    1.959   .     S
Cu286  O319    1.933   .     S
Cu286  N303    2.023   .     S
Cu286  O317    1.933   .     S
Cu286  O315    1.958   .     S
H295   O320    0.985   .     S
H296   O306    0.986   .     S
H297   O307    0.985   .     S
H298   O308    0.986   .     S
H299   O309    0.991   .     S
H300   O310    0.991   .     S
H301   O311    0.991   .     S
H302   O312    0.991   .     S
C321   C338    1.483   .     S
C321   O379    1.303   .     A
C321   O369    1.303   .     A
C322   F358    1.358   .     S
C322   C326    1.405   .     A
C322   C345    1.409   .     A
C323   O383    1.292   .     A
C323   O380    1.292   .     A
C323   C327    1.409   .     S
C324   C328    1.409   .     S
C324   O382    1.292   .     A
C324   O381    1.292   .     A
C325   C348    1.405   .     A
C325   C346    1.405   .     A
C325   C454    1.515   1_545 S
C326   C347    1.405   .     A
C326   C453    1.515   .     S
C328   C583    1.191   .     S
C329   C334    1.393   .     A
C329   C340    1.415   .     A
C329   F351    1.356   .     S
C330   F352    1.356   .     S
C330   C341    1.415   .     A
C330   C335    1.394   .     A
C331   C336    1.393   .     A
C331   F353    1.356   .     S
C331   C341    1.415   .     A
C332   O378    1.303   .     A
C332   O377    1.303   .     A
C332   C339    1.483   .     S
C333   C337    1.394   .     A
C333   F354    1.356   .     S
C333   C340    1.415   .     A
C334   O373    1.378   .     S
C334   C338    1.415   .     A
C335   C339    1.415   .     A
C335   O374    1.378   .     S
C336   O375    1.378   .     S
C336   C339    1.415   .     A
C337   C338    1.415   .     A
C337   O376    1.378   .     S
C341   C276    1.513   1_655 S
C342   N367    1.382   .     A
C342   O384    1.372   .     S
C342   C346    1.409   .     A
C343   C347    1.409   .     A
C343   O370    1.372   .     S
C343   N368    1.382   .     A
C344   O371    1.372   .     S
C344   N367    1.382   .     A
C344   C348    1.409   .     A
C345   N368    1.382   .     A
C345   O372    1.372   .     S
C346   F355    1.358   .     S
C347   F356    1.358   .     S
C348   F357    1.358   .     S
Cu349  Cu350   2.692   .     S
Cu349  O380    1.933   .     S
Cu349  O369    1.959   .     S
Cu349  O378    1.958   .     S
Cu349  N368    2.023   .     S
Cu349  O382    1.933   .     S
Cu350  O377    1.959   .     S
Cu350  O383    1.933   .     S
Cu350  N367    2.023   .     S
Cu350  O381    1.933   .     S
Cu350  O379    1.958   .     S
H359   O384    0.985   .     S
H360   O370    0.986   .     S
H361   O371    0.985   .     S
H362   O372    0.986   .     S
H363   O373    0.991   .     S
H364   O374    0.991   .     S
H365   O375    0.991   .     S
H366   O376    0.991   .     S
C385   C402    1.483   .     S
C385   O443    1.303   .     A
C385   O433    1.303   .     A
C386   F422    1.358   .     S
C386   C390    1.405   .     A
C386   C409    1.409   .     A
C387   O447    1.292   .     A
C387   O444    1.292   .     A
C387   C391    1.409   .     S
C388   C392    1.409   .     S
C388   O446    1.292   .     A
C388   O445    1.292   .     A
C389   C412    1.405   .     A
C389   C410    1.405   .     A
C390   C411    1.405   .     A
C390   C261    1.515   1_565 S
C392   C647    1.191   .     S
C393   C398    1.393   .     A
C393   C404    1.415   .     A
C393   F415    1.356   .     S
C394   F416    1.356   .     S
C394   C405    1.415   .     A
C394   C399    1.394   .     A
C395   C400    1.393   .     A
C395   F417    1.356   .     S
C395   C405    1.415   .     A
C396   O442    1.303   .     A
C396   O441    1.303   .     A
C396   C403    1.483   .     S
C397   C401    1.394   .     A
C397   F418    1.356   .     S
C397   C404    1.415   .     A
C398   O437    1.378   .     S
C398   C402    1.415   .     A
C399   C403    1.415   .     A
C399   O438    1.378   .     S
C400   O439    1.378   .     S
C400   C403    1.415   .     A
C401   C402    1.415   .     A
C401   O440    1.378   .     S
C404   C469    1.513   1_455 S
C405   C468    1.513   .     S
C406   N431    1.382   .     A
C406   O448    1.372   .     S
C406   C410    1.409   .     A
C407   C411    1.409   .     A
C407   O434    1.372   .     S
C407   N432    1.382   .     A
C408   O435    1.372   .     S
C408   N431    1.382   .     A
C408   C412    1.409   .     A
C409   N432    1.382   .     A
C409   O436    1.372   .     S
C410   F419    1.358   .     S
C411   F420    1.358   .     S
C412   F421    1.358   .     S
Cu413  Cu414   2.692   .     S
Cu413  O444    1.933   .     S
Cu413  O433    1.959   .     S
Cu413  O442    1.958   .     S
Cu413  N432    2.023   .     S
Cu413  O446    1.933   .     S
Cu414  O441    1.959   .     S
Cu414  O447    1.933   .     S
Cu414  N431    2.023   .     S
Cu414  O445    1.933   .     S
Cu414  O443    1.958   .     S
H423   O448    0.985   .     S
H424   O434    0.986   .     S
H425   O435    0.985   .     S
H426   O436    0.986   .     S
H427   O437    0.991   .     S
H428   O438    0.991   .     S
H429   O439    0.991   .     S
H430   O440    0.991   .     S
C449   C466    1.483   .     S
C449   O507    1.303   .     A
C449   O497    1.303   .     A
C450   F486    1.358   .     S
C450   C454    1.405   .     A
C450   C473    1.409   .     A
C451   O511    1.292   .     A
C451   O508    1.292   .     A
C451   C455    1.409   .     S
C452   C456    1.409   .     S
C452   O510    1.292   .     A
C452   O509    1.292   .     A
C453   C476    1.405   .     A
C453   C474    1.405   .     A
C454   C475    1.405   .     A
C454   C325    1.515   1_565 S
C456   C711    1.191   .     S
C457   C462    1.393   .     A
C457   C468    1.415   .     A
C457   F479    1.356   .     S
C458   F480    1.356   .     S
C458   C469    1.415   .     A
C458   C463    1.394   .     A
C459   C464    1.393   .     A
C459   F481    1.356   .     S
C459   C469    1.415   .     A
C460   O506    1.303   .     A
C460   O505    1.303   .     A
C460   C467    1.483   .     S
C461   C465    1.394   .     A
C461   F482    1.356   .     S
C461   C468    1.415   .     A
C462   O501    1.378   .     S
C462   C466    1.415   .     A
C463   C467    1.415   .     A
C463   O502    1.378   .     S
C464   O503    1.378   .     S
C464   C467    1.415   .     A
C465   C466    1.415   .     A
C465   O504    1.378   .     S
C469   C404    1.513   1_655 S
C470   N495    1.382   .     A
C470   O512    1.372   .     S
C470   C474    1.409   .     A
C471   C475    1.409   .     A
C471   O498    1.372   .     S
C471   N496    1.382   .     A
C472   O499    1.372   .     S
C472   N495    1.382   .     A
C472   C476    1.409   .     A
C473   N496    1.382   .     A
C473   O500    1.372   .     S
C474   F483    1.358   .     S
C475   F484    1.358   .     S
C476   F485    1.358   .     S
Cu477  Cu478   2.692   .     S
Cu477  O508    1.933   .     S
Cu477  O497    1.959   .     S
Cu477  O506    1.958   .     S
Cu477  N496    2.023   .     S
Cu477  O510    1.933   .     S
Cu478  O505    1.959   .     S
Cu478  O511    1.933   .     S
Cu478  N495    2.023   .     S
Cu478  O509    1.933   .     S
Cu478  O507    1.958   .     S
H487   O512    0.985   .     S
H488   O498    0.986   .     S
H489   O499    0.985   .     S
H490   O500    0.986   .     S
H491   O501    0.991   .     S
H492   O502    0.991   .     S
H493   O503    0.991   .     S
H494   O504    0.991   .     S
C513   C530    1.483   .     S
C513   O571    1.303   .     A
C513   O561    1.303   .     A
C514   F550    1.358   .     S
C514   C518    1.405   .     A
C514   C537    1.409   .     A
C515   O575    1.292   .     A
C515   O572    1.292   .     A
C515   C519    1.409   .     S
C516   C520    1.409   .     S
C516   O574    1.292   .     A
C516   O573    1.292   .     A
C517   C540    1.405   .     A
C517   C538    1.405   .     A
C517   C646    1.515   1_545 S
C518   C539    1.405   .     A
C518   C645    1.515   .     S
C520   C7      1.191   1_556 S
C521   C526    1.393   .     A
C521   C532    1.415   .     A
C521   F543    1.356   .     S
C522   F544    1.356   .     S
C522   C533    1.415   .     A
C522   C527    1.394   .     A
C523   C528    1.393   .     A
C523   F545    1.356   .     S
C523   C533    1.415   .     A
C524   O570    1.303   .     A
C524   O569    1.303   .     A
C524   C531    1.483   .     S
C525   C529    1.394   .     A
C525   F546    1.356   .     S
C525   C532    1.415   .     A
C526   O565    1.378   .     S
C526   C530    1.415   .     A
C527   C531    1.415   .     A
C527   O566    1.378   .     S
C528   O567    1.378   .     S
C528   C531    1.415   .     A
C529   C530    1.415   .     A
C529   O568    1.378   .     S
C532   C597    1.513   1_455 S
C533   C596    1.513   .     S
C534   N559    1.382   .     A
C534   O576    1.372   .     S
C534   C538    1.409   .     A
C535   C539    1.409   .     A
C535   O562    1.372   .     S
C535   N560    1.382   .     A
C536   O563    1.372   .     S
C536   N559    1.382   .     A
C536   C540    1.409   .     A
C537   N560    1.382   .     A
C537   O564    1.372   .     S
C538   F547    1.358   .     S
C539   F548    1.358   .     S
C540   F549    1.358   .     S
Cu541  Cu542   2.692   .     S
Cu541  O572    1.933   .     S
Cu541  O561    1.959   .     S
Cu541  O570    1.958   .     S
Cu541  N560    2.023   .     S
Cu541  O574    1.933   .     S
Cu542  O569    1.959   .     S
Cu542  O575    1.933   .     S
Cu542  N559    2.023   .     S
Cu542  O573    1.933   .     S
Cu542  O571    1.958   .     S
H551   O576    0.985   .     S
H552   O562    0.986   .     S
H553   O563    0.985   .     S
H554   O564    0.986   .     S
H555   O565    0.991   .     S
H556   O566    0.991   .     S
H557   O567    0.991   .     S
H558   O568    0.991   .     S
C577   C594    1.483   .     S
C577   O635    1.303   .     A
C577   O625    1.303   .     A
C578   F614    1.358   .     S
C578   C582    1.405   .     A
C578   C601    1.409   .     A
C579   O639    1.292   .     A
C579   O636    1.292   .     A
C579   C583    1.409   .     S
C580   C584    1.409   .     S
C580   O638    1.292   .     A
C580   O637    1.292   .     A
C581   C604    1.405   .     A
C581   C602    1.405   .     A
C581   C710    1.515   1_545 S
C582   C603    1.405   .     A
C582   C709    1.515   .     S
C584   C71     1.191   1_556 S
C585   C590    1.393   .     A
C585   C596    1.415   .     A
C585   F607    1.356   .     S
C586   F608    1.356   .     S
C586   C597    1.415   .     A
C586   C591    1.394   .     A
C587   C592    1.393   .     A
C587   F609    1.356   .     S
C587   C597    1.415   .     A
C588   O634    1.303   .     A
C588   O633    1.303   .     A
C588   C595    1.483   .     S
C589   C593    1.394   .     A
C589   F610    1.356   .     S
C589   C596    1.415   .     A
C590   O629    1.378   .     S
C590   C594    1.415   .     A
C591   C595    1.415   .     A
C591   O630    1.378   .     S
C592   O631    1.378   .     S
C592   C595    1.415   .     A
C593   C594    1.415   .     A
C593   O632    1.378   .     S
C597   C532    1.513   1_655 S
C598   N623    1.382   .     A
C598   O640    1.372   .     S
C598   C602    1.409   .     A
C599   C603    1.409   .     A
C599   O626    1.372   .     S
C599   N624    1.382   .     A
C600   O627    1.372   .     S
C600   N623    1.382   .     A
C600   C604    1.409   .     A
C601   N624    1.382   .     A
C601   O628    1.372   .     S
C602   F611    1.358   .     S
C603   F612    1.358   .     S
C604   F613    1.358   .     S
Cu605  Cu606   2.692   .     S
Cu605  O636    1.933   .     S
Cu605  O625    1.959   .     S
Cu605  O634    1.958   .     S
Cu605  N624    2.023   .     S
Cu605  O638    1.933   .     S
Cu606  O633    1.959   .     S
Cu606  O639    1.933   .     S
Cu606  N623    2.023   .     S
Cu606  O637    1.933   .     S
Cu606  O635    1.958   .     S
H615   O640    0.985   .     S
H616   O626    0.986   .     S
H617   O627    0.985   .     S
H618   O628    0.986   .     S
H619   O629    0.991   .     S
H620   O630    0.991   .     S
H621   O631    0.991   .     S
H622   O632    0.991   .     S
C641   C658    1.483   .     S
C641   O699    1.303   .     A
C641   O689    1.303   .     A
C642   F678    1.358   .     S
C642   C646    1.405   .     A
C642   C665    1.409   .     A
C643   O703    1.292   .     A
C643   O700    1.292   .     A
C643   C647    1.409   .     S
C644   C648    1.409   .     S
C644   O702    1.292   .     A
C644   O701    1.292   .     A
C645   C668    1.405   .     A
C645   C666    1.405   .     A
C646   C667    1.405   .     A
C646   C517    1.515   1_565 S
C648   C135    1.191   1_556 S
C649   C654    1.393   .     A
C649   C660    1.415   .     A
C649   F671    1.356   .     S
C650   F672    1.356   .     S
C650   C661    1.415   .     A
C650   C655    1.394   .     A
C651   C656    1.393   .     A
C651   F673    1.356   .     S
C651   C661    1.415   .     A
C652   O698    1.303   .     A
C652   O697    1.303   .     A
C652   C659    1.483   .     S
C653   C657    1.394   .     A
C653   F674    1.356   .     S
C653   C660    1.415   .     A
C654   O693    1.378   .     S
C654   C658    1.415   .     A
C655   C659    1.415   .     A
C655   O694    1.378   .     S
C656   O695    1.378   .     S
C656   C659    1.415   .     A
C657   C658    1.415   .     A
C657   O696    1.378   .     S
C660   C725    1.513   1_455 S
C661   C724    1.513   .     S
C662   N687    1.382   .     A
C662   O704    1.372   .     S
C662   C666    1.409   .     A
C663   C667    1.409   .     A
C663   O690    1.372   .     S
C663   N688    1.382   .     A
C664   O691    1.372   .     S
C664   N687    1.382   .     A
C664   C668    1.409   .     A
C665   N688    1.382   .     A
C665   O692    1.372   .     S
C666   F675    1.358   .     S
C667   F676    1.358   .     S
C668   F677    1.358   .     S
Cu669  Cu670   2.692   .     S
Cu669  O700    1.933   .     S
Cu669  O689    1.959   .     S
Cu669  O698    1.958   .     S
Cu669  N688    2.023   .     S
Cu669  O702    1.933   .     S
Cu670  O697    1.959   .     S
Cu670  O703    1.933   .     S
Cu670  N687    2.023   .     S
Cu670  O701    1.933   .     S
Cu670  O699    1.958   .     S
H679   O704    0.985   .     S
H680   O690    0.986   .     S
H681   O691    0.985   .     S
H682   O692    0.986   .     S
H683   O693    0.991   .     S
H684   O694    0.991   .     S
H685   O695    0.991   .     S
H686   O696    0.991   .     S
C705   C722    1.483   .     S
C705   O763    1.303   .     A
C705   O753    1.303   .     A
C706   F742    1.358   .     S
C706   C710    1.405   .     A
C706   C729    1.409   .     A
C707   O767    1.292   .     A
C707   O764    1.292   .     A
C707   C711    1.409   .     S
C708   C712    1.409   .     S
C708   O766    1.292   .     A
C708   O765    1.292   .     A
C709   C732    1.405   .     A
C709   C730    1.405   .     A
C710   C731    1.405   .     A
C710   C581    1.515   1_565 S
C712   C199    1.191   1_556 S
C713   C718    1.393   .     A
C713   C724    1.415   .     A
C713   F735    1.356   .     S
C714   F736    1.356   .     S
C714   C725    1.415   .     A
C714   C719    1.394   .     A
C715   C720    1.393   .     A
C715   F737    1.356   .     S
C715   C725    1.415   .     A
C716   O762    1.303   .     A
C716   O761    1.303   .     A
C716   C723    1.483   .     S
C717   C721    1.394   .     A
C717   F738    1.356   .     S
C717   C724    1.415   .     A
C718   O757    1.378   .     S
C718   C722    1.415   .     A
C719   C723    1.415   .     A
C719   O758    1.378   .     S
C720   O759    1.378   .     S
C720   C723    1.415   .     A
C721   C722    1.415   .     A
C721   O760    1.378   .     S
C725   C660    1.513   1_655 S
C726   N751    1.382   .     A
C726   O768    1.372   .     S
C726   C730    1.409   .     A
C727   C731    1.409   .     A
C727   O754    1.372   .     S
C727   N752    1.382   .     A
C728   O755    1.372   .     S
C728   N751    1.382   .     A
C728   C732    1.409   .     A
C729   N752    1.382   .     A
C729   O756    1.372   .     S
C730   F739    1.358   .     S
C731   F740    1.358   .     S
C732   F741    1.358   .     S
Cu733  Cu734   2.692   .     S
Cu733  O764    1.933   .     S
Cu733  O753    1.959   .     S
Cu733  O762    1.958   .     S
Cu733  N752    2.023   .     S
Cu733  O766    1.933   .     S
Cu734  O761    1.959   .     S
Cu734  O767    1.933   .     S
Cu734  N751    2.023   .     S
Cu734  O765    1.933   .     S
Cu734  O763    1.958   .     S
H743   O768    0.985   .     S
H744   O754    0.986   .     S
H745   O755    0.985   .     S
H746   O756    0.986   .     S
H747   O757    0.991   .     S
H748   O758    0.991   .     S
H749   O759    0.991   .     S
H750   O760    0.991   .     S
