data_str_m2_o1_o1_pcu_sym.51
_audit_creation_date              2020-01-03
_audit_creation_method            'Materials Studio'
_symmetry_space_group_name_H-M    'P1'
_symmetry_Int_Tables_number       1
_symmetry_cell_setting            triclinic
loop_
_symmetry_equiv_pos_as_xyz
  x,y,z
_cell_length_a                    31.4284
_cell_length_b                    30.1593
_cell_length_c                    28.7811
_cell_angle_alpha                 90.2367
_cell_angle_beta                  90.0540
_cell_angle_gamma                 90.0512
loop_
_atom_site_label
_atom_site_type_symbol
_atom_site_fract_x
_atom_site_fract_y
_atom_site_fract_z
_atom_site_U_iso_or_equiv
_atom_site_adp_type
_atom_site_occupancy
Br1    Br    0.00532   0.15453   0.05570   0.00000  Uiso   1.00
Br2    Br    0.00922   0.34511   0.27824   0.00000  Uiso   1.00
Br3    Br    0.49611   0.34554   0.05662   0.00000  Uiso   1.00
Br4    Br    0.49818   0.15443   0.27679   0.00000  Uiso   1.00
Br5    Br    0.25230   0.40471   0.05607   0.00000  Uiso   1.00
Br6    Br    0.25356   0.09556   0.27762   0.00000  Uiso   1.00
Br7    Br    0.24441   0.09549   0.05630   0.00000  Uiso   1.00
Br8    Br    0.24726   0.40440   0.27690   0.00000  Uiso   1.00
C9     C     0.06276   0.19441   0.16716   0.00000  Uiso   1.00
C10    C     0.00153   0.28904   0.30890   0.00000  Uiso   1.00
C11    C     0.49964   0.28908   0.02490   0.00000  Uiso   1.00
C12    C     0.49951   0.21090   0.30848   0.00000  Uiso   1.00
C13    C     0.25044   0.46094   0.02457   0.00000  Uiso   1.00
C14    C     0.25065   0.03909   0.30881   0.00000  Uiso   1.00
C15    C     0.24913   0.03909   0.02483   0.00000  Uiso   1.00
C16    C     0.24938   0.46090   0.30851   0.00000  Uiso   1.00
C17    C     0.38647   0.14520   0.12269   0.00000  Uiso   1.00
C18    C     0.11680   0.35312   0.20744   0.00000  Uiso   1.00
C19    C     0.11417   0.35359   0.12270   0.00000  Uiso   1.00
C20    C     0.43821   0.30681   0.16720   0.00000  Uiso   1.00
C21    C     0.38194   0.14927   0.20717   0.00000  Uiso   1.00
C22    C     0.11404   0.14444   0.21113   0.00000  Uiso   1.00
C23    C     0.38010   0.34773   0.12793   0.00000  Uiso   1.00
C24    C     0.39329   0.36299   0.21021   0.00000  Uiso   1.00
C25    C     0.11874   0.15074   0.12679   0.00000  Uiso   1.00
C26    C     0.13760   0.39328   0.12244   0.00000  Uiso   1.00
C27    C     0.36465   0.10646   0.20836   0.00000  Uiso   1.00
C28    C     0.36285   0.10572   0.12330   0.00000  Uiso   1.00
C29    C     0.13401   0.39598   0.20725   0.00000  Uiso   1.00
C30    C     0.36933   0.40190   0.20668   0.00000  Uiso   1.00
C31    C     0.43750   0.19408   0.16641   0.00000  Uiso   1.00
C32    C     0.13926   0.10957   0.12448   0.00000  Uiso   1.00
C33    C     0.13447   0.10325   0.20858   0.00000  Uiso   1.00
C34    C     0.35784   0.38765   0.12428   0.00000  Uiso   1.00
C35    C     0.09986   0.33610   0.16559   0.00000  Uiso   1.00
C36    C     0.39991   0.16437   0.16525   0.00000  Uiso   1.00
C37    C     0.40199   0.33795   0.16919   0.00000  Uiso   1.00
C38    C     0.10051   0.16491   0.16894   0.00000  Uiso   1.00
C39    C     0.34868   0.08804   0.16633   0.00000  Uiso   1.00
C40    C     0.15110   0.41233   0.16527   0.00000  Uiso   1.00
C41    C     0.15185   0.08851   0.16622   0.00000  Uiso   1.00
C42    C     0.06244   0.30607   0.16656   0.00000  Uiso   1.00
C43    C     0.34798   0.41178   0.16519   0.00000  Uiso   1.00
C44    C     0.39319   0.16852   0.07777   0.00000  Uiso   1.00
C45    C     0.12709   0.32334   0.24736   0.00000  Uiso   1.00
C46    C     0.10876   0.32797   0.07874   0.00000  Uiso   1.00
C47    C     0.37273   0.18040   0.24657   0.00000  Uiso   1.00
C48    C     0.11926   0.16853   0.25665   0.00000  Uiso   1.00
C49    C     0.37360   0.31307   0.09208   0.00000  Uiso   1.00
C50    C     0.40314   0.34657   0.25783   0.00000  Uiso   1.00
C51    C     0.12709   0.18316   0.08925   0.00000  Uiso   1.00
C52    C     0.14262   0.41758   0.07795   0.00000  Uiso   1.00
C53    C     0.31175   0.44306   0.16629   0.00000  Uiso   1.00
C54    C     0.37417   0.07904   0.25048   0.00000  Uiso   1.00
C55    C     0.35823   0.08021   0.07939   0.00000  Uiso   1.00
C56    C     0.12375   0.42624   0.24706   0.00000  Uiso   1.00
C57    C     0.37210   0.43577   0.24374   0.00000  Uiso   1.00
C58    C     0.13621   0.08457   0.07976   0.00000  Uiso   1.00
C59    C     0.12724   0.07163   0.24719   0.00000  Uiso   1.00
C60    C     0.35565   0.40899   0.07793   0.00000  Uiso   1.00
C61    C     0.18792   0.05671   0.16656   0.00000  Uiso   1.00
C62    C     0.18781   0.44343   0.16641   0.00000  Uiso   1.00
C63    C     0.31220   0.05660   0.16672   0.00000  Uiso   1.00
C64    C     0.00086   0.21090   0.02453   0.00000  Uiso   1.00
Cu65   Cu    0.00000   0.25000   0.21355   0.00000  Uiso   1.00
Cu66   Cu   -0.00000   0.25000   0.11978   0.00000  Uiso   1.00
Cu67   Cu    0.25000   0.00000   0.21355   0.00000  Uiso   1.00
Cu68   Cu    0.25000   0.00000   0.11978   0.00000  Uiso   1.00
H69    H     0.41462   0.16645   0.01188   0.00000  Uiso   1.00
H70    H     0.40970   0.07225   0.30864   0.00000  Uiso   1.00
H71    H     0.33752   0.07800   0.01317   0.00000  Uiso   1.00
H72    H     0.09262   0.43473   0.30787   0.00000  Uiso   1.00
H73    H     0.34618   0.46235   0.30101   0.00000  Uiso   1.00
H74    H     0.11818   0.08717   0.01281   0.00000  Uiso   1.00
H75    H     0.15161   0.03618   0.30023   0.00000  Uiso   1.00
H76    H     0.36563   0.46460   0.04116   0.00000  Uiso   1.00
H77    H     0.15874   0.31538   0.30792   0.00000  Uiso   1.00
H78    H     0.08801   0.32613   0.01255   0.00000  Uiso   1.00
H79    H     0.34400   0.19019   0.30858   0.00000  Uiso   1.00
H80    H     0.15593   0.17734   0.31374   0.00000  Uiso   1.00
H81    H     0.39238   0.28547   0.03157   0.00000  Uiso   1.00
H82    H     0.42209   0.36108   0.32318   0.00000  Uiso   1.00
H83    H     0.17105   0.22097   0.05711   0.00000  Uiso   1.00
H84    H     0.16274   0.41752   0.01154   0.00000  Uiso   1.00
N85    N     0.00000   0.25000   0.28402   0.00000  Uiso   1.00
N86    N     0.00000   0.25000   0.04931   0.00000  Uiso   1.00
N87    N     0.25000   0.00000   0.28402   0.00000  Uiso   1.00
N88    N     0.25000   0.00000   0.04931   0.00000  Uiso   1.00
O89    O     0.04508   0.20491   0.20625   0.00000  Uiso   1.00
O90    O     0.20491   0.04509   0.12709   0.00000  Uiso   1.00
O91    O     0.20491   0.04509   0.20625   0.00000  Uiso   1.00
O92    O     0.29508   0.45491   0.12709   0.00000  Uiso   1.00
O93    O     0.20491   0.45491   0.12709   0.00000  Uiso   1.00
O94    O     0.29508   0.04509   0.20625   0.00000  Uiso   1.00
O95    O     0.29508   0.04509   0.12709   0.00000  Uiso   1.00
O96    O     0.20491   0.45491   0.20625   0.00000  Uiso   1.00
O97    O     0.38276   0.20734   0.07416   0.00000  Uiso   1.00
O98    O     0.41099   0.14642   0.03977   0.00000  Uiso   1.00
O99    O     0.11789   0.28401   0.24602   0.00000  Uiso   1.00
O100   O     0.45491   0.29509   0.12709   0.00000  Uiso   1.00
O101   O     0.15168   0.33922   0.28441   0.00000  Uiso   1.00
O102   O     0.11991   0.28920   0.07724   0.00000  Uiso   1.00
O103   O     0.09081   0.34764   0.03952   0.00000  Uiso   1.00
O104   O     0.38131   0.21977   0.24347   0.00000  Uiso   1.00
O105   O     0.34998   0.16563   0.28532   0.00000  Uiso   1.00
O106   O     0.09451   0.19688   0.27002   0.00000  Uiso   1.00
O107   O     0.15465   0.15875   0.28435   0.00000  Uiso   1.00
O108   O     0.34291   0.28836   0.09523   0.00000  Uiso   1.00
O109   O     0.40106   0.30968   0.05419   0.00000  Uiso   1.00
O110   O     0.39512   0.30820   0.26808   0.00000  Uiso   1.00
O111   O     0.45491   0.29509   0.20625   0.00000  Uiso   1.00
O112   O     0.41852   0.37566   0.29187   0.00000  Uiso   1.00
O113   O     0.09976   0.19220   0.06062   0.00000  Uiso   1.00
O114   O     0.16794   0.20106   0.08519   0.00000  Uiso   1.00
O115   O     0.13046   0.45590   0.07533   0.00000  Uiso   1.00
O116   O     0.16002   0.39675   0.03896   0.00000  Uiso   1.00
O117   O     0.35885   0.04229   0.25573   0.00000  Uiso   1.00
O118   O     0.40411   0.09430   0.28285   0.00000  Uiso   1.00
O119   O     0.37253   0.04270   0.07712   0.00000  Uiso   1.00
O120   O     0.33893   0.09919   0.04054   0.00000  Uiso   1.00
O121   O     0.13247   0.46565   0.24534   0.00000  Uiso   1.00
O122   O     0.04508   0.20491   0.12709   0.00000  Uiso   1.00
O123   O     0.09966   0.41063   0.28445   0.00000  Uiso   1.00
O124   O     0.39985   0.46409   0.24168   0.00000  Uiso   1.00
O125   O     0.34396   0.43474   0.28112   0.00000  Uiso   1.00
O126   O     0.13444   0.04416   0.07994   0.00000  Uiso   1.00
O127   O     0.13014   0.10700   0.03797   0.00000  Uiso   1.00
O128   O     0.09170   0.05599   0.25261   0.00000  Uiso   1.00
O129   O     0.15993   0.06052   0.27781   0.00000  Uiso   1.00
O130   O     0.34818   0.38736   0.04283   0.00000  Uiso   1.00
O131   O     0.36552   0.45390   0.07436   0.00000  Uiso   1.00
O132   O     0.45491   0.20491   0.12709   0.00000  Uiso   1.00
O133   O     0.04508   0.29509   0.20625   0.00000  Uiso   1.00
O134   O     0.04508   0.29509   0.12709   0.00000  Uiso   1.00
O135   O     0.45491   0.20491   0.20625   0.00000  Uiso   1.00
O136   O     0.29508   0.45491   0.20625   0.00000  Uiso   1.00
Br137  Br    0.50532   0.15453   0.05570   0.00000  Uiso   1.00
Br138  Br    0.50922   0.34511   0.27824   0.00000  Uiso   1.00
Br139  Br    0.99611   0.34554   0.05662   0.00000  Uiso   1.00
Br140  Br    0.99818   0.15443   0.27679   0.00000  Uiso   1.00
Br141  Br    0.75230   0.40471   0.05607   0.00000  Uiso   1.00
Br142  Br    0.75356   0.09556   0.27762   0.00000  Uiso   1.00
Br143  Br    0.74441   0.09549   0.05630   0.00000  Uiso   1.00
Br144  Br    0.74726   0.40440   0.27690   0.00000  Uiso   1.00
C145   C     0.56276   0.19441   0.16716   0.00000  Uiso   1.00
C146   C     0.50153   0.28904   0.30890   0.00000  Uiso   1.00
C147   C     0.99964   0.28908   0.02490   0.00000  Uiso   1.00
C148   C     0.99951   0.21090   0.30848   0.00000  Uiso   1.00
C149   C     0.75044   0.46094   0.02457   0.00000  Uiso   1.00
C150   C     0.75065   0.03909   0.30881   0.00000  Uiso   1.00
C151   C     0.74913   0.03909   0.02483   0.00000  Uiso   1.00
C152   C     0.74938   0.46090   0.30851   0.00000  Uiso   1.00
C153   C     0.88647   0.14520   0.12269   0.00000  Uiso   1.00
C154   C     0.61680   0.35312   0.20744   0.00000  Uiso   1.00
C155   C     0.61417   0.35359   0.12270   0.00000  Uiso   1.00
C156   C     0.93821   0.30681   0.16720   0.00000  Uiso   1.00
C157   C     0.88194   0.14927   0.20717   0.00000  Uiso   1.00
C158   C     0.61404   0.14444   0.21113   0.00000  Uiso   1.00
C159   C     0.88010   0.34773   0.12793   0.00000  Uiso   1.00
C160   C     0.89329   0.36299   0.21021   0.00000  Uiso   1.00
C161   C     0.61874   0.15074   0.12679   0.00000  Uiso   1.00
C162   C     0.63760   0.39328   0.12244   0.00000  Uiso   1.00
C163   C     0.86465   0.10646   0.20836   0.00000  Uiso   1.00
C164   C     0.86285   0.10572   0.12330   0.00000  Uiso   1.00
C165   C     0.63401   0.39598   0.20725   0.00000  Uiso   1.00
C166   C     0.86933   0.40190   0.20668   0.00000  Uiso   1.00
C167   C     0.93750   0.19408   0.16641   0.00000  Uiso   1.00
C168   C     0.63926   0.10957   0.12448   0.00000  Uiso   1.00
C169   C     0.63447   0.10325   0.20858   0.00000  Uiso   1.00
C170   C     0.85784   0.38765   0.12428   0.00000  Uiso   1.00
C171   C     0.59986   0.33610   0.16559   0.00000  Uiso   1.00
C172   C     0.89991   0.16437   0.16525   0.00000  Uiso   1.00
C173   C     0.90199   0.33795   0.16919   0.00000  Uiso   1.00
C174   C     0.60051   0.16491   0.16894   0.00000  Uiso   1.00
C175   C     0.84868   0.08804   0.16633   0.00000  Uiso   1.00
C176   C     0.65110   0.41233   0.16527   0.00000  Uiso   1.00
C177   C     0.65185   0.08851   0.16622   0.00000  Uiso   1.00
C178   C     0.56244   0.30607   0.16656   0.00000  Uiso   1.00
C179   C     0.84798   0.41178   0.16519   0.00000  Uiso   1.00
C180   C     0.89319   0.16852   0.07777   0.00000  Uiso   1.00
C181   C     0.62709   0.32334   0.24736   0.00000  Uiso   1.00
C182   C     0.60876   0.32797   0.07874   0.00000  Uiso   1.00
C183   C     0.87273   0.18040   0.24657   0.00000  Uiso   1.00
C184   C     0.61926   0.16853   0.25665   0.00000  Uiso   1.00
C185   C     0.87360   0.31307   0.09208   0.00000  Uiso   1.00
C186   C     0.90314   0.34657   0.25783   0.00000  Uiso   1.00
C187   C     0.62709   0.18316   0.08925   0.00000  Uiso   1.00
C188   C     0.64262   0.41758   0.07795   0.00000  Uiso   1.00
C189   C     0.81175   0.44306   0.16629   0.00000  Uiso   1.00
C190   C     0.87417   0.07904   0.25048   0.00000  Uiso   1.00
C191   C     0.85823   0.08021   0.07939   0.00000  Uiso   1.00
C192   C     0.62375   0.42624   0.24706   0.00000  Uiso   1.00
C193   C     0.87210   0.43577   0.24374   0.00000  Uiso   1.00
C194   C     0.63621   0.08457   0.07976   0.00000  Uiso   1.00
C195   C     0.62724   0.07163   0.24719   0.00000  Uiso   1.00
C196   C     0.85565   0.40899   0.07793   0.00000  Uiso   1.00
C197   C     0.68792   0.05671   0.16656   0.00000  Uiso   1.00
C198   C     0.68781   0.44343   0.16641   0.00000  Uiso   1.00
C199   C     0.81220   0.05660   0.16672   0.00000  Uiso   1.00
C200   C     0.50086   0.21090   0.02453   0.00000  Uiso   1.00
Cu201  Cu    0.50000   0.25000   0.21355   0.00000  Uiso   1.00
Cu202  Cu    0.50000   0.25000   0.11978   0.00000  Uiso   1.00
Cu203  Cu    0.75000   0.00000   0.21355   0.00000  Uiso   1.00
Cu204  Cu    0.75000   0.00000   0.11978   0.00000  Uiso   1.00
H205   H     0.91462   0.16645   0.01188   0.00000  Uiso   1.00
H206   H     0.90970   0.07225   0.30864   0.00000  Uiso   1.00
H207   H     0.83752   0.07800   0.01317   0.00000  Uiso   1.00
H208   H     0.59262   0.43473   0.30787   0.00000  Uiso   1.00
H209   H     0.84618   0.46235   0.30101   0.00000  Uiso   1.00
H210   H     0.61818   0.08717   0.01281   0.00000  Uiso   1.00
H211   H     0.65161   0.03618   0.30023   0.00000  Uiso   1.00
H212   H     0.86563   0.46460   0.04116   0.00000  Uiso   1.00
H213   H     0.65874   0.31538   0.30792   0.00000  Uiso   1.00
H214   H     0.58801   0.32613   0.01255   0.00000  Uiso   1.00
H215   H     0.84400   0.19019   0.30858   0.00000  Uiso   1.00
H216   H     0.65593   0.17734   0.31374   0.00000  Uiso   1.00
H217   H     0.89238   0.28547   0.03157   0.00000  Uiso   1.00
H218   H     0.92209   0.36108   0.32318   0.00000  Uiso   1.00
H219   H     0.67105   0.22097   0.05711   0.00000  Uiso   1.00
H220   H     0.66274   0.41752   0.01154   0.00000  Uiso   1.00
N221   N     0.50000   0.25000   0.28402   0.00000  Uiso   1.00
N222   N     0.50000   0.25000   0.04931   0.00000  Uiso   1.00
N223   N     0.75000   0.00000   0.28402   0.00000  Uiso   1.00
N224   N     0.75000   0.00000   0.04931   0.00000  Uiso   1.00
O225   O     0.54508   0.20491   0.20625   0.00000  Uiso   1.00
O226   O     0.70491   0.04509   0.12709   0.00000  Uiso   1.00
O227   O     0.70491   0.04509   0.20625   0.00000  Uiso   1.00
O228   O     0.79508   0.45491   0.12709   0.00000  Uiso   1.00
O229   O     0.70491   0.45491   0.12709   0.00000  Uiso   1.00
O230   O     0.79508   0.04509   0.20625   0.00000  Uiso   1.00
O231   O     0.79508   0.04509   0.12709   0.00000  Uiso   1.00
O232   O     0.70491   0.45491   0.20625   0.00000  Uiso   1.00
O233   O     0.88276   0.20734   0.07416   0.00000  Uiso   1.00
O234   O     0.91099   0.14642   0.03977   0.00000  Uiso   1.00
O235   O     0.61789   0.28401   0.24602   0.00000  Uiso   1.00
O236   O     0.95491   0.29509   0.12709   0.00000  Uiso   1.00
O237   O     0.65168   0.33922   0.28441   0.00000  Uiso   1.00
O238   O     0.61991   0.28920   0.07724   0.00000  Uiso   1.00
O239   O     0.59081   0.34764   0.03952   0.00000  Uiso   1.00
O240   O     0.88131   0.21977   0.24347   0.00000  Uiso   1.00
O241   O     0.84998   0.16563   0.28532   0.00000  Uiso   1.00
O242   O     0.59451   0.19688   0.27002   0.00000  Uiso   1.00
O243   O     0.65465   0.15875   0.28435   0.00000  Uiso   1.00
O244   O     0.84291   0.28836   0.09523   0.00000  Uiso   1.00
O245   O     0.90106   0.30968   0.05419   0.00000  Uiso   1.00
O246   O     0.89512   0.30820   0.26808   0.00000  Uiso   1.00
O247   O     0.95491   0.29509   0.20625   0.00000  Uiso   1.00
O248   O     0.91852   0.37566   0.29187   0.00000  Uiso   1.00
O249   O     0.59976   0.19220   0.06062   0.00000  Uiso   1.00
O250   O     0.66794   0.20106   0.08519   0.00000  Uiso   1.00
O251   O     0.63046   0.45590   0.07533   0.00000  Uiso   1.00
O252   O     0.66002   0.39675   0.03896   0.00000  Uiso   1.00
O253   O     0.85885   0.04229   0.25573   0.00000  Uiso   1.00
O254   O     0.90411   0.09430   0.28285   0.00000  Uiso   1.00
O255   O     0.87253   0.04270   0.07712   0.00000  Uiso   1.00
O256   O     0.83893   0.09919   0.04054   0.00000  Uiso   1.00
O257   O     0.63247   0.46565   0.24534   0.00000  Uiso   1.00
O258   O     0.54508   0.20491   0.12709   0.00000  Uiso   1.00
O259   O     0.59966   0.41063   0.28445   0.00000  Uiso   1.00
O260   O     0.89985   0.46409   0.24168   0.00000  Uiso   1.00
O261   O     0.84396   0.43474   0.28112   0.00000  Uiso   1.00
O262   O     0.63444   0.04416   0.07994   0.00000  Uiso   1.00
O263   O     0.63014   0.10700   0.03797   0.00000  Uiso   1.00
O264   O     0.59170   0.05599   0.25261   0.00000  Uiso   1.00
O265   O     0.65993   0.06052   0.27781   0.00000  Uiso   1.00
O266   O     0.84818   0.38736   0.04283   0.00000  Uiso   1.00
O267   O     0.86552   0.45390   0.07436   0.00000  Uiso   1.00
O268   O     0.95491   0.20491   0.12709   0.00000  Uiso   1.00
O269   O     0.54508   0.29509   0.20625   0.00000  Uiso   1.00
O270   O     0.54508   0.29509   0.12709   0.00000  Uiso   1.00
O271   O     0.95491   0.20491   0.20625   0.00000  Uiso   1.00
O272   O     0.79508   0.45491   0.20625   0.00000  Uiso   1.00
Br273  Br    0.00532   0.65453   0.05570   0.00000  Uiso   1.00
Br274  Br    0.00922   0.84511   0.27824   0.00000  Uiso   1.00
Br275  Br    0.49611   0.84554   0.05662   0.00000  Uiso   1.00
Br276  Br    0.49818   0.65443   0.27679   0.00000  Uiso   1.00
Br277  Br    0.25230   0.90471   0.05607   0.00000  Uiso   1.00
Br278  Br    0.25356   0.59556   0.27762   0.00000  Uiso   1.00
Br279  Br    0.24441   0.59549   0.05630   0.00000  Uiso   1.00
Br280  Br    0.24726   0.90440   0.27690   0.00000  Uiso   1.00
C281   C     0.06276   0.69441   0.16716   0.00000  Uiso   1.00
C282   C     0.00153   0.78904   0.30890   0.00000  Uiso   1.00
C283   C     0.49964   0.78908   0.02490   0.00000  Uiso   1.00
C284   C     0.49951   0.71090   0.30848   0.00000  Uiso   1.00
C285   C     0.25044   0.96094   0.02457   0.00000  Uiso   1.00
C286   C     0.25065   0.53909   0.30881   0.00000  Uiso   1.00
C287   C     0.24913   0.53909   0.02483   0.00000  Uiso   1.00
C288   C     0.24938   0.96090   0.30851   0.00000  Uiso   1.00
C289   C     0.38647   0.64520   0.12269   0.00000  Uiso   1.00
C290   C     0.11680   0.85312   0.20744   0.00000  Uiso   1.00
C291   C     0.11417   0.85359   0.12270   0.00000  Uiso   1.00
C292   C     0.43821   0.80681   0.16720   0.00000  Uiso   1.00
C293   C     0.38194   0.64927   0.20717   0.00000  Uiso   1.00
C294   C     0.11404   0.64444   0.21113   0.00000  Uiso   1.00
C295   C     0.38010   0.84773   0.12793   0.00000  Uiso   1.00
C296   C     0.39329   0.86299   0.21021   0.00000  Uiso   1.00
C297   C     0.11874   0.65074   0.12679   0.00000  Uiso   1.00
C298   C     0.13760   0.89328   0.12244   0.00000  Uiso   1.00
C299   C     0.36465   0.60646   0.20836   0.00000  Uiso   1.00
C300   C     0.36285   0.60572   0.12330   0.00000  Uiso   1.00
C301   C     0.13401   0.89598   0.20725   0.00000  Uiso   1.00
C302   C     0.36933   0.90190   0.20668   0.00000  Uiso   1.00
C303   C     0.43750   0.69408   0.16641   0.00000  Uiso   1.00
C304   C     0.13926   0.60957   0.12448   0.00000  Uiso   1.00
C305   C     0.13447   0.60325   0.20858   0.00000  Uiso   1.00
C306   C     0.35784   0.88765   0.12428   0.00000  Uiso   1.00
C307   C     0.09986   0.83610   0.16559   0.00000  Uiso   1.00
C308   C     0.39991   0.66437   0.16525   0.00000  Uiso   1.00
C309   C     0.40199   0.83795   0.16919   0.00000  Uiso   1.00
C310   C     0.10051   0.66491   0.16894   0.00000  Uiso   1.00
C311   C     0.34868   0.58804   0.16633   0.00000  Uiso   1.00
C312   C     0.15110   0.91233   0.16527   0.00000  Uiso   1.00
C313   C     0.15185   0.58851   0.16622   0.00000  Uiso   1.00
C314   C     0.06244   0.80607   0.16656   0.00000  Uiso   1.00
C315   C     0.34798   0.91178   0.16519   0.00000  Uiso   1.00
C316   C     0.39319   0.66852   0.07777   0.00000  Uiso   1.00
C317   C     0.12709   0.82334   0.24736   0.00000  Uiso   1.00
C318   C     0.10876   0.82797   0.07874   0.00000  Uiso   1.00
C319   C     0.37273   0.68040   0.24657   0.00000  Uiso   1.00
C320   C     0.11926   0.66853   0.25665   0.00000  Uiso   1.00
C321   C     0.37360   0.81307   0.09208   0.00000  Uiso   1.00
C322   C     0.40314   0.84657   0.25783   0.00000  Uiso   1.00
C323   C     0.12709   0.68316   0.08925   0.00000  Uiso   1.00
C324   C     0.14262   0.91758   0.07795   0.00000  Uiso   1.00
C325   C     0.31175   0.94306   0.16629   0.00000  Uiso   1.00
C326   C     0.37417   0.57904   0.25048   0.00000  Uiso   1.00
C327   C     0.35823   0.58021   0.07939   0.00000  Uiso   1.00
C328   C     0.12375   0.92624   0.24706   0.00000  Uiso   1.00
C329   C     0.37210   0.93577   0.24374   0.00000  Uiso   1.00
C330   C     0.13621   0.58457   0.07976   0.00000  Uiso   1.00
C331   C     0.12724   0.57163   0.24719   0.00000  Uiso   1.00
C332   C     0.35565   0.90899   0.07793   0.00000  Uiso   1.00
C333   C     0.18792   0.55671   0.16656   0.00000  Uiso   1.00
C334   C     0.18781   0.94343   0.16641   0.00000  Uiso   1.00
C335   C     0.31220   0.55660   0.16672   0.00000  Uiso   1.00
C336   C     0.00086   0.71090   0.02453   0.00000  Uiso   1.00
Cu337  Cu    0.00000   0.75000   0.21355   0.00000  Uiso   1.00
Cu338  Cu   -0.00000   0.75000   0.11978   0.00000  Uiso   1.00
Cu339  Cu    0.25000   0.50000   0.21355   0.00000  Uiso   1.00
Cu340  Cu    0.25000   0.50000   0.11978   0.00000  Uiso   1.00
H341   H     0.41462   0.66645   0.01188   0.00000  Uiso   1.00
H342   H     0.40970   0.57225   0.30864   0.00000  Uiso   1.00
H343   H     0.33752   0.57800   0.01317   0.00000  Uiso   1.00
H344   H     0.09262   0.93473   0.30787   0.00000  Uiso   1.00
H345   H     0.34618   0.96235   0.30101   0.00000  Uiso   1.00
H346   H     0.11818   0.58717   0.01281   0.00000  Uiso   1.00
H347   H     0.15161   0.53618   0.30023   0.00000  Uiso   1.00
H348   H     0.36563   0.96460   0.04116   0.00000  Uiso   1.00
H349   H     0.15874   0.81538   0.30792   0.00000  Uiso   1.00
H350   H     0.08801   0.82613   0.01255   0.00000  Uiso   1.00
H351   H     0.34400   0.69019   0.30858   0.00000  Uiso   1.00
H352   H     0.15593   0.67734   0.31374   0.00000  Uiso   1.00
H353   H     0.39238   0.78547   0.03157   0.00000  Uiso   1.00
H354   H     0.42209   0.86108   0.32318   0.00000  Uiso   1.00
H355   H     0.17105   0.72097   0.05711   0.00000  Uiso   1.00
H356   H     0.16274   0.91752   0.01154   0.00000  Uiso   1.00
N357   N     0.00000   0.75000   0.28402   0.00000  Uiso   1.00
N358   N     0.00000   0.75000   0.04931   0.00000  Uiso   1.00
N359   N     0.25000   0.50000   0.28402   0.00000  Uiso   1.00
N360   N     0.25000   0.50000   0.04931   0.00000  Uiso   1.00
O361   O     0.04508   0.70491   0.20625   0.00000  Uiso   1.00
O362   O     0.20491   0.54509   0.12709   0.00000  Uiso   1.00
O363   O     0.20491   0.54509   0.20625   0.00000  Uiso   1.00
O364   O     0.29508   0.95491   0.12709   0.00000  Uiso   1.00
O365   O     0.20491   0.95491   0.12709   0.00000  Uiso   1.00
O366   O     0.29508   0.54509   0.20625   0.00000  Uiso   1.00
O367   O     0.29508   0.54509   0.12709   0.00000  Uiso   1.00
O368   O     0.20491   0.95491   0.20625   0.00000  Uiso   1.00
O369   O     0.38276   0.70734   0.07416   0.00000  Uiso   1.00
O370   O     0.41099   0.64642   0.03977   0.00000  Uiso   1.00
O371   O     0.11789   0.78401   0.24602   0.00000  Uiso   1.00
O372   O     0.45491   0.79509   0.12709   0.00000  Uiso   1.00
O373   O     0.15168   0.83922   0.28441   0.00000  Uiso   1.00
O374   O     0.11991   0.78920   0.07724   0.00000  Uiso   1.00
O375   O     0.09081   0.84764   0.03952   0.00000  Uiso   1.00
O376   O     0.38131   0.71977   0.24347   0.00000  Uiso   1.00
O377   O     0.34998   0.66563   0.28532   0.00000  Uiso   1.00
O378   O     0.09451   0.69688   0.27002   0.00000  Uiso   1.00
O379   O     0.15465   0.65875   0.28435   0.00000  Uiso   1.00
O380   O     0.34291   0.78836   0.09523   0.00000  Uiso   1.00
O381   O     0.40106   0.80968   0.05419   0.00000  Uiso   1.00
O382   O     0.39512   0.80820   0.26808   0.00000  Uiso   1.00
O383   O     0.45491   0.79509   0.20625   0.00000  Uiso   1.00
O384   O     0.41852   0.87566   0.29187   0.00000  Uiso   1.00
O385   O     0.09976   0.69220   0.06062   0.00000  Uiso   1.00
O386   O     0.16794   0.70106   0.08519   0.00000  Uiso   1.00
O387   O     0.13046   0.95590   0.07533   0.00000  Uiso   1.00
O388   O     0.16002   0.89675   0.03896   0.00000  Uiso   1.00
O389   O     0.35885   0.54229   0.25573   0.00000  Uiso   1.00
O390   O     0.40411   0.59430   0.28285   0.00000  Uiso   1.00
O391   O     0.37253   0.54270   0.07712   0.00000  Uiso   1.00
O392   O     0.33893   0.59919   0.04054   0.00000  Uiso   1.00
O393   O     0.13247   0.96565   0.24534   0.00000  Uiso   1.00
O394   O     0.04508   0.70491   0.12709   0.00000  Uiso   1.00
O395   O     0.09966   0.91063   0.28445   0.00000  Uiso   1.00
O396   O     0.39985   0.96409   0.24168   0.00000  Uiso   1.00
O397   O     0.34396   0.93474   0.28112   0.00000  Uiso   1.00
O398   O     0.13444   0.54416   0.07994   0.00000  Uiso   1.00
O399   O     0.13014   0.60700   0.03797   0.00000  Uiso   1.00
O400   O     0.09170   0.55599   0.25261   0.00000  Uiso   1.00
O401   O     0.15993   0.56052   0.27781   0.00000  Uiso   1.00
O402   O     0.34818   0.88736   0.04283   0.00000  Uiso   1.00
O403   O     0.36552   0.95390   0.07436   0.00000  Uiso   1.00
O404   O     0.45491   0.70491   0.12709   0.00000  Uiso   1.00
O405   O     0.04508   0.79509   0.20625   0.00000  Uiso   1.00
O406   O     0.04508   0.79509   0.12709   0.00000  Uiso   1.00
O407   O     0.45491   0.70491   0.20625   0.00000  Uiso   1.00
O408   O     0.29508   0.95491   0.20625   0.00000  Uiso   1.00
Br409  Br    0.50532   0.65453   0.05570   0.00000  Uiso   1.00
Br410  Br    0.50922   0.84511   0.27824   0.00000  Uiso   1.00
Br411  Br    0.99611   0.84554   0.05662   0.00000  Uiso   1.00
Br412  Br    0.99818   0.65443   0.27679   0.00000  Uiso   1.00
Br413  Br    0.75230   0.90471   0.05607   0.00000  Uiso   1.00
Br414  Br    0.75356   0.59556   0.27762   0.00000  Uiso   1.00
Br415  Br    0.74441   0.59549   0.05630   0.00000  Uiso   1.00
Br416  Br    0.74726   0.90440   0.27690   0.00000  Uiso   1.00
C417   C     0.56276   0.69441   0.16716   0.00000  Uiso   1.00
C418   C     0.50153   0.78904   0.30890   0.00000  Uiso   1.00
C419   C     0.99964   0.78908   0.02490   0.00000  Uiso   1.00
C420   C     0.99951   0.71090   0.30848   0.00000  Uiso   1.00
C421   C     0.75044   0.96094   0.02457   0.00000  Uiso   1.00
C422   C     0.75065   0.53909   0.30881   0.00000  Uiso   1.00
C423   C     0.74913   0.53909   0.02483   0.00000  Uiso   1.00
C424   C     0.74938   0.96090   0.30851   0.00000  Uiso   1.00
C425   C     0.88647   0.64520   0.12269   0.00000  Uiso   1.00
C426   C     0.61680   0.85312   0.20744   0.00000  Uiso   1.00
C427   C     0.61417   0.85359   0.12270   0.00000  Uiso   1.00
C428   C     0.93821   0.80681   0.16720   0.00000  Uiso   1.00
C429   C     0.88194   0.64927   0.20717   0.00000  Uiso   1.00
C430   C     0.61404   0.64444   0.21113   0.00000  Uiso   1.00
C431   C     0.88010   0.84773   0.12793   0.00000  Uiso   1.00
C432   C     0.89329   0.86299   0.21021   0.00000  Uiso   1.00
C433   C     0.61874   0.65074   0.12679   0.00000  Uiso   1.00
C434   C     0.63760   0.89328   0.12244   0.00000  Uiso   1.00
C435   C     0.86465   0.60646   0.20836   0.00000  Uiso   1.00
C436   C     0.86285   0.60572   0.12330   0.00000  Uiso   1.00
C437   C     0.63401   0.89598   0.20725   0.00000  Uiso   1.00
C438   C     0.86933   0.90190   0.20668   0.00000  Uiso   1.00
C439   C     0.93750   0.69408   0.16641   0.00000  Uiso   1.00
C440   C     0.63926   0.60957   0.12448   0.00000  Uiso   1.00
C441   C     0.63447   0.60325   0.20858   0.00000  Uiso   1.00
C442   C     0.85784   0.88765   0.12428   0.00000  Uiso   1.00
C443   C     0.59986   0.83610   0.16559   0.00000  Uiso   1.00
C444   C     0.89991   0.66437   0.16525   0.00000  Uiso   1.00
C445   C     0.90199   0.83795   0.16919   0.00000  Uiso   1.00
C446   C     0.60051   0.66491   0.16894   0.00000  Uiso   1.00
C447   C     0.84868   0.58804   0.16633   0.00000  Uiso   1.00
C448   C     0.65110   0.91233   0.16527   0.00000  Uiso   1.00
C449   C     0.65185   0.58851   0.16622   0.00000  Uiso   1.00
C450   C     0.56244   0.80607   0.16656   0.00000  Uiso   1.00
C451   C     0.84798   0.91178   0.16519   0.00000  Uiso   1.00
C452   C     0.89319   0.66852   0.07777   0.00000  Uiso   1.00
C453   C     0.62709   0.82334   0.24736   0.00000  Uiso   1.00
C454   C     0.60876   0.82797   0.07874   0.00000  Uiso   1.00
C455   C     0.87273   0.68040   0.24657   0.00000  Uiso   1.00
C456   C     0.61926   0.66853   0.25665   0.00000  Uiso   1.00
C457   C     0.87360   0.81307   0.09208   0.00000  Uiso   1.00
C458   C     0.90314   0.84657   0.25783   0.00000  Uiso   1.00
C459   C     0.62709   0.68316   0.08925   0.00000  Uiso   1.00
C460   C     0.64262   0.91758   0.07795   0.00000  Uiso   1.00
C461   C     0.81175   0.94306   0.16629   0.00000  Uiso   1.00
C462   C     0.87417   0.57904   0.25048   0.00000  Uiso   1.00
C463   C     0.85823   0.58021   0.07939   0.00000  Uiso   1.00
C464   C     0.62375   0.92624   0.24706   0.00000  Uiso   1.00
C465   C     0.87210   0.93577   0.24374   0.00000  Uiso   1.00
C466   C     0.63621   0.58457   0.07976   0.00000  Uiso   1.00
C467   C     0.62724   0.57163   0.24719   0.00000  Uiso   1.00
C468   C     0.85565   0.90899   0.07793   0.00000  Uiso   1.00
C469   C     0.68792   0.55671   0.16656   0.00000  Uiso   1.00
C470   C     0.68781   0.94343   0.16641   0.00000  Uiso   1.00
C471   C     0.81220   0.55660   0.16672   0.00000  Uiso   1.00
C472   C     0.50086   0.71090   0.02453   0.00000  Uiso   1.00
Cu473  Cu    0.50000   0.75000   0.21355   0.00000  Uiso   1.00
Cu474  Cu    0.50000   0.75000   0.11978   0.00000  Uiso   1.00
Cu475  Cu    0.75000   0.50000   0.21355   0.00000  Uiso   1.00
Cu476  Cu    0.75000   0.50000   0.11978   0.00000  Uiso   1.00
H477   H     0.91462   0.66645   0.01188   0.00000  Uiso   1.00
H478   H     0.90970   0.57225   0.30864   0.00000  Uiso   1.00
H479   H     0.83752   0.57800   0.01317   0.00000  Uiso   1.00
H480   H     0.59262   0.93473   0.30787   0.00000  Uiso   1.00
H481   H     0.84618   0.96235   0.30101   0.00000  Uiso   1.00
H482   H     0.61818   0.58717   0.01281   0.00000  Uiso   1.00
H483   H     0.65161   0.53618   0.30023   0.00000  Uiso   1.00
H484   H     0.86563   0.96460   0.04116   0.00000  Uiso   1.00
H485   H     0.65874   0.81538   0.30792   0.00000  Uiso   1.00
H486   H     0.58801   0.82613   0.01255   0.00000  Uiso   1.00
H487   H     0.84400   0.69019   0.30858   0.00000  Uiso   1.00
H488   H     0.65593   0.67734   0.31374   0.00000  Uiso   1.00
H489   H     0.89238   0.78547   0.03157   0.00000  Uiso   1.00
H490   H     0.92209   0.86108   0.32318   0.00000  Uiso   1.00
H491   H     0.67105   0.72097   0.05711   0.00000  Uiso   1.00
H492   H     0.66274   0.91752   0.01154   0.00000  Uiso   1.00
N493   N     0.50000   0.75000   0.28402   0.00000  Uiso   1.00
N494   N     0.50000   0.75000   0.04931   0.00000  Uiso   1.00
N495   N     0.75000   0.50000   0.28402   0.00000  Uiso   1.00
N496   N     0.75000   0.50000   0.04931   0.00000  Uiso   1.00
O497   O     0.54508   0.70491   0.20625   0.00000  Uiso   1.00
O498   O     0.70491   0.54509   0.12709   0.00000  Uiso   1.00
O499   O     0.70491   0.54509   0.20625   0.00000  Uiso   1.00
O500   O     0.79508   0.95491   0.12709   0.00000  Uiso   1.00
O501   O     0.70491   0.95491   0.12709   0.00000  Uiso   1.00
O502   O     0.79508   0.54509   0.20625   0.00000  Uiso   1.00
O503   O     0.79508   0.54509   0.12709   0.00000  Uiso   1.00
O504   O     0.70491   0.95491   0.20625   0.00000  Uiso   1.00
O505   O     0.88276   0.70734   0.07416   0.00000  Uiso   1.00
O506   O     0.91099   0.64642   0.03977   0.00000  Uiso   1.00
O507   O     0.61789   0.78401   0.24602   0.00000  Uiso   1.00
O508   O     0.95491   0.79509   0.12709   0.00000  Uiso   1.00
O509   O     0.65168   0.83922   0.28441   0.00000  Uiso   1.00
O510   O     0.61991   0.78920   0.07724   0.00000  Uiso   1.00
O511   O     0.59081   0.84764   0.03952   0.00000  Uiso   1.00
O512   O     0.88131   0.71977   0.24347   0.00000  Uiso   1.00
O513   O     0.84998   0.66563   0.28532   0.00000  Uiso   1.00
O514   O     0.59451   0.69688   0.27002   0.00000  Uiso   1.00
O515   O     0.65465   0.65875   0.28435   0.00000  Uiso   1.00
O516   O     0.84291   0.78836   0.09523   0.00000  Uiso   1.00
O517   O     0.90106   0.80968   0.05419   0.00000  Uiso   1.00
O518   O     0.89512   0.80820   0.26808   0.00000  Uiso   1.00
O519   O     0.95491   0.79509   0.20625   0.00000  Uiso   1.00
O520   O     0.91852   0.87566   0.29187   0.00000  Uiso   1.00
O521   O     0.59976   0.69220   0.06062   0.00000  Uiso   1.00
O522   O     0.66794   0.70106   0.08519   0.00000  Uiso   1.00
O523   O     0.63046   0.95590   0.07533   0.00000  Uiso   1.00
O524   O     0.66002   0.89675   0.03896   0.00000  Uiso   1.00
O525   O     0.85885   0.54229   0.25573   0.00000  Uiso   1.00
O526   O     0.90411   0.59430   0.28285   0.00000  Uiso   1.00
O527   O     0.87253   0.54270   0.07712   0.00000  Uiso   1.00
O528   O     0.83893   0.59919   0.04054   0.00000  Uiso   1.00
O529   O     0.63247   0.96565   0.24534   0.00000  Uiso   1.00
O530   O     0.54508   0.70491   0.12709   0.00000  Uiso   1.00
O531   O     0.59966   0.91063   0.28445   0.00000  Uiso   1.00
O532   O     0.89985   0.96409   0.24168   0.00000  Uiso   1.00
O533   O     0.84396   0.93474   0.28112   0.00000  Uiso   1.00
O534   O     0.63444   0.54416   0.07994   0.00000  Uiso   1.00
O535   O     0.63014   0.60700   0.03797   0.00000  Uiso   1.00
O536   O     0.59170   0.55599   0.25261   0.00000  Uiso   1.00
O537   O     0.65993   0.56052   0.27781   0.00000  Uiso   1.00
O538   O     0.84818   0.88736   0.04283   0.00000  Uiso   1.00
O539   O     0.86552   0.95390   0.07436   0.00000  Uiso   1.00
O540   O     0.95491   0.70491   0.12709   0.00000  Uiso   1.00
O541   O     0.54508   0.79509   0.20625   0.00000  Uiso   1.00
O542   O     0.54508   0.79509   0.12709   0.00000  Uiso   1.00
O543   O     0.95491   0.70491   0.20625   0.00000  Uiso   1.00
O544   O     0.79508   0.95491   0.20625   0.00000  Uiso   1.00
Br545  Br    0.00532   0.15453   0.38904   0.00000  Uiso   1.00
Br546  Br    0.00922   0.34511   0.61158   0.00000  Uiso   1.00
Br547  Br    0.49611   0.34554   0.38995   0.00000  Uiso   1.00
Br548  Br    0.49818   0.15443   0.61012   0.00000  Uiso   1.00
Br549  Br    0.25230   0.40471   0.38940   0.00000  Uiso   1.00
Br550  Br    0.25356   0.09556   0.61096   0.00000  Uiso   1.00
Br551  Br    0.24441   0.09549   0.38963   0.00000  Uiso   1.00
Br552  Br    0.24726   0.40440   0.61023   0.00000  Uiso   1.00
C553   C     0.06276   0.19441   0.50049   0.00000  Uiso   1.00
C554   C     0.00153   0.28904   0.64224   0.00000  Uiso   1.00
C555   C     0.49964   0.28908   0.35823   0.00000  Uiso   1.00
C556   C     0.49951   0.21090   0.64181   0.00000  Uiso   1.00
C557   C     0.25044   0.46094   0.35790   0.00000  Uiso   1.00
C558   C     0.25065   0.03909   0.64214   0.00000  Uiso   1.00
C559   C     0.24913   0.03909   0.35817   0.00000  Uiso   1.00
C560   C     0.24938   0.46090   0.64185   0.00000  Uiso   1.00
C561   C     0.38647   0.14520   0.45602   0.00000  Uiso   1.00
C562   C     0.11680   0.35312   0.54077   0.00000  Uiso   1.00
C563   C     0.11417   0.35359   0.45603   0.00000  Uiso   1.00
C564   C     0.43821   0.30681   0.50054   0.00000  Uiso   1.00
C565   C     0.38194   0.14927   0.54050   0.00000  Uiso   1.00
C566   C     0.11404   0.14444   0.54446   0.00000  Uiso   1.00
C567   C     0.38010   0.34773   0.46126   0.00000  Uiso   1.00
C568   C     0.39329   0.36299   0.54355   0.00000  Uiso   1.00
C569   C     0.11874   0.15074   0.46013   0.00000  Uiso   1.00
C570   C     0.13760   0.39328   0.45578   0.00000  Uiso   1.00
C571   C     0.36465   0.10646   0.54169   0.00000  Uiso   1.00
C572   C     0.36285   0.10572   0.45663   0.00000  Uiso   1.00
C573   C     0.13401   0.39598   0.54059   0.00000  Uiso   1.00
C574   C     0.36933   0.40190   0.54002   0.00000  Uiso   1.00
C575   C     0.43750   0.19408   0.49975   0.00000  Uiso   1.00
C576   C     0.13926   0.10957   0.45781   0.00000  Uiso   1.00
C577   C     0.13447   0.10325   0.54191   0.00000  Uiso   1.00
C578   C     0.35784   0.38765   0.45762   0.00000  Uiso   1.00
C579   C     0.09986   0.33610   0.49893   0.00000  Uiso   1.00
C580   C     0.39991   0.16437   0.49859   0.00000  Uiso   1.00
C581   C     0.40199   0.33795   0.50252   0.00000  Uiso   1.00
C582   C     0.10051   0.16491   0.50228   0.00000  Uiso   1.00
C583   C     0.34868   0.08804   0.49966   0.00000  Uiso   1.00
C584   C     0.15110   0.41233   0.49860   0.00000  Uiso   1.00
C585   C     0.15185   0.08851   0.49955   0.00000  Uiso   1.00
C586   C     0.06244   0.30607   0.49989   0.00000  Uiso   1.00
C587   C     0.34798   0.41178   0.49852   0.00000  Uiso   1.00
C588   C     0.39319   0.16852   0.41110   0.00000  Uiso   1.00
C589   C     0.12709   0.32334   0.58070   0.00000  Uiso   1.00
C590   C     0.10876   0.32797   0.41207   0.00000  Uiso   1.00
C591   C     0.37273   0.18040   0.57991   0.00000  Uiso   1.00
C592   C     0.11926   0.16853   0.58998   0.00000  Uiso   1.00
C593   C     0.37360   0.31307   0.42541   0.00000  Uiso   1.00
C594   C     0.40314   0.34657   0.59116   0.00000  Uiso   1.00
C595   C     0.12709   0.18316   0.42259   0.00000  Uiso   1.00
C596   C     0.14262   0.41758   0.41128   0.00000  Uiso   1.00
C597   C     0.31175   0.44306   0.49963   0.00000  Uiso   1.00
C598   C     0.37417   0.07904   0.58381   0.00000  Uiso   1.00
C599   C     0.35823   0.08021   0.41272   0.00000  Uiso   1.00
C600   C     0.12375   0.42624   0.58039   0.00000  Uiso   1.00
C601   C     0.37210   0.43577   0.57707   0.00000  Uiso   1.00
C602   C     0.13621   0.08457   0.41309   0.00000  Uiso   1.00
C603   C     0.12724   0.07163   0.58053   0.00000  Uiso   1.00
C604   C     0.35565   0.40899   0.41126   0.00000  Uiso   1.00
C605   C     0.18792   0.05671   0.49989   0.00000  Uiso   1.00
C606   C     0.18781   0.44343   0.49975   0.00000  Uiso   1.00
C607   C     0.31220   0.05660   0.50005   0.00000  Uiso   1.00
C608   C     0.00086   0.21090   0.35787   0.00000  Uiso   1.00
Cu609  Cu    0.00000   0.25000   0.54689   0.00000  Uiso   1.00
Cu610  Cu   -0.00000   0.25000   0.45311   0.00000  Uiso   1.00
Cu611  Cu    0.25000   0.00000   0.54689   0.00000  Uiso   1.00
Cu612  Cu    0.25000   0.00000   0.45311   0.00000  Uiso   1.00
H613   H     0.41462   0.16645   0.34521   0.00000  Uiso   1.00
H614   H     0.40970   0.07225   0.64197   0.00000  Uiso   1.00
H615   H     0.33752   0.07800   0.34650   0.00000  Uiso   1.00
H616   H     0.09262   0.43473   0.64120   0.00000  Uiso   1.00
H617   H     0.34618   0.46235   0.63435   0.00000  Uiso   1.00
H618   H     0.11818   0.08717   0.34614   0.00000  Uiso   1.00
H619   H     0.15161   0.03618   0.63356   0.00000  Uiso   1.00
H620   H     0.36563   0.46460   0.37450   0.00000  Uiso   1.00
H621   H     0.15874   0.31538   0.64125   0.00000  Uiso   1.00
H622   H     0.08801   0.32613   0.34588   0.00000  Uiso   1.00
H623   H     0.34400   0.19019   0.64191   0.00000  Uiso   1.00
H624   H     0.15593   0.17734   0.64707   0.00000  Uiso   1.00
H625   H     0.39238   0.28547   0.36490   0.00000  Uiso   1.00
H626   H     0.42209   0.36108   0.65651   0.00000  Uiso   1.00
H627   H     0.17105   0.22097   0.39045   0.00000  Uiso   1.00
H628   H     0.16274   0.41752   0.34487   0.00000  Uiso   1.00
N629   N     0.00000   0.25000   0.61736   0.00000  Uiso   1.00
N630   N     0.00000   0.25000   0.38264   0.00000  Uiso   1.00
N631   N     0.25000   0.00000   0.61736   0.00000  Uiso   1.00
N632   N     0.25000   0.00000   0.38264   0.00000  Uiso   1.00
O633   O     0.04508   0.20491   0.53958   0.00000  Uiso   1.00
O634   O     0.20491   0.04509   0.46042   0.00000  Uiso   1.00
O635   O     0.20491   0.04509   0.53958   0.00000  Uiso   1.00
O636   O     0.29508   0.45491   0.46042   0.00000  Uiso   1.00
O637   O     0.20491   0.45491   0.46042   0.00000  Uiso   1.00
O638   O     0.29508   0.04509   0.53958   0.00000  Uiso   1.00
O639   O     0.29508   0.04509   0.46042   0.00000  Uiso   1.00
O640   O     0.20491   0.45491   0.53958   0.00000  Uiso   1.00
O641   O     0.38276   0.20734   0.40749   0.00000  Uiso   1.00
O642   O     0.41099   0.14642   0.37310   0.00000  Uiso   1.00
O643   O     0.11789   0.28401   0.57936   0.00000  Uiso   1.00
O644   O     0.45491   0.29509   0.46042   0.00000  Uiso   1.00
O645   O     0.15168   0.33922   0.61774   0.00000  Uiso   1.00
O646   O     0.11991   0.28920   0.41058   0.00000  Uiso   1.00
O647   O     0.09081   0.34764   0.37285   0.00000  Uiso   1.00
O648   O     0.38131   0.21977   0.57681   0.00000  Uiso   1.00
O649   O     0.34998   0.16563   0.61866   0.00000  Uiso   1.00
O650   O     0.09451   0.19688   0.60335   0.00000  Uiso   1.00
O651   O     0.15465   0.15875   0.61768   0.00000  Uiso   1.00
O652   O     0.34291   0.28836   0.42856   0.00000  Uiso   1.00
O653   O     0.40106   0.30968   0.38752   0.00000  Uiso   1.00
O654   O     0.39512   0.30820   0.60141   0.00000  Uiso   1.00
O655   O     0.45491   0.29509   0.53958   0.00000  Uiso   1.00
O656   O     0.41852   0.37566   0.62520   0.00000  Uiso   1.00
O657   O     0.09976   0.19220   0.39395   0.00000  Uiso   1.00
O658   O     0.16794   0.20106   0.41853   0.00000  Uiso   1.00
O659   O     0.13046   0.45590   0.40867   0.00000  Uiso   1.00
O660   O     0.16002   0.39675   0.37229   0.00000  Uiso   1.00
O661   O     0.35885   0.04229   0.58906   0.00000  Uiso   1.00
O662   O     0.40411   0.09430   0.61618   0.00000  Uiso   1.00
O663   O     0.37253   0.04270   0.41045   0.00000  Uiso   1.00
O664   O     0.33893   0.09919   0.37387   0.00000  Uiso   1.00
O665   O     0.13247   0.46565   0.57868   0.00000  Uiso   1.00
O666   O     0.04508   0.20491   0.46042   0.00000  Uiso   1.00
O667   O     0.09966   0.41063   0.61778   0.00000  Uiso   1.00
O668   O     0.39985   0.46409   0.57501   0.00000  Uiso   1.00
O669   O     0.34396   0.43474   0.61445   0.00000  Uiso   1.00
O670   O     0.13444   0.04416   0.41327   0.00000  Uiso   1.00
O671   O     0.13014   0.10700   0.37130   0.00000  Uiso   1.00
O672   O     0.09170   0.05599   0.58595   0.00000  Uiso   1.00
O673   O     0.15993   0.06052   0.61114   0.00000  Uiso   1.00
O674   O     0.34818   0.38736   0.37616   0.00000  Uiso   1.00
O675   O     0.36552   0.45390   0.40770   0.00000  Uiso   1.00
O676   O     0.45491   0.20491   0.46042   0.00000  Uiso   1.00
O677   O     0.04508   0.29509   0.53958   0.00000  Uiso   1.00
O678   O     0.04508   0.29509   0.46042   0.00000  Uiso   1.00
O679   O     0.45491   0.20491   0.53958   0.00000  Uiso   1.00
O680   O     0.29508   0.45491   0.53958   0.00000  Uiso   1.00
Br681  Br    0.50532   0.15453   0.38904   0.00000  Uiso   1.00
Br682  Br    0.50922   0.34511   0.61158   0.00000  Uiso   1.00
Br683  Br    0.99611   0.34554   0.38995   0.00000  Uiso   1.00
Br684  Br    0.99818   0.15443   0.61012   0.00000  Uiso   1.00
Br685  Br    0.75230   0.40471   0.38940   0.00000  Uiso   1.00
Br686  Br    0.75356   0.09556   0.61096   0.00000  Uiso   1.00
Br687  Br    0.74441   0.09549   0.38963   0.00000  Uiso   1.00
Br688  Br    0.74726   0.40440   0.61023   0.00000  Uiso   1.00
C689   C     0.56276   0.19441   0.50049   0.00000  Uiso   1.00
C690   C     0.50153   0.28904   0.64224   0.00000  Uiso   1.00
C691   C     0.99964   0.28908   0.35823   0.00000  Uiso   1.00
C692   C     0.99951   0.21090   0.64181   0.00000  Uiso   1.00
C693   C     0.75044   0.46094   0.35790   0.00000  Uiso   1.00
C694   C     0.75065   0.03909   0.64214   0.00000  Uiso   1.00
C695   C     0.74913   0.03909   0.35817   0.00000  Uiso   1.00
C696   C     0.74938   0.46090   0.64185   0.00000  Uiso   1.00
C697   C     0.88647   0.14520   0.45602   0.00000  Uiso   1.00
C698   C     0.61680   0.35312   0.54077   0.00000  Uiso   1.00
C699   C     0.61417   0.35359   0.45603   0.00000  Uiso   1.00
C700   C     0.93821   0.30681   0.50054   0.00000  Uiso   1.00
C701   C     0.88194   0.14927   0.54050   0.00000  Uiso   1.00
C702   C     0.61404   0.14444   0.54446   0.00000  Uiso   1.00
C703   C     0.88010   0.34773   0.46126   0.00000  Uiso   1.00
C704   C     0.89329   0.36299   0.54355   0.00000  Uiso   1.00
C705   C     0.61874   0.15074   0.46013   0.00000  Uiso   1.00
C706   C     0.63760   0.39328   0.45578   0.00000  Uiso   1.00
C707   C     0.86465   0.10646   0.54169   0.00000  Uiso   1.00
C708   C     0.86285   0.10572   0.45663   0.00000  Uiso   1.00
C709   C     0.63401   0.39598   0.54059   0.00000  Uiso   1.00
C710   C     0.86933   0.40190   0.54002   0.00000  Uiso   1.00
C711   C     0.93750   0.19408   0.49975   0.00000  Uiso   1.00
C712   C     0.63926   0.10957   0.45781   0.00000  Uiso   1.00
C713   C     0.63447   0.10325   0.54191   0.00000  Uiso   1.00
C714   C     0.85784   0.38765   0.45762   0.00000  Uiso   1.00
C715   C     0.59986   0.33610   0.49893   0.00000  Uiso   1.00
C716   C     0.89991   0.16437   0.49859   0.00000  Uiso   1.00
C717   C     0.90199   0.33795   0.50252   0.00000  Uiso   1.00
C718   C     0.60051   0.16491   0.50228   0.00000  Uiso   1.00
C719   C     0.84868   0.08804   0.49966   0.00000  Uiso   1.00
C720   C     0.65110   0.41233   0.49860   0.00000  Uiso   1.00
C721   C     0.65185   0.08851   0.49955   0.00000  Uiso   1.00
C722   C     0.56244   0.30607   0.49989   0.00000  Uiso   1.00
C723   C     0.84798   0.41178   0.49852   0.00000  Uiso   1.00
C724   C     0.89319   0.16852   0.41110   0.00000  Uiso   1.00
C725   C     0.62709   0.32334   0.58070   0.00000  Uiso   1.00
C726   C     0.60876   0.32797   0.41207   0.00000  Uiso   1.00
C727   C     0.87273   0.18040   0.57991   0.00000  Uiso   1.00
C728   C     0.61926   0.16853   0.58998   0.00000  Uiso   1.00
C729   C     0.87360   0.31307   0.42541   0.00000  Uiso   1.00
C730   C     0.90314   0.34657   0.59116   0.00000  Uiso   1.00
C731   C     0.62709   0.18316   0.42259   0.00000  Uiso   1.00
C732   C     0.64262   0.41758   0.41128   0.00000  Uiso   1.00
C733   C     0.81175   0.44306   0.49963   0.00000  Uiso   1.00
C734   C     0.87417   0.07904   0.58381   0.00000  Uiso   1.00
C735   C     0.85823   0.08021   0.41272   0.00000  Uiso   1.00
C736   C     0.62375   0.42624   0.58039   0.00000  Uiso   1.00
C737   C     0.87210   0.43577   0.57707   0.00000  Uiso   1.00
C738   C     0.63621   0.08457   0.41309   0.00000  Uiso   1.00
C739   C     0.62724   0.07163   0.58053   0.00000  Uiso   1.00
C740   C     0.85565   0.40899   0.41126   0.00000  Uiso   1.00
C741   C     0.68792   0.05671   0.49989   0.00000  Uiso   1.00
C742   C     0.68781   0.44343   0.49975   0.00000  Uiso   1.00
C743   C     0.81220   0.05660   0.50005   0.00000  Uiso   1.00
C744   C     0.50086   0.21090   0.35787   0.00000  Uiso   1.00
Cu745  Cu    0.50000   0.25000   0.54689   0.00000  Uiso   1.00
Cu746  Cu    0.50000   0.25000   0.45311   0.00000  Uiso   1.00
Cu747  Cu    0.75000   0.00000   0.54689   0.00000  Uiso   1.00
Cu748  Cu    0.75000   0.00000   0.45311   0.00000  Uiso   1.00
H749   H     0.91462   0.16645   0.34521   0.00000  Uiso   1.00
H750   H     0.90970   0.07225   0.64197   0.00000  Uiso   1.00
H751   H     0.83752   0.07800   0.34650   0.00000  Uiso   1.00
H752   H     0.59262   0.43473   0.64120   0.00000  Uiso   1.00
H753   H     0.84618   0.46235   0.63435   0.00000  Uiso   1.00
H754   H     0.61818   0.08717   0.34614   0.00000  Uiso   1.00
H755   H     0.65161   0.03618   0.63356   0.00000  Uiso   1.00
H756   H     0.86563   0.46460   0.37450   0.00000  Uiso   1.00
H757   H     0.65874   0.31538   0.64125   0.00000  Uiso   1.00
H758   H     0.58801   0.32613   0.34588   0.00000  Uiso   1.00
H759   H     0.84400   0.19019   0.64191   0.00000  Uiso   1.00
H760   H     0.65593   0.17734   0.64707   0.00000  Uiso   1.00
H761   H     0.89238   0.28547   0.36490   0.00000  Uiso   1.00
H762   H     0.92209   0.36108   0.65651   0.00000  Uiso   1.00
H763   H     0.67105   0.22097   0.39045   0.00000  Uiso   1.00
H764   H     0.66274   0.41752   0.34487   0.00000  Uiso   1.00
N765   N     0.50000   0.25000   0.61736   0.00000  Uiso   1.00
N766   N     0.50000   0.25000   0.38264   0.00000  Uiso   1.00
N767   N     0.75000   0.00000   0.61736   0.00000  Uiso   1.00
N768   N     0.75000   0.00000   0.38264   0.00000  Uiso   1.00
O769   O     0.54508   0.20491   0.53958   0.00000  Uiso   1.00
O770   O     0.70491   0.04509   0.46042   0.00000  Uiso   1.00
O771   O     0.70491   0.04509   0.53958   0.00000  Uiso   1.00
O772   O     0.79508   0.45491   0.46042   0.00000  Uiso   1.00
O773   O     0.70491   0.45491   0.46042   0.00000  Uiso   1.00
O774   O     0.79508   0.04509   0.53958   0.00000  Uiso   1.00
O775   O     0.79508   0.04509   0.46042   0.00000  Uiso   1.00
O776   O     0.70491   0.45491   0.53958   0.00000  Uiso   1.00
O777   O     0.88276   0.20734   0.40749   0.00000  Uiso   1.00
O778   O     0.91099   0.14642   0.37310   0.00000  Uiso   1.00
O779   O     0.61789   0.28401   0.57936   0.00000  Uiso   1.00
O780   O     0.95491   0.29509   0.46042   0.00000  Uiso   1.00
O781   O     0.65168   0.33922   0.61774   0.00000  Uiso   1.00
O782   O     0.61991   0.28920   0.41058   0.00000  Uiso   1.00
O783   O     0.59081   0.34764   0.37285   0.00000  Uiso   1.00
O784   O     0.88131   0.21977   0.57681   0.00000  Uiso   1.00
O785   O     0.84998   0.16563   0.61866   0.00000  Uiso   1.00
O786   O     0.59451   0.19688   0.60335   0.00000  Uiso   1.00
O787   O     0.65465   0.15875   0.61768   0.00000  Uiso   1.00
O788   O     0.84291   0.28836   0.42856   0.00000  Uiso   1.00
O789   O     0.90106   0.30968   0.38752   0.00000  Uiso   1.00
O790   O     0.89512   0.30820   0.60141   0.00000  Uiso   1.00
O791   O     0.95491   0.29509   0.53958   0.00000  Uiso   1.00
O792   O     0.91852   0.37566   0.62520   0.00000  Uiso   1.00
O793   O     0.59976   0.19220   0.39395   0.00000  Uiso   1.00
O794   O     0.66794   0.20106   0.41853   0.00000  Uiso   1.00
O795   O     0.63046   0.45590   0.40867   0.00000  Uiso   1.00
O796   O     0.66002   0.39675   0.37229   0.00000  Uiso   1.00
O797   O     0.85885   0.04229   0.58906   0.00000  Uiso   1.00
O798   O     0.90411   0.09430   0.61618   0.00000  Uiso   1.00
O799   O     0.87253   0.04270   0.41045   0.00000  Uiso   1.00
O800   O     0.83893   0.09919   0.37387   0.00000  Uiso   1.00
O801   O     0.63247   0.46565   0.57868   0.00000  Uiso   1.00
O802   O     0.54508   0.20491   0.46042   0.00000  Uiso   1.00
O803   O     0.59966   0.41063   0.61778   0.00000  Uiso   1.00
O804   O     0.89985   0.46409   0.57501   0.00000  Uiso   1.00
O805   O     0.84396   0.43474   0.61445   0.00000  Uiso   1.00
O806   O     0.63444   0.04416   0.41327   0.00000  Uiso   1.00
O807   O     0.63014   0.10700   0.37130   0.00000  Uiso   1.00
O808   O     0.59170   0.05599   0.58595   0.00000  Uiso   1.00
O809   O     0.65993   0.06052   0.61114   0.00000  Uiso   1.00
O810   O     0.84818   0.38736   0.37616   0.00000  Uiso   1.00
O811   O     0.86552   0.45390   0.40770   0.00000  Uiso   1.00
O812   O     0.95491   0.20491   0.46042   0.00000  Uiso   1.00
O813   O     0.54508   0.29509   0.53958   0.00000  Uiso   1.00
O814   O     0.54508   0.29509   0.46042   0.00000  Uiso   1.00
O815   O     0.95491   0.20491   0.53958   0.00000  Uiso   1.00
O816   O     0.79508   0.45491   0.53958   0.00000  Uiso   1.00
Br817  Br    0.00532   0.65453   0.38904   0.00000  Uiso   1.00
Br818  Br    0.00922   0.84511   0.61158   0.00000  Uiso   1.00
Br819  Br    0.49611   0.84554   0.38995   0.00000  Uiso   1.00
Br820  Br    0.49818   0.65443   0.61012   0.00000  Uiso   1.00
Br821  Br    0.25230   0.90471   0.38940   0.00000  Uiso   1.00
Br822  Br    0.25356   0.59556   0.61096   0.00000  Uiso   1.00
Br823  Br    0.24441   0.59549   0.38963   0.00000  Uiso   1.00
Br824  Br    0.24726   0.90440   0.61023   0.00000  Uiso   1.00
C825   C     0.06276   0.69441   0.50049   0.00000  Uiso   1.00
C826   C     0.00153   0.78904   0.64224   0.00000  Uiso   1.00
C827   C     0.49964   0.78908   0.35823   0.00000  Uiso   1.00
C828   C     0.49951   0.71090   0.64181   0.00000  Uiso   1.00
C829   C     0.25044   0.96094   0.35790   0.00000  Uiso   1.00
C830   C     0.25065   0.53909   0.64214   0.00000  Uiso   1.00
C831   C     0.24913   0.53909   0.35817   0.00000  Uiso   1.00
C832   C     0.24938   0.96090   0.64185   0.00000  Uiso   1.00
C833   C     0.38647   0.64520   0.45602   0.00000  Uiso   1.00
C834   C     0.11680   0.85312   0.54077   0.00000  Uiso   1.00
C835   C     0.11417   0.85359   0.45603   0.00000  Uiso   1.00
C836   C     0.43821   0.80681   0.50054   0.00000  Uiso   1.00
C837   C     0.38194   0.64927   0.54050   0.00000  Uiso   1.00
C838   C     0.11404   0.64444   0.54446   0.00000  Uiso   1.00
C839   C     0.38010   0.84773   0.46126   0.00000  Uiso   1.00
C840   C     0.39329   0.86299   0.54355   0.00000  Uiso   1.00
C841   C     0.11874   0.65074   0.46013   0.00000  Uiso   1.00
C842   C     0.13760   0.89328   0.45578   0.00000  Uiso   1.00
C843   C     0.36465   0.60646   0.54169   0.00000  Uiso   1.00
C844   C     0.36285   0.60572   0.45663   0.00000  Uiso   1.00
C845   C     0.13401   0.89598   0.54059   0.00000  Uiso   1.00
C846   C     0.36933   0.90190   0.54002   0.00000  Uiso   1.00
C847   C     0.43750   0.69408   0.49975   0.00000  Uiso   1.00
C848   C     0.13926   0.60957   0.45781   0.00000  Uiso   1.00
C849   C     0.13447   0.60325   0.54191   0.00000  Uiso   1.00
C850   C     0.35784   0.88765   0.45762   0.00000  Uiso   1.00
C851   C     0.09986   0.83610   0.49893   0.00000  Uiso   1.00
C852   C     0.39991   0.66437   0.49859   0.00000  Uiso   1.00
C853   C     0.40199   0.83795   0.50252   0.00000  Uiso   1.00
C854   C     0.10051   0.66491   0.50228   0.00000  Uiso   1.00
C855   C     0.34868   0.58804   0.49966   0.00000  Uiso   1.00
C856   C     0.15110   0.91233   0.49860   0.00000  Uiso   1.00
C857   C     0.15185   0.58851   0.49955   0.00000  Uiso   1.00
C858   C     0.06244   0.80607   0.49989   0.00000  Uiso   1.00
C859   C     0.34798   0.91178   0.49852   0.00000  Uiso   1.00
C860   C     0.39319   0.66852   0.41110   0.00000  Uiso   1.00
C861   C     0.12709   0.82334   0.58070   0.00000  Uiso   1.00
C862   C     0.10876   0.82797   0.41207   0.00000  Uiso   1.00
C863   C     0.37273   0.68040   0.57991   0.00000  Uiso   1.00
C864   C     0.11926   0.66853   0.58998   0.00000  Uiso   1.00
C865   C     0.37360   0.81307   0.42541   0.00000  Uiso   1.00
C866   C     0.40314   0.84657   0.59116   0.00000  Uiso   1.00
C867   C     0.12709   0.68316   0.42259   0.00000  Uiso   1.00
C868   C     0.14262   0.91758   0.41128   0.00000  Uiso   1.00
C869   C     0.31175   0.94306   0.49963   0.00000  Uiso   1.00
C870   C     0.37417   0.57904   0.58381   0.00000  Uiso   1.00
C871   C     0.35823   0.58021   0.41272   0.00000  Uiso   1.00
C872   C     0.12375   0.92624   0.58039   0.00000  Uiso   1.00
C873   C     0.37210   0.93577   0.57707   0.00000  Uiso   1.00
C874   C     0.13621   0.58457   0.41309   0.00000  Uiso   1.00
C875   C     0.12724   0.57163   0.58053   0.00000  Uiso   1.00
C876   C     0.35565   0.90899   0.41126   0.00000  Uiso   1.00
C877   C     0.18792   0.55671   0.49989   0.00000  Uiso   1.00
C878   C     0.18781   0.94343   0.49975   0.00000  Uiso   1.00
C879   C     0.31220   0.55660   0.50005   0.00000  Uiso   1.00
C880   C     0.00086   0.71090   0.35787   0.00000  Uiso   1.00
Cu881  Cu    0.00000   0.75000   0.54689   0.00000  Uiso   1.00
Cu882  Cu   -0.00000   0.75000   0.45311   0.00000  Uiso   1.00
Cu883  Cu    0.25000   0.50000   0.54689   0.00000  Uiso   1.00
Cu884  Cu    0.25000   0.50000   0.45311   0.00000  Uiso   1.00
H885   H     0.41462   0.66645   0.34521   0.00000  Uiso   1.00
H886   H     0.40970   0.57225   0.64197   0.00000  Uiso   1.00
H887   H     0.33752   0.57800   0.34650   0.00000  Uiso   1.00
H888   H     0.09262   0.93473   0.64120   0.00000  Uiso   1.00
H889   H     0.34618   0.96235   0.63435   0.00000  Uiso   1.00
H890   H     0.11818   0.58717   0.34614   0.00000  Uiso   1.00
H891   H     0.15161   0.53618   0.63356   0.00000  Uiso   1.00
H892   H     0.36563   0.96460   0.37450   0.00000  Uiso   1.00
H893   H     0.15874   0.81538   0.64125   0.00000  Uiso   1.00
H894   H     0.08801   0.82613   0.34588   0.00000  Uiso   1.00
H895   H     0.34400   0.69019   0.64191   0.00000  Uiso   1.00
H896   H     0.15593   0.67734   0.64707   0.00000  Uiso   1.00
H897   H     0.39238   0.78547   0.36490   0.00000  Uiso   1.00
H898   H     0.42209   0.86108   0.65651   0.00000  Uiso   1.00
H899   H     0.17105   0.72097   0.39045   0.00000  Uiso   1.00
H900   H     0.16274   0.91752   0.34487   0.00000  Uiso   1.00
N901   N     0.00000   0.75000   0.61736   0.00000  Uiso   1.00
N902   N     0.00000   0.75000   0.38264   0.00000  Uiso   1.00
N903   N     0.25000   0.50000   0.61736   0.00000  Uiso   1.00
N904   N     0.25000   0.50000   0.38264   0.00000  Uiso   1.00
O905   O     0.04508   0.70491   0.53958   0.00000  Uiso   1.00
O906   O     0.20491   0.54509   0.46042   0.00000  Uiso   1.00
O907   O     0.20491   0.54509   0.53958   0.00000  Uiso   1.00
O908   O     0.29508   0.95491   0.46042   0.00000  Uiso   1.00
O909   O     0.20491   0.95491   0.46042   0.00000  Uiso   1.00
O910   O     0.29508   0.54509   0.53958   0.00000  Uiso   1.00
O911   O     0.29508   0.54509   0.46042   0.00000  Uiso   1.00
O912   O     0.20491   0.95491   0.53958   0.00000  Uiso   1.00
O913   O     0.38276   0.70734   0.40749   0.00000  Uiso   1.00
O914   O     0.41099   0.64642   0.37310   0.00000  Uiso   1.00
O915   O     0.11789   0.78401   0.57936   0.00000  Uiso   1.00
O916   O     0.45491   0.79509   0.46042   0.00000  Uiso   1.00
O917   O     0.15168   0.83922   0.61774   0.00000  Uiso   1.00
O918   O     0.11991   0.78920   0.41058   0.00000  Uiso   1.00
O919   O     0.09081   0.84764   0.37285   0.00000  Uiso   1.00
O920   O     0.38131   0.71977   0.57681   0.00000  Uiso   1.00
O921   O     0.34998   0.66563   0.61866   0.00000  Uiso   1.00
O922   O     0.09451   0.69688   0.60335   0.00000  Uiso   1.00
O923   O     0.15465   0.65875   0.61768   0.00000  Uiso   1.00
O924   O     0.34291   0.78836   0.42856   0.00000  Uiso   1.00
O925   O     0.40106   0.80968   0.38752   0.00000  Uiso   1.00
O926   O     0.39512   0.80820   0.60141   0.00000  Uiso   1.00
O927   O     0.45491   0.79509   0.53958   0.00000  Uiso   1.00
O928   O     0.41852   0.87566   0.62520   0.00000  Uiso   1.00
O929   O     0.09976   0.69220   0.39395   0.00000  Uiso   1.00
O930   O     0.16794   0.70106   0.41853   0.00000  Uiso   1.00
O931   O     0.13046   0.95590   0.40867   0.00000  Uiso   1.00
O932   O     0.16002   0.89675   0.37229   0.00000  Uiso   1.00
O933   O     0.35885   0.54229   0.58906   0.00000  Uiso   1.00
O934   O     0.40411   0.59430   0.61618   0.00000  Uiso   1.00
O935   O     0.37253   0.54270   0.41045   0.00000  Uiso   1.00
O936   O     0.33893   0.59919   0.37387   0.00000  Uiso   1.00
O937   O     0.13247   0.96565   0.57868   0.00000  Uiso   1.00
O938   O     0.04508   0.70491   0.46042   0.00000  Uiso   1.00
O939   O     0.09966   0.91063   0.61778   0.00000  Uiso   1.00
O940   O     0.39985   0.96409   0.57501   0.00000  Uiso   1.00
O941   O     0.34396   0.93474   0.61445   0.00000  Uiso   1.00
O942   O     0.13444   0.54416   0.41327   0.00000  Uiso   1.00
O943   O     0.13014   0.60700   0.37130   0.00000  Uiso   1.00
O944   O     0.09170   0.55599   0.58595   0.00000  Uiso   1.00
O945   O     0.15993   0.56052   0.61114   0.00000  Uiso   1.00
O946   O     0.34818   0.88736   0.37616   0.00000  Uiso   1.00
O947   O     0.36552   0.95390   0.40770   0.00000  Uiso   1.00
O948   O     0.45491   0.70491   0.46042   0.00000  Uiso   1.00
O949   O     0.04508   0.79509   0.53958   0.00000  Uiso   1.00
O950   O     0.04508   0.79509   0.46042   0.00000  Uiso   1.00
O951   O     0.45491   0.70491   0.53958   0.00000  Uiso   1.00
O952   O     0.29508   0.95491   0.53958   0.00000  Uiso   1.00
Br953  Br    0.50532   0.65453   0.38904   0.00000  Uiso   1.00
Br954  Br    0.50922   0.84511   0.61158   0.00000  Uiso   1.00
Br955  Br    0.99611   0.84554   0.38995   0.00000  Uiso   1.00
Br956  Br    0.99818   0.65443   0.61012   0.00000  Uiso   1.00
Br957  Br    0.75230   0.90471   0.38940   0.00000  Uiso   1.00
Br958  Br    0.75356   0.59556   0.61096   0.00000  Uiso   1.00
Br959  Br    0.74441   0.59549   0.38963   0.00000  Uiso   1.00
Br960  Br    0.74726   0.90440   0.61023   0.00000  Uiso   1.00
C961   C     0.56276   0.69441   0.50049   0.00000  Uiso   1.00
C962   C     0.50153   0.78904   0.64224   0.00000  Uiso   1.00
C963   C     0.99964   0.78908   0.35823   0.00000  Uiso   1.00
C964   C     0.99951   0.71090   0.64181   0.00000  Uiso   1.00
C965   C     0.75044   0.96094   0.35790   0.00000  Uiso   1.00
C966   C     0.75065   0.53909   0.64214   0.00000  Uiso   1.00
C967   C     0.74913   0.53909   0.35817   0.00000  Uiso   1.00
C968   C     0.74938   0.96090   0.64185   0.00000  Uiso   1.00
C969   C     0.88647   0.64520   0.45602   0.00000  Uiso   1.00
C970   C     0.61680   0.85312   0.54077   0.00000  Uiso   1.00
C971   C     0.61417   0.85359   0.45603   0.00000  Uiso   1.00
C972   C     0.93821   0.80681   0.50054   0.00000  Uiso   1.00
C973   C     0.88194   0.64927   0.54050   0.00000  Uiso   1.00
C974   C     0.61404   0.64444   0.54446   0.00000  Uiso   1.00
C975   C     0.88010   0.84773   0.46126   0.00000  Uiso   1.00
C976   C     0.89329   0.86299   0.54355   0.00000  Uiso   1.00
C977   C     0.61874   0.65074   0.46013   0.00000  Uiso   1.00
C978   C     0.63760   0.89328   0.45578   0.00000  Uiso   1.00
C979   C     0.86465   0.60646   0.54169   0.00000  Uiso   1.00
C980   C     0.86285   0.60572   0.45663   0.00000  Uiso   1.00
C981   C     0.63401   0.89598   0.54059   0.00000  Uiso   1.00
C982   C     0.86933   0.90190   0.54002   0.00000  Uiso   1.00
C983   C     0.93750   0.69408   0.49975   0.00000  Uiso   1.00
C984   C     0.63926   0.60957   0.45781   0.00000  Uiso   1.00
C985   C     0.63447   0.60325   0.54191   0.00000  Uiso   1.00
C986   C     0.85784   0.88765   0.45762   0.00000  Uiso   1.00
C987   C     0.59986   0.83610   0.49893   0.00000  Uiso   1.00
C988   C     0.89991   0.66437   0.49859   0.00000  Uiso   1.00
C989   C     0.90199   0.83795   0.50252   0.00000  Uiso   1.00
C990   C     0.60051   0.66491   0.50228   0.00000  Uiso   1.00
C991   C     0.84868   0.58804   0.49966   0.00000  Uiso   1.00
C992   C     0.65110   0.91233   0.49860   0.00000  Uiso   1.00
C993   C     0.65185   0.58851   0.49955   0.00000  Uiso   1.00
C994   C     0.56244   0.80607   0.49989   0.00000  Uiso   1.00
C995   C     0.84798   0.91178   0.49852   0.00000  Uiso   1.00
C996   C     0.89319   0.66852   0.41110   0.00000  Uiso   1.00
C997   C     0.62709   0.82334   0.58070   0.00000  Uiso   1.00
C998   C     0.60876   0.82797   0.41207   0.00000  Uiso   1.00
C999   C     0.87273   0.68040   0.57991   0.00000  Uiso   1.00
C1000  C     0.61926   0.66853   0.58998   0.00000  Uiso   1.00
C1001  C     0.87360   0.81307   0.42541   0.00000  Uiso   1.00
C1002  C     0.90314   0.84657   0.59116   0.00000  Uiso   1.00
C1003  C     0.62709   0.68316   0.42259   0.00000  Uiso   1.00
C1004  C     0.64262   0.91758   0.41128   0.00000  Uiso   1.00
C1005  C     0.81175   0.94306   0.49963   0.00000  Uiso   1.00
C1006  C     0.87417   0.57904   0.58381   0.00000  Uiso   1.00
C1007  C     0.85823   0.58021   0.41272   0.00000  Uiso   1.00
C1008  C     0.62375   0.92624   0.58039   0.00000  Uiso   1.00
C1009  C     0.87210   0.93577   0.57707   0.00000  Uiso   1.00
C1010  C     0.63621   0.58457   0.41309   0.00000  Uiso   1.00
C1011  C     0.62724   0.57163   0.58053   0.00000  Uiso   1.00
C1012  C     0.85565   0.90899   0.41126   0.00000  Uiso   1.00
C1013  C     0.68792   0.55671   0.49989   0.00000  Uiso   1.00
C1014  C     0.68781   0.94343   0.49975   0.00000  Uiso   1.00
C1015  C     0.81220   0.55660   0.50005   0.00000  Uiso   1.00
C1016  C     0.50086   0.71090   0.35787   0.00000  Uiso   1.00
Cu1017 Cu    0.50000   0.75000   0.54689   0.00000  Uiso   1.00
Cu1018 Cu    0.50000   0.75000   0.45311   0.00000  Uiso   1.00
Cu1019 Cu    0.75000   0.50000   0.54689   0.00000  Uiso   1.00
Cu1020 Cu    0.75000   0.50000   0.45311   0.00000  Uiso   1.00
H1021  H     0.91462   0.66645   0.34521   0.00000  Uiso   1.00
H1022  H     0.90970   0.57225   0.64197   0.00000  Uiso   1.00
H1023  H     0.83752   0.57800   0.34650   0.00000  Uiso   1.00
H1024  H     0.59262   0.93473   0.64120   0.00000  Uiso   1.00
H1025  H     0.84618   0.96235   0.63435   0.00000  Uiso   1.00
H1026  H     0.61818   0.58717   0.34614   0.00000  Uiso   1.00
H1027  H     0.65161   0.53618   0.63356   0.00000  Uiso   1.00
H1028  H     0.86563   0.96460   0.37450   0.00000  Uiso   1.00
H1029  H     0.65874   0.81538   0.64125   0.00000  Uiso   1.00
H1030  H     0.58801   0.82613   0.34588   0.00000  Uiso   1.00
H1031  H     0.84400   0.69019   0.64191   0.00000  Uiso   1.00
H1032  H     0.65593   0.67734   0.64707   0.00000  Uiso   1.00
H1033  H     0.89238   0.78547   0.36490   0.00000  Uiso   1.00
H1034  H     0.92209   0.86108   0.65651   0.00000  Uiso   1.00
H1035  H     0.67105   0.72097   0.39045   0.00000  Uiso   1.00
H1036  H     0.66274   0.91752   0.34487   0.00000  Uiso   1.00
N1037  N     0.50000   0.75000   0.61736   0.00000  Uiso   1.00
N1038  N     0.50000   0.75000   0.38264   0.00000  Uiso   1.00
N1039  N     0.75000   0.50000   0.61736   0.00000  Uiso   1.00
N1040  N     0.75000   0.50000   0.38264   0.00000  Uiso   1.00
O1041  O     0.54508   0.70491   0.53958   0.00000  Uiso   1.00
O1042  O     0.70491   0.54509   0.46042   0.00000  Uiso   1.00
O1043  O     0.70491   0.54509   0.53958   0.00000  Uiso   1.00
O1044  O     0.79508   0.95491   0.46042   0.00000  Uiso   1.00
O1045  O     0.70491   0.95491   0.46042   0.00000  Uiso   1.00
O1046  O     0.79508   0.54509   0.53958   0.00000  Uiso   1.00
O1047  O     0.79508   0.54509   0.46042   0.00000  Uiso   1.00
O1048  O     0.70491   0.95491   0.53958   0.00000  Uiso   1.00
O1049  O     0.88276   0.70734   0.40749   0.00000  Uiso   1.00
O1050  O     0.91099   0.64642   0.37310   0.00000  Uiso   1.00
O1051  O     0.61789   0.78401   0.57936   0.00000  Uiso   1.00
O1052  O     0.95491   0.79509   0.46042   0.00000  Uiso   1.00
O1053  O     0.65168   0.83922   0.61774   0.00000  Uiso   1.00
O1054  O     0.61991   0.78920   0.41058   0.00000  Uiso   1.00
O1055  O     0.59081   0.84764   0.37285   0.00000  Uiso   1.00
O1056  O     0.88131   0.71977   0.57681   0.00000  Uiso   1.00
O1057  O     0.84998   0.66563   0.61866   0.00000  Uiso   1.00
O1058  O     0.59451   0.69688   0.60335   0.00000  Uiso   1.00
O1059  O     0.65465   0.65875   0.61768   0.00000  Uiso   1.00
O1060  O     0.84291   0.78836   0.42856   0.00000  Uiso   1.00
O1061  O     0.90106   0.80968   0.38752   0.00000  Uiso   1.00
O1062  O     0.89512   0.80820   0.60141   0.00000  Uiso   1.00
O1063  O     0.95491   0.79509   0.53958   0.00000  Uiso   1.00
O1064  O     0.91852   0.87566   0.62520   0.00000  Uiso   1.00
O1065  O     0.59976   0.69220   0.39395   0.00000  Uiso   1.00
O1066  O     0.66794   0.70106   0.41853   0.00000  Uiso   1.00
O1067  O     0.63046   0.95590   0.40867   0.00000  Uiso   1.00
O1068  O     0.66002   0.89675   0.37229   0.00000  Uiso   1.00
O1069  O     0.85885   0.54229   0.58906   0.00000  Uiso   1.00
O1070  O     0.90411   0.59430   0.61618   0.00000  Uiso   1.00
O1071  O     0.87253   0.54270   0.41045   0.00000  Uiso   1.00
O1072  O     0.83893   0.59919   0.37387   0.00000  Uiso   1.00
O1073  O     0.63247   0.96565   0.57868   0.00000  Uiso   1.00
O1074  O     0.54508   0.70491   0.46042   0.00000  Uiso   1.00
O1075  O     0.59966   0.91063   0.61778   0.00000  Uiso   1.00
O1076  O     0.89985   0.96409   0.57501   0.00000  Uiso   1.00
O1077  O     0.84396   0.93474   0.61445   0.00000  Uiso   1.00
O1078  O     0.63444   0.54416   0.41327   0.00000  Uiso   1.00
O1079  O     0.63014   0.60700   0.37130   0.00000  Uiso   1.00
O1080  O     0.59170   0.55599   0.58595   0.00000  Uiso   1.00
O1081  O     0.65993   0.56052   0.61114   0.00000  Uiso   1.00
O1082  O     0.84818   0.88736   0.37616   0.00000  Uiso   1.00
O1083  O     0.86552   0.95390   0.40770   0.00000  Uiso   1.00
O1084  O     0.95491   0.70491   0.46042   0.00000  Uiso   1.00
O1085  O     0.54508   0.79509   0.53958   0.00000  Uiso   1.00
O1086  O     0.54508   0.79509   0.46042   0.00000  Uiso   1.00
O1087  O     0.95491   0.70491   0.53958   0.00000  Uiso   1.00
O1088  O     0.79508   0.95491   0.53958   0.00000  Uiso   1.00
Br1089 Br    0.00532   0.15453   0.72237   0.00000  Uiso   1.00
Br1090 Br    0.00922   0.34511   0.94491   0.00000  Uiso   1.00
Br1091 Br    0.49611   0.34554   0.72329   0.00000  Uiso   1.00
Br1092 Br    0.49818   0.15443   0.94345   0.00000  Uiso   1.00
Br1093 Br    0.25230   0.40471   0.72273   0.00000  Uiso   1.00
Br1094 Br    0.25356   0.09556   0.94429   0.00000  Uiso   1.00
Br1095 Br    0.24441   0.09549   0.72296   0.00000  Uiso   1.00
Br1096 Br    0.24726   0.40440   0.94357   0.00000  Uiso   1.00
C1097  C     0.06276   0.19441   0.83382   0.00000  Uiso   1.00
C1098  C     0.00153   0.28904   0.97557   0.00000  Uiso   1.00
C1099  C     0.49964   0.28908   0.69157   0.00000  Uiso   1.00
C1100  C     0.49951   0.21090   0.97515   0.00000  Uiso   1.00
C1101  C     0.25044   0.46094   0.69124   0.00000  Uiso   1.00
C1102  C     0.25065   0.03909   0.97548   0.00000  Uiso   1.00
C1103  C     0.24913   0.03909   0.69150   0.00000  Uiso   1.00
C1104  C     0.24938   0.46090   0.97518   0.00000  Uiso   1.00
C1105  C     0.38647   0.14520   0.78935   0.00000  Uiso   1.00
C1106  C     0.11680   0.35312   0.87411   0.00000  Uiso   1.00
C1107  C     0.11417   0.35359   0.78936   0.00000  Uiso   1.00
C1108  C     0.43821   0.30681   0.83387   0.00000  Uiso   1.00
C1109  C     0.38194   0.14927   0.87384   0.00000  Uiso   1.00
C1110  C     0.11404   0.14444   0.87780   0.00000  Uiso   1.00
C1111  C     0.38010   0.34773   0.79460   0.00000  Uiso   1.00
C1112  C     0.39329   0.36299   0.87688   0.00000  Uiso   1.00
C1113  C     0.11874   0.15074   0.79346   0.00000  Uiso   1.00
C1114  C     0.13760   0.39328   0.78911   0.00000  Uiso   1.00
C1115  C     0.36465   0.10646   0.87502   0.00000  Uiso   1.00
C1116  C     0.36285   0.10572   0.78997   0.00000  Uiso   1.00
C1117  C     0.13401   0.39598   0.87392   0.00000  Uiso   1.00
C1118  C     0.36933   0.40190   0.87335   0.00000  Uiso   1.00
C1119  C     0.43750   0.19408   0.83308   0.00000  Uiso   1.00
C1120  C     0.13926   0.10957   0.79115   0.00000  Uiso   1.00
C1121  C     0.13447   0.10325   0.87525   0.00000  Uiso   1.00
C1122  C     0.35784   0.38765   0.79095   0.00000  Uiso   1.00
C1123  C     0.09986   0.33610   0.83226   0.00000  Uiso   1.00
C1124  C     0.39991   0.16437   0.83192   0.00000  Uiso   1.00
C1125  C     0.40199   0.33795   0.83585   0.00000  Uiso   1.00
C1126  C     0.10051   0.16491   0.83561   0.00000  Uiso   1.00
C1127  C     0.34868   0.08804   0.83299   0.00000  Uiso   1.00
C1128  C     0.15110   0.41233   0.83193   0.00000  Uiso   1.00
C1129  C     0.15185   0.08851   0.83289   0.00000  Uiso   1.00
C1130  C     0.06244   0.30607   0.83322   0.00000  Uiso   1.00
C1131  C     0.34798   0.41178   0.83186   0.00000  Uiso   1.00
C1132  C     0.39319   0.16852   0.74443   0.00000  Uiso   1.00
C1133  C     0.12709   0.32334   0.91403   0.00000  Uiso   1.00
C1134  C     0.10876   0.32797   0.74541   0.00000  Uiso   1.00
C1135  C     0.37273   0.18040   0.91324   0.00000  Uiso   1.00
C1136  C     0.11926   0.16853   0.92332   0.00000  Uiso   1.00
C1137  C     0.37360   0.31307   0.75874   0.00000  Uiso   1.00
C1138  C     0.40314   0.34657   0.92449   0.00000  Uiso   1.00
C1139  C     0.12709   0.18316   0.75592   0.00000  Uiso   1.00
C1140  C     0.14262   0.41758   0.74462   0.00000  Uiso   1.00
C1141  C     0.31175   0.44306   0.83296   0.00000  Uiso   1.00
C1142  C     0.37417   0.07904   0.91714   0.00000  Uiso   1.00
C1143  C     0.35823   0.08021   0.74605   0.00000  Uiso   1.00
C1144  C     0.12375   0.42624   0.91372   0.00000  Uiso   1.00
C1145  C     0.37210   0.43577   0.91041   0.00000  Uiso   1.00
C1146  C     0.13621   0.08457   0.74643   0.00000  Uiso   1.00
C1147  C     0.12724   0.07163   0.91386   0.00000  Uiso   1.00
C1148  C     0.35565   0.40899   0.74459   0.00000  Uiso   1.00
C1149  C     0.18792   0.05671   0.83322   0.00000  Uiso   1.00
C1150  C     0.18781   0.44343   0.83308   0.00000  Uiso   1.00
C1151  C     0.31220   0.05660   0.83338   0.00000  Uiso   1.00
C1152  C     0.00086   0.21090   0.69120   0.00000  Uiso   1.00
Cu1153 Cu    0.00000   0.25000   0.88022   0.00000  Uiso   1.00
Cu1154 Cu   -0.00000   0.25000   0.78645   0.00000  Uiso   1.00
Cu1155 Cu    0.25000   0.00000   0.88022   0.00000  Uiso   1.00
Cu1156 Cu    0.25000   0.00000   0.78645   0.00000  Uiso   1.00
H1157  H     0.41462   0.16645   0.67854   0.00000  Uiso   1.00
H1158  H     0.40970   0.07225   0.97530   0.00000  Uiso   1.00
H1159  H     0.33752   0.07800   0.67984   0.00000  Uiso   1.00
H1160  H     0.09262   0.43473   0.97454   0.00000  Uiso   1.00
H1161  H     0.34618   0.46235   0.96768   0.00000  Uiso   1.00
H1162  H     0.11818   0.08717   0.67947   0.00000  Uiso   1.00
H1163  H     0.15161   0.03618   0.96689   0.00000  Uiso   1.00
H1164  H     0.36563   0.46460   0.70783   0.00000  Uiso   1.00
H1165  H     0.15874   0.31538   0.97459   0.00000  Uiso   1.00
H1166  H     0.08801   0.32613   0.67922   0.00000  Uiso   1.00
H1167  H     0.34400   0.19019   0.97524   0.00000  Uiso   1.00
H1168  H     0.15593   0.17734   0.98040   0.00000  Uiso   1.00
H1169  H     0.39238   0.28547   0.69823   0.00000  Uiso   1.00
H1170  H     0.42209   0.36108   0.98985   0.00000  Uiso   1.00
H1171  H     0.17105   0.22097   0.72378   0.00000  Uiso   1.00
H1172  H     0.16274   0.41752   0.67820   0.00000  Uiso   1.00
N1173  N     0.00000   0.25000   0.95069   0.00000  Uiso   1.00
N1174  N     0.00000   0.25000   0.71598   0.00000  Uiso   1.00
N1175  N     0.25000   0.00000   0.95069   0.00000  Uiso   1.00
N1176  N     0.25000   0.00000   0.71598   0.00000  Uiso   1.00
O1177  O     0.04508   0.20491   0.87291   0.00000  Uiso   1.00
O1178  O     0.20491   0.04509   0.79375   0.00000  Uiso   1.00
O1179  O     0.20491   0.04509   0.87291   0.00000  Uiso   1.00
O1180  O     0.29508   0.45491   0.79375   0.00000  Uiso   1.00
O1181  O     0.20491   0.45491   0.79375   0.00000  Uiso   1.00
O1182  O     0.29508   0.04509   0.87291   0.00000  Uiso   1.00
O1183  O     0.29508   0.04509   0.79375   0.00000  Uiso   1.00
O1184  O     0.20491   0.45491   0.87291   0.00000  Uiso   1.00
O1185  O     0.38276   0.20734   0.74083   0.00000  Uiso   1.00
O1186  O     0.41099   0.14642   0.70644   0.00000  Uiso   1.00
O1187  O     0.11789   0.28401   0.91269   0.00000  Uiso   1.00
O1188  O     0.45491   0.29509   0.79375   0.00000  Uiso   1.00
O1189  O     0.15168   0.33922   0.95108   0.00000  Uiso   1.00
O1190  O     0.11991   0.28920   0.74391   0.00000  Uiso   1.00
O1191  O     0.09081   0.34764   0.70618   0.00000  Uiso   1.00
O1192  O     0.38131   0.21977   0.91014   0.00000  Uiso   1.00
O1193  O     0.34998   0.16563   0.95199   0.00000  Uiso   1.00
O1194  O     0.09451   0.19688   0.93668   0.00000  Uiso   1.00
O1195  O     0.15465   0.15875   0.95101   0.00000  Uiso   1.00
O1196  O     0.34291   0.28836   0.76189   0.00000  Uiso   1.00
O1197  O     0.40106   0.30968   0.72086   0.00000  Uiso   1.00
O1198  O     0.39512   0.30820   0.93475   0.00000  Uiso   1.00
O1199  O     0.45491   0.29509   0.87291   0.00000  Uiso   1.00
O1200  O     0.41852   0.37566   0.95853   0.00000  Uiso   1.00
O1201  O     0.09976   0.19220   0.72729   0.00000  Uiso   1.00
O1202  O     0.16794   0.20106   0.75186   0.00000  Uiso   1.00
O1203  O     0.13046   0.45590   0.74200   0.00000  Uiso   1.00
O1204  O     0.16002   0.39675   0.70562   0.00000  Uiso   1.00
O1205  O     0.35885   0.04229   0.92239   0.00000  Uiso   1.00
O1206  O     0.40411   0.09430   0.94951   0.00000  Uiso   1.00
O1207  O     0.37253   0.04270   0.74379   0.00000  Uiso   1.00
O1208  O     0.33893   0.09919   0.70720   0.00000  Uiso   1.00
O1209  O     0.13247   0.46565   0.91201   0.00000  Uiso   1.00
O1210  O     0.04508   0.20491   0.79375   0.00000  Uiso   1.00
O1211  O     0.09966   0.41063   0.95111   0.00000  Uiso   1.00
O1212  O     0.39985   0.46409   0.90834   0.00000  Uiso   1.00
O1213  O     0.34396   0.43474   0.94779   0.00000  Uiso   1.00
O1214  O     0.13444   0.04416   0.74661   0.00000  Uiso   1.00
O1215  O     0.13014   0.10700   0.70464   0.00000  Uiso   1.00
O1216  O     0.09170   0.05599   0.91928   0.00000  Uiso   1.00
O1217  O     0.15993   0.06052   0.94448   0.00000  Uiso   1.00
O1218  O     0.34818   0.38736   0.70949   0.00000  Uiso   1.00
O1219  O     0.36552   0.45390   0.74103   0.00000  Uiso   1.00
O1220  O     0.45491   0.20491   0.79375   0.00000  Uiso   1.00
O1221  O     0.04508   0.29509   0.87291   0.00000  Uiso   1.00
O1222  O     0.04508   0.29509   0.79375   0.00000  Uiso   1.00
O1223  O     0.45491   0.20491   0.87291   0.00000  Uiso   1.00
O1224  O     0.29508   0.45491   0.87291   0.00000  Uiso   1.00
Br1225 Br    0.50532   0.15453   0.72237   0.00000  Uiso   1.00
Br1226 Br    0.50922   0.34511   0.94491   0.00000  Uiso   1.00
Br1227 Br    0.99611   0.34554   0.72329   0.00000  Uiso   1.00
Br1228 Br    0.99818   0.15443   0.94345   0.00000  Uiso   1.00
Br1229 Br    0.75230   0.40471   0.72273   0.00000  Uiso   1.00
Br1230 Br    0.75356   0.09556   0.94429   0.00000  Uiso   1.00
Br1231 Br    0.74441   0.09549   0.72296   0.00000  Uiso   1.00
Br1232 Br    0.74726   0.40440   0.94357   0.00000  Uiso   1.00
C1233  C     0.56276   0.19441   0.83382   0.00000  Uiso   1.00
C1234  C     0.50153   0.28904   0.97557   0.00000  Uiso   1.00
C1235  C     0.99964   0.28908   0.69157   0.00000  Uiso   1.00
C1236  C     0.99951   0.21090   0.97515   0.00000  Uiso   1.00
C1237  C     0.75044   0.46094   0.69124   0.00000  Uiso   1.00
C1238  C     0.75065   0.03909   0.97548   0.00000  Uiso   1.00
C1239  C     0.74913   0.03909   0.69150   0.00000  Uiso   1.00
C1240  C     0.74938   0.46090   0.97518   0.00000  Uiso   1.00
C1241  C     0.88647   0.14520   0.78935   0.00000  Uiso   1.00
C1242  C     0.61680   0.35312   0.87411   0.00000  Uiso   1.00
C1243  C     0.61417   0.35359   0.78936   0.00000  Uiso   1.00
C1244  C     0.93821   0.30681   0.83387   0.00000  Uiso   1.00
C1245  C     0.88194   0.14927   0.87384   0.00000  Uiso   1.00
C1246  C     0.61404   0.14444   0.87780   0.00000  Uiso   1.00
C1247  C     0.88010   0.34773   0.79460   0.00000  Uiso   1.00
C1248  C     0.89329   0.36299   0.87688   0.00000  Uiso   1.00
C1249  C     0.61874   0.15074   0.79346   0.00000  Uiso   1.00
C1250  C     0.63760   0.39328   0.78911   0.00000  Uiso   1.00
C1251  C     0.86465   0.10646   0.87502   0.00000  Uiso   1.00
C1252  C     0.86285   0.10572   0.78997   0.00000  Uiso   1.00
C1253  C     0.63401   0.39598   0.87392   0.00000  Uiso   1.00
C1254  C     0.86933   0.40190   0.87335   0.00000  Uiso   1.00
C1255  C     0.93750   0.19408   0.83308   0.00000  Uiso   1.00
C1256  C     0.63926   0.10957   0.79115   0.00000  Uiso   1.00
C1257  C     0.63447   0.10325   0.87525   0.00000  Uiso   1.00
C1258  C     0.85784   0.38765   0.79095   0.00000  Uiso   1.00
C1259  C     0.59986   0.33610   0.83226   0.00000  Uiso   1.00
C1260  C     0.89991   0.16437   0.83192   0.00000  Uiso   1.00
C1261  C     0.90199   0.33795   0.83585   0.00000  Uiso   1.00
C1262  C     0.60051   0.16491   0.83561   0.00000  Uiso   1.00
C1263  C     0.84868   0.08804   0.83299   0.00000  Uiso   1.00
C1264  C     0.65110   0.41233   0.83193   0.00000  Uiso   1.00
C1265  C     0.65185   0.08851   0.83289   0.00000  Uiso   1.00
C1266  C     0.56244   0.30607   0.83322   0.00000  Uiso   1.00
C1267  C     0.84798   0.41178   0.83186   0.00000  Uiso   1.00
C1268  C     0.89319   0.16852   0.74443   0.00000  Uiso   1.00
C1269  C     0.62709   0.32334   0.91403   0.00000  Uiso   1.00
C1270  C     0.60876   0.32797   0.74541   0.00000  Uiso   1.00
C1271  C     0.87273   0.18040   0.91324   0.00000  Uiso   1.00
C1272  C     0.61926   0.16853   0.92332   0.00000  Uiso   1.00
C1273  C     0.87360   0.31307   0.75874   0.00000  Uiso   1.00
C1274  C     0.90314   0.34657   0.92449   0.00000  Uiso   1.00
C1275  C     0.62709   0.18316   0.75592   0.00000  Uiso   1.00
C1276  C     0.64262   0.41758   0.74462   0.00000  Uiso   1.00
C1277  C     0.81175   0.44306   0.83296   0.00000  Uiso   1.00
C1278  C     0.87417   0.07904   0.91714   0.00000  Uiso   1.00
C1279  C     0.85823   0.08021   0.74605   0.00000  Uiso   1.00
C1280  C     0.62375   0.42624   0.91372   0.00000  Uiso   1.00
C1281  C     0.87210   0.43577   0.91041   0.00000  Uiso   1.00
C1282  C     0.63621   0.08457   0.74643   0.00000  Uiso   1.00
C1283  C     0.62724   0.07163   0.91386   0.00000  Uiso   1.00
C1284  C     0.85565   0.40899   0.74459   0.00000  Uiso   1.00
C1285  C     0.68792   0.05671   0.83322   0.00000  Uiso   1.00
C1286  C     0.68781   0.44343   0.83308   0.00000  Uiso   1.00
C1287  C     0.81220   0.05660   0.83338   0.00000  Uiso   1.00
C1288  C     0.50086   0.21090   0.69120   0.00000  Uiso   1.00
Cu1289 Cu    0.50000   0.25000   0.88022   0.00000  Uiso   1.00
Cu1290 Cu    0.50000   0.25000   0.78645   0.00000  Uiso   1.00
Cu1291 Cu    0.75000   0.00000   0.88022   0.00000  Uiso   1.00
Cu1292 Cu    0.75000   0.00000   0.78645   0.00000  Uiso   1.00
H1293  H     0.91462   0.16645   0.67854   0.00000  Uiso   1.00
H1294  H     0.90970   0.07225   0.97530   0.00000  Uiso   1.00
H1295  H     0.83752   0.07800   0.67984   0.00000  Uiso   1.00
H1296  H     0.59262   0.43473   0.97454   0.00000  Uiso   1.00
H1297  H     0.84618   0.46235   0.96768   0.00000  Uiso   1.00
H1298  H     0.61818   0.08717   0.67947   0.00000  Uiso   1.00
H1299  H     0.65161   0.03618   0.96689   0.00000  Uiso   1.00
H1300  H     0.86563   0.46460   0.70783   0.00000  Uiso   1.00
H1301  H     0.65874   0.31538   0.97459   0.00000  Uiso   1.00
H1302  H     0.58801   0.32613   0.67922   0.00000  Uiso   1.00
H1303  H     0.84400   0.19019   0.97524   0.00000  Uiso   1.00
H1304  H     0.65593   0.17734   0.98040   0.00000  Uiso   1.00
H1305  H     0.89238   0.28547   0.69823   0.00000  Uiso   1.00
H1306  H     0.92209   0.36108   0.98985   0.00000  Uiso   1.00
H1307  H     0.67105   0.22097   0.72378   0.00000  Uiso   1.00
H1308  H     0.66274   0.41752   0.67820   0.00000  Uiso   1.00
N1309  N     0.50000   0.25000   0.95069   0.00000  Uiso   1.00
N1310  N     0.50000   0.25000   0.71598   0.00000  Uiso   1.00
N1311  N     0.75000   0.00000   0.95069   0.00000  Uiso   1.00
N1312  N     0.75000   0.00000   0.71598   0.00000  Uiso   1.00
O1313  O     0.54508   0.20491   0.87291   0.00000  Uiso   1.00
O1314  O     0.70491   0.04509   0.79375   0.00000  Uiso   1.00
O1315  O     0.70491   0.04509   0.87291   0.00000  Uiso   1.00
O1316  O     0.79508   0.45491   0.79375   0.00000  Uiso   1.00
O1317  O     0.70491   0.45491   0.79375   0.00000  Uiso   1.00
O1318  O     0.79508   0.04509   0.87291   0.00000  Uiso   1.00
O1319  O     0.79508   0.04509   0.79375   0.00000  Uiso   1.00
O1320  O     0.70491   0.45491   0.87291   0.00000  Uiso   1.00
O1321  O     0.88276   0.20734   0.74083   0.00000  Uiso   1.00
O1322  O     0.91099   0.14642   0.70644   0.00000  Uiso   1.00
O1323  O     0.61789   0.28401   0.91269   0.00000  Uiso   1.00
O1324  O     0.95491   0.29509   0.79375   0.00000  Uiso   1.00
O1325  O     0.65168   0.33922   0.95108   0.00000  Uiso   1.00
O1326  O     0.61991   0.28920   0.74391   0.00000  Uiso   1.00
O1327  O     0.59081   0.34764   0.70618   0.00000  Uiso   1.00
O1328  O     0.88131   0.21977   0.91014   0.00000  Uiso   1.00
O1329  O     0.84998   0.16563   0.95199   0.00000  Uiso   1.00
O1330  O     0.59451   0.19688   0.93668   0.00000  Uiso   1.00
O1331  O     0.65465   0.15875   0.95101   0.00000  Uiso   1.00
O1332  O     0.84291   0.28836   0.76189   0.00000  Uiso   1.00
O1333  O     0.90106   0.30968   0.72086   0.00000  Uiso   1.00
O1334  O     0.89512   0.30820   0.93475   0.00000  Uiso   1.00
O1335  O     0.95491   0.29509   0.87291   0.00000  Uiso   1.00
O1336  O     0.91852   0.37566   0.95853   0.00000  Uiso   1.00
O1337  O     0.59976   0.19220   0.72729   0.00000  Uiso   1.00
O1338  O     0.66794   0.20106   0.75186   0.00000  Uiso   1.00
O1339  O     0.63046   0.45590   0.74200   0.00000  Uiso   1.00
O1340  O     0.66002   0.39675   0.70562   0.00000  Uiso   1.00
O1341  O     0.85885   0.04229   0.92239   0.00000  Uiso   1.00
O1342  O     0.90411   0.09430   0.94951   0.00000  Uiso   1.00
O1343  O     0.87253   0.04270   0.74379   0.00000  Uiso   1.00
O1344  O     0.83893   0.09919   0.70720   0.00000  Uiso   1.00
O1345  O     0.63247   0.46565   0.91201   0.00000  Uiso   1.00
O1346  O     0.54508   0.20491   0.79375   0.00000  Uiso   1.00
O1347  O     0.59966   0.41063   0.95111   0.00000  Uiso   1.00
O1348  O     0.89985   0.46409   0.90834   0.00000  Uiso   1.00
O1349  O     0.84396   0.43474   0.94779   0.00000  Uiso   1.00
O1350  O     0.63444   0.04416   0.74661   0.00000  Uiso   1.00
O1351  O     0.63014   0.10700   0.70464   0.00000  Uiso   1.00
O1352  O     0.59170   0.05599   0.91928   0.00000  Uiso   1.00
O1353  O     0.65993   0.06052   0.94448   0.00000  Uiso   1.00
O1354  O     0.84818   0.38736   0.70949   0.00000  Uiso   1.00
O1355  O     0.86552   0.45390   0.74103   0.00000  Uiso   1.00
O1356  O     0.95491   0.20491   0.79375   0.00000  Uiso   1.00
O1357  O     0.54508   0.29509   0.87291   0.00000  Uiso   1.00
O1358  O     0.54508   0.29509   0.79375   0.00000  Uiso   1.00
O1359  O     0.95491   0.20491   0.87291   0.00000  Uiso   1.00
O1360  O     0.79508   0.45491   0.87291   0.00000  Uiso   1.00
Br1361 Br    0.00532   0.65453   0.72237   0.00000  Uiso   1.00
Br1362 Br    0.00922   0.84511   0.94491   0.00000  Uiso   1.00
Br1363 Br    0.49611   0.84554   0.72329   0.00000  Uiso   1.00
Br1364 Br    0.49818   0.65443   0.94345   0.00000  Uiso   1.00
Br1365 Br    0.25230   0.90471   0.72273   0.00000  Uiso   1.00
Br1366 Br    0.25356   0.59556   0.94429   0.00000  Uiso   1.00
Br1367 Br    0.24441   0.59549   0.72296   0.00000  Uiso   1.00
Br1368 Br    0.24726   0.90440   0.94357   0.00000  Uiso   1.00
C1369  C     0.06276   0.69441   0.83382   0.00000  Uiso   1.00
C1370  C     0.00153   0.78904   0.97557   0.00000  Uiso   1.00
C1371  C     0.49964   0.78908   0.69157   0.00000  Uiso   1.00
C1372  C     0.49951   0.71090   0.97515   0.00000  Uiso   1.00
C1373  C     0.25044   0.96094   0.69124   0.00000  Uiso   1.00
C1374  C     0.25065   0.53909   0.97548   0.00000  Uiso   1.00
C1375  C     0.24913   0.53909   0.69150   0.00000  Uiso   1.00
C1376  C     0.24938   0.96090   0.97518   0.00000  Uiso   1.00
C1377  C     0.38647   0.64520   0.78935   0.00000  Uiso   1.00
C1378  C     0.11680   0.85312   0.87411   0.00000  Uiso   1.00
C1379  C     0.11417   0.85359   0.78936   0.00000  Uiso   1.00
C1380  C     0.43821   0.80681   0.83387   0.00000  Uiso   1.00
C1381  C     0.38194   0.64927   0.87384   0.00000  Uiso   1.00
C1382  C     0.11404   0.64444   0.87780   0.00000  Uiso   1.00
C1383  C     0.38010   0.84773   0.79460   0.00000  Uiso   1.00
C1384  C     0.39329   0.86299   0.87688   0.00000  Uiso   1.00
C1385  C     0.11874   0.65074   0.79346   0.00000  Uiso   1.00
C1386  C     0.13760   0.89328   0.78911   0.00000  Uiso   1.00
C1387  C     0.36465   0.60646   0.87502   0.00000  Uiso   1.00
C1388  C     0.36285   0.60572   0.78997   0.00000  Uiso   1.00
C1389  C     0.13401   0.89598   0.87392   0.00000  Uiso   1.00
C1390  C     0.36933   0.90190   0.87335   0.00000  Uiso   1.00
C1391  C     0.43750   0.69408   0.83308   0.00000  Uiso   1.00
C1392  C     0.13926   0.60957   0.79115   0.00000  Uiso   1.00
C1393  C     0.13447   0.60325   0.87525   0.00000  Uiso   1.00
C1394  C     0.35784   0.88765   0.79095   0.00000  Uiso   1.00
C1395  C     0.09986   0.83610   0.83226   0.00000  Uiso   1.00
C1396  C     0.39991   0.66437   0.83192   0.00000  Uiso   1.00
C1397  C     0.40199   0.83795   0.83585   0.00000  Uiso   1.00
C1398  C     0.10051   0.66491   0.83561   0.00000  Uiso   1.00
C1399  C     0.34868   0.58804   0.83299   0.00000  Uiso   1.00
C1400  C     0.15110   0.91233   0.83193   0.00000  Uiso   1.00
C1401  C     0.15185   0.58851   0.83289   0.00000  Uiso   1.00
C1402  C     0.06244   0.80607   0.83322   0.00000  Uiso   1.00
C1403  C     0.34798   0.91178   0.83186   0.00000  Uiso   1.00
C1404  C     0.39319   0.66852   0.74443   0.00000  Uiso   1.00
C1405  C     0.12709   0.82334   0.91403   0.00000  Uiso   1.00
C1406  C     0.10876   0.82797   0.74541   0.00000  Uiso   1.00
C1407  C     0.37273   0.68040   0.91324   0.00000  Uiso   1.00
C1408  C     0.11926   0.66853   0.92332   0.00000  Uiso   1.00
C1409  C     0.37360   0.81307   0.75874   0.00000  Uiso   1.00
C1410  C     0.40314   0.84657   0.92449   0.00000  Uiso   1.00
C1411  C     0.12709   0.68316   0.75592   0.00000  Uiso   1.00
C1412  C     0.14262   0.91758   0.74462   0.00000  Uiso   1.00
C1413  C     0.31175   0.94306   0.83296   0.00000  Uiso   1.00
C1414  C     0.37417   0.57904   0.91714   0.00000  Uiso   1.00
C1415  C     0.35823   0.58021   0.74605   0.00000  Uiso   1.00
C1416  C     0.12375   0.92624   0.91372   0.00000  Uiso   1.00
C1417  C     0.37210   0.93577   0.91041   0.00000  Uiso   1.00
C1418  C     0.13621   0.58457   0.74643   0.00000  Uiso   1.00
C1419  C     0.12724   0.57163   0.91386   0.00000  Uiso   1.00
C1420  C     0.35565   0.90899   0.74459   0.00000  Uiso   1.00
C1421  C     0.18792   0.55671   0.83322   0.00000  Uiso   1.00
C1422  C     0.18781   0.94343   0.83308   0.00000  Uiso   1.00
C1423  C     0.31220   0.55660   0.83338   0.00000  Uiso   1.00
C1424  C     0.00086   0.71090   0.69120   0.00000  Uiso   1.00
Cu1425 Cu    0.00000   0.75000   0.88022   0.00000  Uiso   1.00
Cu1426 Cu   -0.00000   0.75000   0.78645   0.00000  Uiso   1.00
Cu1427 Cu    0.25000   0.50000   0.88022   0.00000  Uiso   1.00
Cu1428 Cu    0.25000   0.50000   0.78645   0.00000  Uiso   1.00
H1429  H     0.41462   0.66645   0.67854   0.00000  Uiso   1.00
H1430  H     0.40970   0.57225   0.97530   0.00000  Uiso   1.00
H1431  H     0.33752   0.57800   0.67984   0.00000  Uiso   1.00
H1432  H     0.09262   0.93473   0.97454   0.00000  Uiso   1.00
H1433  H     0.34618   0.96235   0.96768   0.00000  Uiso   1.00
H1434  H     0.11818   0.58717   0.67947   0.00000  Uiso   1.00
H1435  H     0.15161   0.53618   0.96689   0.00000  Uiso   1.00
H1436  H     0.36563   0.96460   0.70783   0.00000  Uiso   1.00
H1437  H     0.15874   0.81538   0.97459   0.00000  Uiso   1.00
H1438  H     0.08801   0.82613   0.67922   0.00000  Uiso   1.00
H1439  H     0.34400   0.69019   0.97524   0.00000  Uiso   1.00
H1440  H     0.15593   0.67734   0.98040   0.00000  Uiso   1.00
H1441  H     0.39238   0.78547   0.69823   0.00000  Uiso   1.00
H1442  H     0.42209   0.86108   0.98985   0.00000  Uiso   1.00
H1443  H     0.17105   0.72097   0.72378   0.00000  Uiso   1.00
H1444  H     0.16274   0.91752   0.67820   0.00000  Uiso   1.00
N1445  N     0.00000   0.75000   0.95069   0.00000  Uiso   1.00
N1446  N     0.00000   0.75000   0.71598   0.00000  Uiso   1.00
N1447  N     0.25000   0.50000   0.95069   0.00000  Uiso   1.00
N1448  N     0.25000   0.50000   0.71598   0.00000  Uiso   1.00
O1449  O     0.04508   0.70491   0.87291   0.00000  Uiso   1.00
O1450  O     0.20491   0.54509   0.79375   0.00000  Uiso   1.00
O1451  O     0.20491   0.54509   0.87291   0.00000  Uiso   1.00
O1452  O     0.29508   0.95491   0.79375   0.00000  Uiso   1.00
O1453  O     0.20491   0.95491   0.79375   0.00000  Uiso   1.00
O1454  O     0.29508   0.54509   0.87291   0.00000  Uiso   1.00
O1455  O     0.29508   0.54509   0.79375   0.00000  Uiso   1.00
O1456  O     0.20491   0.95491   0.87291   0.00000  Uiso   1.00
O1457  O     0.38276   0.70734   0.74083   0.00000  Uiso   1.00
O1458  O     0.41099   0.64642   0.70644   0.00000  Uiso   1.00
O1459  O     0.11789   0.78401   0.91269   0.00000  Uiso   1.00
O1460  O     0.45491   0.79509   0.79375   0.00000  Uiso   1.00
O1461  O     0.15168   0.83922   0.95108   0.00000  Uiso   1.00
O1462  O     0.11991   0.78920   0.74391   0.00000  Uiso   1.00
O1463  O     0.09081   0.84764   0.70618   0.00000  Uiso   1.00
O1464  O     0.38131   0.71977   0.91014   0.00000  Uiso   1.00
O1465  O     0.34998   0.66563   0.95199   0.00000  Uiso   1.00
O1466  O     0.09451   0.69688   0.93668   0.00000  Uiso   1.00
O1467  O     0.15465   0.65875   0.95101   0.00000  Uiso   1.00
O1468  O     0.34291   0.78836   0.76189   0.00000  Uiso   1.00
O1469  O     0.40106   0.80968   0.72086   0.00000  Uiso   1.00
O1470  O     0.39512   0.80820   0.93475   0.00000  Uiso   1.00
O1471  O     0.45491   0.79509   0.87291   0.00000  Uiso   1.00
O1472  O     0.41852   0.87566   0.95853   0.00000  Uiso   1.00
O1473  O     0.09976   0.69220   0.72729   0.00000  Uiso   1.00
O1474  O     0.16794   0.70106   0.75186   0.00000  Uiso   1.00
O1475  O     0.13046   0.95590   0.74200   0.00000  Uiso   1.00
O1476  O     0.16002   0.89675   0.70562   0.00000  Uiso   1.00
O1477  O     0.35885   0.54229   0.92239   0.00000  Uiso   1.00
O1478  O     0.40411   0.59430   0.94951   0.00000  Uiso   1.00
O1479  O     0.37253   0.54270   0.74379   0.00000  Uiso   1.00
O1480  O     0.33893   0.59919   0.70720   0.00000  Uiso   1.00
O1481  O     0.13247   0.96565   0.91201   0.00000  Uiso   1.00
O1482  O     0.04508   0.70491   0.79375   0.00000  Uiso   1.00
O1483  O     0.09966   0.91063   0.95111   0.00000  Uiso   1.00
O1484  O     0.39985   0.96409   0.90834   0.00000  Uiso   1.00
O1485  O     0.34396   0.93474   0.94779   0.00000  Uiso   1.00
O1486  O     0.13444   0.54416   0.74661   0.00000  Uiso   1.00
O1487  O     0.13014   0.60700   0.70464   0.00000  Uiso   1.00
O1488  O     0.09170   0.55599   0.91928   0.00000  Uiso   1.00
O1489  O     0.15993   0.56052   0.94448   0.00000  Uiso   1.00
O1490  O     0.34818   0.88736   0.70949   0.00000  Uiso   1.00
O1491  O     0.36552   0.95390   0.74103   0.00000  Uiso   1.00
O1492  O     0.45491   0.70491   0.79375   0.00000  Uiso   1.00
O1493  O     0.04508   0.79509   0.87291   0.00000  Uiso   1.00
O1494  O     0.04508   0.79509   0.79375   0.00000  Uiso   1.00
O1495  O     0.45491   0.70491   0.87291   0.00000  Uiso   1.00
O1496  O     0.29508   0.95491   0.87291   0.00000  Uiso   1.00
Br1497 Br    0.50532   0.65453   0.72237   0.00000  Uiso   1.00
Br1498 Br    0.50922   0.84511   0.94491   0.00000  Uiso   1.00
Br1499 Br    0.99611   0.84554   0.72329   0.00000  Uiso   1.00
Br1500 Br    0.99818   0.65443   0.94345   0.00000  Uiso   1.00
Br1501 Br    0.75230   0.90471   0.72273   0.00000  Uiso   1.00
Br1502 Br    0.75356   0.59556   0.94429   0.00000  Uiso   1.00
Br1503 Br    0.74441   0.59549   0.72296   0.00000  Uiso   1.00
Br1504 Br    0.74726   0.90440   0.94357   0.00000  Uiso   1.00
C1505  C     0.56276   0.69441   0.83382   0.00000  Uiso   1.00
C1506  C     0.50153   0.78904   0.97557   0.00000  Uiso   1.00
C1507  C     0.99964   0.78908   0.69157   0.00000  Uiso   1.00
C1508  C     0.99951   0.71090   0.97515   0.00000  Uiso   1.00
C1509  C     0.75044   0.96094   0.69124   0.00000  Uiso   1.00
C1510  C     0.75065   0.53909   0.97548   0.00000  Uiso   1.00
C1511  C     0.74913   0.53909   0.69150   0.00000  Uiso   1.00
C1512  C     0.74938   0.96090   0.97518   0.00000  Uiso   1.00
C1513  C     0.88647   0.64520   0.78935   0.00000  Uiso   1.00
C1514  C     0.61680   0.85312   0.87411   0.00000  Uiso   1.00
C1515  C     0.61417   0.85359   0.78936   0.00000  Uiso   1.00
C1516  C     0.93821   0.80681   0.83387   0.00000  Uiso   1.00
C1517  C     0.88194   0.64927   0.87384   0.00000  Uiso   1.00
C1518  C     0.61404   0.64444   0.87780   0.00000  Uiso   1.00
C1519  C     0.88010   0.84773   0.79460   0.00000  Uiso   1.00
C1520  C     0.89329   0.86299   0.87688   0.00000  Uiso   1.00
C1521  C     0.61874   0.65074   0.79346   0.00000  Uiso   1.00
C1522  C     0.63760   0.89328   0.78911   0.00000  Uiso   1.00
C1523  C     0.86465   0.60646   0.87502   0.00000  Uiso   1.00
C1524  C     0.86285   0.60572   0.78997   0.00000  Uiso   1.00
C1525  C     0.63401   0.89598   0.87392   0.00000  Uiso   1.00
C1526  C     0.86933   0.90190   0.87335   0.00000  Uiso   1.00
C1527  C     0.93750   0.69408   0.83308   0.00000  Uiso   1.00
C1528  C     0.63926   0.60957   0.79115   0.00000  Uiso   1.00
C1529  C     0.63447   0.60325   0.87525   0.00000  Uiso   1.00
C1530  C     0.85784   0.88765   0.79095   0.00000  Uiso   1.00
C1531  C     0.59986   0.83610   0.83226   0.00000  Uiso   1.00
C1532  C     0.89991   0.66437   0.83192   0.00000  Uiso   1.00
C1533  C     0.90199   0.83795   0.83585   0.00000  Uiso   1.00
C1534  C     0.60051   0.66491   0.83561   0.00000  Uiso   1.00
C1535  C     0.84868   0.58804   0.83299   0.00000  Uiso   1.00
C1536  C     0.65110   0.91233   0.83193   0.00000  Uiso   1.00
C1537  C     0.65185   0.58851   0.83289   0.00000  Uiso   1.00
C1538  C     0.56244   0.80607   0.83322   0.00000  Uiso   1.00
C1539  C     0.84798   0.91178   0.83186   0.00000  Uiso   1.00
C1540  C     0.89319   0.66852   0.74443   0.00000  Uiso   1.00
C1541  C     0.62709   0.82334   0.91403   0.00000  Uiso   1.00
C1542  C     0.60876   0.82797   0.74541   0.00000  Uiso   1.00
C1543  C     0.87273   0.68040   0.91324   0.00000  Uiso   1.00
C1544  C     0.61926   0.66853   0.92332   0.00000  Uiso   1.00
C1545  C     0.87360   0.81307   0.75874   0.00000  Uiso   1.00
C1546  C     0.90314   0.84657   0.92449   0.00000  Uiso   1.00
C1547  C     0.62709   0.68316   0.75592   0.00000  Uiso   1.00
C1548  C     0.64262   0.91758   0.74462   0.00000  Uiso   1.00
C1549  C     0.81175   0.94306   0.83296   0.00000  Uiso   1.00
C1550  C     0.87417   0.57904   0.91714   0.00000  Uiso   1.00
C1551  C     0.85823   0.58021   0.74605   0.00000  Uiso   1.00
C1552  C     0.62375   0.92624   0.91372   0.00000  Uiso   1.00
C1553  C     0.87210   0.93577   0.91041   0.00000  Uiso   1.00
C1554  C     0.63621   0.58457   0.74643   0.00000  Uiso   1.00
C1555  C     0.62724   0.57163   0.91386   0.00000  Uiso   1.00
C1556  C     0.85565   0.90899   0.74459   0.00000  Uiso   1.00
C1557  C     0.68792   0.55671   0.83322   0.00000  Uiso   1.00
C1558  C     0.68781   0.94343   0.83308   0.00000  Uiso   1.00
C1559  C     0.81220   0.55660   0.83338   0.00000  Uiso   1.00
C1560  C     0.50086   0.71090   0.69120   0.00000  Uiso   1.00
Cu1561 Cu    0.50000   0.75000   0.88022   0.00000  Uiso   1.00
Cu1562 Cu    0.50000   0.75000   0.78645   0.00000  Uiso   1.00
Cu1563 Cu    0.75000   0.50000   0.88022   0.00000  Uiso   1.00
Cu1564 Cu    0.75000   0.50000   0.78645   0.00000  Uiso   1.00
H1565  H     0.91462   0.66645   0.67854   0.00000  Uiso   1.00
H1566  H     0.90970   0.57225   0.97530   0.00000  Uiso   1.00
H1567  H     0.83752   0.57800   0.67984   0.00000  Uiso   1.00
H1568  H     0.59262   0.93473   0.97454   0.00000  Uiso   1.00
H1569  H     0.84618   0.96235   0.96768   0.00000  Uiso   1.00
H1570  H     0.61818   0.58717   0.67947   0.00000  Uiso   1.00
H1571  H     0.65161   0.53618   0.96689   0.00000  Uiso   1.00
H1572  H     0.86563   0.96460   0.70783   0.00000  Uiso   1.00
H1573  H     0.65874   0.81538   0.97459   0.00000  Uiso   1.00
H1574  H     0.58801   0.82613   0.67922   0.00000  Uiso   1.00
H1575  H     0.84400   0.69019   0.97524   0.00000  Uiso   1.00
H1576  H     0.65593   0.67734   0.98040   0.00000  Uiso   1.00
H1577  H     0.89238   0.78547   0.69823   0.00000  Uiso   1.00
H1578  H     0.92209   0.86108   0.98985   0.00000  Uiso   1.00
H1579  H     0.67105   0.72097   0.72378   0.00000  Uiso   1.00
H1580  H     0.66274   0.91752   0.67820   0.00000  Uiso   1.00
N1581  N     0.50000   0.75000   0.95069   0.00000  Uiso   1.00
N1582  N     0.50000   0.75000   0.71598   0.00000  Uiso   1.00
N1583  N     0.75000   0.50000   0.95069   0.00000  Uiso   1.00
N1584  N     0.75000   0.50000   0.71598   0.00000  Uiso   1.00
O1585  O     0.54508   0.70491   0.87291   0.00000  Uiso   1.00
O1586  O     0.70491   0.54509   0.79375   0.00000  Uiso   1.00
O1587  O     0.70491   0.54509   0.87291   0.00000  Uiso   1.00
O1588  O     0.79508   0.95491   0.79375   0.00000  Uiso   1.00
O1589  O     0.70491   0.95491   0.79375   0.00000  Uiso   1.00
O1590  O     0.79508   0.54509   0.87291   0.00000  Uiso   1.00
O1591  O     0.79508   0.54509   0.79375   0.00000  Uiso   1.00
O1592  O     0.70491   0.95491   0.87291   0.00000  Uiso   1.00
O1593  O     0.88276   0.70734   0.74083   0.00000  Uiso   1.00
O1594  O     0.91099   0.64642   0.70644   0.00000  Uiso   1.00
O1595  O     0.61789   0.78401   0.91269   0.00000  Uiso   1.00
O1596  O     0.95491   0.79509   0.79375   0.00000  Uiso   1.00
O1597  O     0.65168   0.83922   0.95108   0.00000  Uiso   1.00
O1598  O     0.61991   0.78920   0.74391   0.00000  Uiso   1.00
O1599  O     0.59081   0.84764   0.70618   0.00000  Uiso   1.00
O1600  O     0.88131   0.71977   0.91014   0.00000  Uiso   1.00
O1601  O     0.84998   0.66563   0.95199   0.00000  Uiso   1.00
O1602  O     0.59451   0.69688   0.93668   0.00000  Uiso   1.00
O1603  O     0.65465   0.65875   0.95101   0.00000  Uiso   1.00
O1604  O     0.84291   0.78836   0.76189   0.00000  Uiso   1.00
O1605  O     0.90106   0.80968   0.72086   0.00000  Uiso   1.00
O1606  O     0.89512   0.80820   0.93475   0.00000  Uiso   1.00
O1607  O     0.95491   0.79509   0.87291   0.00000  Uiso   1.00
O1608  O     0.91852   0.87566   0.95853   0.00000  Uiso   1.00
O1609  O     0.59976   0.69220   0.72729   0.00000  Uiso   1.00
O1610  O     0.66794   0.70106   0.75186   0.00000  Uiso   1.00
O1611  O     0.63046   0.95590   0.74200   0.00000  Uiso   1.00
O1612  O     0.66002   0.89675   0.70562   0.00000  Uiso   1.00
O1613  O     0.85885   0.54229   0.92239   0.00000  Uiso   1.00
O1614  O     0.90411   0.59430   0.94951   0.00000  Uiso   1.00
O1615  O     0.87253   0.54270   0.74379   0.00000  Uiso   1.00
O1616  O     0.83893   0.59919   0.70720   0.00000  Uiso   1.00
O1617  O     0.63247   0.96565   0.91201   0.00000  Uiso   1.00
O1618  O     0.54508   0.70491   0.79375   0.00000  Uiso   1.00
O1619  O     0.59966   0.91063   0.95111   0.00000  Uiso   1.00
O1620  O     0.89985   0.96409   0.90834   0.00000  Uiso   1.00
O1621  O     0.84396   0.93474   0.94779   0.00000  Uiso   1.00
O1622  O     0.63444   0.54416   0.74661   0.00000  Uiso   1.00
O1623  O     0.63014   0.60700   0.70464   0.00000  Uiso   1.00
O1624  O     0.59170   0.55599   0.91928   0.00000  Uiso   1.00
O1625  O     0.65993   0.56052   0.94448   0.00000  Uiso   1.00
O1626  O     0.84818   0.88736   0.70949   0.00000  Uiso   1.00
O1627  O     0.86552   0.95390   0.74103   0.00000  Uiso   1.00
O1628  O     0.95491   0.70491   0.79375   0.00000  Uiso   1.00
O1629  O     0.54508   0.79509   0.87291   0.00000  Uiso   1.00
O1630  O     0.54508   0.79509   0.79375   0.00000  Uiso   1.00
O1631  O     0.95491   0.70491   0.87291   0.00000  Uiso   1.00
O1632  O     0.79508   0.95491   0.87291   0.00000  Uiso   1.00
loop_
_geom_bond_atom_site_label_1
_geom_bond_atom_site_label_2
_geom_bond_distance
_geom_bond_site_symmetry_2
_ccdc_geom_bond_type
Br1    C64     1.931   .     S
Br2    C10     1.926   .     S
Br3    C11     1.932   .     S
Br4    C12     1.929   .     S
Br5    C13     1.927   .     S
Br6    C14     1.931   .     S
Br7    C15     1.930   .     S
Br8    C16     1.929   .     S
C9     O89     1.294   .     A
C9     O122    1.320   .     A
C9     C38     1.484   .     S
C10    N85     1.376   .     A
C10    C691    1.421   1_455 S
C11    C1234   1.421   1_554 S
C11    N222    1.375   .     S
C12    C744    1.422   .     S
C12    N221    1.376   .     S
C13    C1104   1.422   1_554 S
C13    N360    1.374   .     S
C14    N87     1.376   .     A
C14    C559    1.421   .     S
C15    N88     1.376   .     A
C15    C1102   1.421   1_554 S
C16    C557    1.422   .     S
C16    N359    1.376   .     S
C17    C36     1.417   .     A
C17    C28     1.403   .     A
C17    C44     1.489   .     S
C18    C45     1.497   .     S
C18    C35     1.411   .     A
C18    C29     1.401   .     A
C19    C26     1.405   .     A
C19    C46     1.489   .     S
C19    C35     1.418   .     A
C20    O111    1.291   .     A
C20    O100    1.316   .     A
C20    C37     1.477   .     S
C21    C36     1.410   .     A
C21    C27     1.401   .     A
C21    C47     1.498   .     S
C22    C48     1.504   .     S
C22    C38     1.429   .     A
C22    C33     1.400   .     A
C23    C49     1.480   .     S
C23    C37     1.404   .     A
C23    C34     1.397   .     A
C24    C37     1.426   .     A
C24    C50     1.491   .     S
C24    C30     1.399   .     A
C25    C32     1.401   .     A
C25    C51     1.484   .     S
C25    C38     1.407   .     A
C26    C52     1.487   .     S
C26    C40     1.422   .     A
C27    C54     1.500   .     S
C27    C39     1.420   .     A
C28    C55     1.484   .     S
C28    C39     1.422   .     A
C29    C56     1.497   .     S
C29    C40     1.413   .     A
C30    C57     1.476   .     S
C30    C43     1.402   .     A
C31    O135    1.310   .     A
C31    O132    1.300   .     A
C31    C36     1.482   .     S
C32    C41     1.417   .     A
C32    C58     1.492   .     S
C33    C59     1.485   .     S
C33    C41     1.407   .     A
C34    C60     1.485   .     S
C34    C43     1.416   .     A
C35    C42     1.484   .     S
C39    C63     1.487   .     S
C40    C62     1.487   .     S
C41    C61     1.485   .     S
C42    O133    1.310   .     A
C42    O134    1.301   .     A
C43    C53     1.480   .     S
C44    O98     1.396   .     S
C44    O97     1.221   .     D
C45    O99     1.221   .     D
C45    O101    1.399   .     S
C46    O102    1.222   .     D
C46    O103    1.396   .     S
C47    O105    1.400   .     S
C47    O104    1.221   .     D
C48    O107    1.400   .     S
C48    O106    1.218   .     D
C49    O108    1.222   .     D
C49    O109    1.395   .     S
C50    O110    1.222   .     D
C50    O112    1.398   .     S
C51    O113    1.221   .     D
C51    O114    1.397   .     S
C52    O116    1.396   .     S
C52    O115    1.220   .     D
C53    O136    1.312   .     A
C53    O92     1.295   .     A
C54    O118    1.400   .     S
C54    O117    1.218   .     D
C55    O119    1.219   .     D
C55    O120    1.397   .     S
C56    O123    1.399   .     S
C56    O121    1.221   .     D
C57    O125    1.394   .     S
C57    O124    1.222   .     D
C58    O127    1.395   .     S
C58    O126    1.220   .     D
C59    O128    1.223   .     D
C59    O129    1.395   .     S
C60    O131    1.393   .     S
C60    O130    1.223   .     D
C61    O90     1.303   .     A
C61    O91     1.310   .     A
C62    O96     1.311   .     A
C62    O93     1.302   .     A
C63    O94     1.307   .     A
C63    O95     1.306   .     A
C64    N86     1.376   .     A
C64    C1236   1.422   1_454 S
Cu65   O89     1.976   .     S
Cu65   N85     2.028   .     S
Cu65   O133    1.975   .     S
Cu65   Cu66    2.699   .     S
Cu65   O247    1.976   1_455 S
Cu65   O271    1.974   1_455 S
Cu66   O236    1.976   1_455 S
Cu66   O268    1.975   1_455 S
Cu66   N86     2.028   .     S
Cu66   O122    1.976   .     S
Cu66   O134    1.974   .     S
Cu67   O94     1.975   .     S
Cu67   O91     1.976   .     S
Cu67   Cu68    2.699   .     S
Cu67   N87     2.028   .     S
Cu67   O368    1.974   1_545 S
Cu67   O408    1.976   1_545 S
Cu68   O90     1.976   .     S
Cu68   O95     1.974   .     S
Cu68   N88     2.028   .     S
Cu68   O364    1.976   1_545 S
Cu68   O365    1.975   1_545 S
H69    O98     1.013   .     S
H70    O118    1.014   .     S
H71    O120    1.013   .     S
H72    O123    1.014   .     S
H73    O125    1.011   .     S
H74    O127    1.010   .     S
H75    O129    1.014   .     S
H76    O131    1.010   .     S
H77    O101    1.014   .     S
H78    O103    1.013   .     S
H79    O105    1.014   .     S
H80    O107    1.014   .     S
H81    O109    1.013   .     S
H82    O112    1.011   .     S
H83    O114    1.014   .     S
H84    O116    1.013   .     S
N85    C148    1.376   1_455 S
N86    C147    1.375   1_455 S
N87    C288    1.376   1_545 S
N88    C285    1.374   1_545 S
O92    Cu340   1.976   .     S
O93    Cu340   1.975   .     S
O96    Cu339   1.974   .     S
O100   Cu202   1.976   .     S
O111   Cu201   1.976   .     S
O132   Cu202   1.975   .     S
O135   Cu201   1.974   .     S
O136   Cu339   1.976   .     S
Br137  C200    1.931   .     S
Br138  C146    1.926   .     S
Br139  C147    1.932   .     S
Br140  C148    1.929   .     S
Br141  C149    1.927   .     S
Br142  C150    1.931   .     S
Br143  C151    1.930   .     S
Br144  C152    1.929   .     S
C145   O225    1.294   .     A
C145   O258    1.320   .     A
C145   C174    1.484   .     S
C146   N221    1.376   .     A
C146   C555    1.421   .     S
C147   C1098   1.421   1_654 S
C147   N86     1.375   1_655 S
C148   C608    1.422   1_655 S
C148   N85     1.376   1_655 S
C149   C1240   1.422   1_554 S
C149   N496    1.374   .     S
C150   N223    1.376   .     A
C150   C695    1.421   .     S
C151   N224    1.376   .     A
C151   C1238   1.421   1_554 S
C152   C693    1.422   .     S
C152   N495    1.376   .     S
C153   C172    1.417   .     A
C153   C164    1.403   .     A
C153   C180    1.489   .     S
C154   C181    1.497   .     S
C154   C171    1.411   .     A
C154   C165    1.401   .     A
C155   C162    1.405   .     A
C155   C182    1.489   .     S
C155   C171    1.418   .     A
C156   O247    1.291   .     A
C156   O236    1.316   .     A
C156   C173    1.477   .     S
C157   C172    1.410   .     A
C157   C163    1.401   .     A
C157   C183    1.498   .     S
C158   C184    1.504   .     S
C158   C174    1.429   .     A
C158   C169    1.400   .     A
C159   C185    1.480   .     S
C159   C173    1.404   .     A
C159   C170    1.397   .     A
C160   C173    1.426   .     A
C160   C186    1.491   .     S
C160   C166    1.399   .     A
C161   C168    1.401   .     A
C161   C187    1.484   .     S
C161   C174    1.407   .     A
C162   C188    1.487   .     S
C162   C176    1.422   .     A
C163   C190    1.500   .     S
C163   C175    1.420   .     A
C164   C191    1.484   .     S
C164   C175    1.422   .     A
C165   C192    1.497   .     S
C165   C176    1.413   .     A
C166   C193    1.476   .     S
C166   C179    1.402   .     A
C167   O271    1.310   .     A
C167   O268    1.300   .     A
C167   C172    1.482   .     S
C168   C177    1.417   .     A
C168   C194    1.492   .     S
C169   C195    1.485   .     S
C169   C177    1.407   .     A
C170   C196    1.485   .     S
C170   C179    1.416   .     A
C171   C178    1.484   .     S
C175   C199    1.487   .     S
C176   C198    1.487   .     S
C177   C197    1.485   .     S
C178   O269    1.310   .     A
C178   O270    1.301   .     A
C179   C189    1.480   .     S
C180   O234    1.396   .     S
C180   O233    1.221   .     D
C181   O235    1.221   .     D
C181   O237    1.399   .     S
C182   O238    1.222   .     D
C182   O239    1.396   .     S
C183   O241    1.400   .     S
C183   O240    1.221   .     D
C184   O243    1.400   .     S
C184   O242    1.218   .     D
C185   O244    1.222   .     D
C185   O245    1.395   .     S
C186   O246    1.222   .     D
C186   O248    1.398   .     S
C187   O249    1.221   .     D
C187   O250    1.397   .     S
C188   O252    1.396   .     S
C188   O251    1.220   .     D
C189   O272    1.312   .     A
C189   O228    1.295   .     A
C190   O254    1.400   .     S
C190   O253    1.218   .     D
C191   O255    1.219   .     D
C191   O256    1.397   .     S
C192   O259    1.399   .     S
C192   O257    1.221   .     D
C193   O261    1.394   .     S
C193   O260    1.222   .     D
C194   O263    1.395   .     S
C194   O262    1.220   .     D
C195   O264    1.223   .     D
C195   O265    1.395   .     S
C196   O267    1.393   .     S
C196   O266    1.223   .     D
C197   O226    1.303   .     A
C197   O227    1.310   .     A
C198   O232    1.311   .     A
C198   O229    1.302   .     A
C199   O230    1.307   .     A
C199   O231    1.306   .     A
C200   N222    1.376   .     A
C200   C1100   1.422   1_554 S
Cu201  O225    1.976   .     S
Cu201  N221    2.028   .     S
Cu201  O269    1.975   .     S
Cu201  Cu202   2.699   .     S
Cu202  N222    2.028   .     S
Cu202  O258    1.976   .     S
Cu202  O270    1.974   .     S
Cu203  O230    1.975   .     S
Cu203  O227    1.976   .     S
Cu203  Cu204   2.699   .     S
Cu203  N223    2.028   .     S
Cu203  O504    1.974   1_545 S
Cu203  O544    1.976   1_545 S
Cu204  O226    1.976   .     S
Cu204  O231    1.974   .     S
Cu204  N224    2.028   .     S
Cu204  O500    1.976   1_545 S
Cu204  O501    1.975   1_545 S
H205   O234    1.013   .     S
H206   O254    1.014   .     S
H207   O256    1.013   .     S
H208   O259    1.014   .     S
H209   O261    1.011   .     S
H210   O263    1.010   .     S
H211   O265    1.014   .     S
H212   O267    1.010   .     S
H213   O237    1.014   .     S
H214   O239    1.013   .     S
H215   O241    1.014   .     S
H216   O243    1.014   .     S
H217   O245    1.013   .     S
H218   O248    1.011   .     S
H219   O250    1.014   .     S
H220   O252    1.013   .     S
N223   C424    1.376   1_545 S
N224   C421    1.374   1_545 S
O228   Cu476   1.976   .     S
O229   Cu476   1.975   .     S
O232   Cu475   1.974   .     S
O236   Cu66    1.976   1_655 S
O247   Cu65    1.976   1_655 S
O268   Cu66    1.975   1_655 S
O271   Cu65    1.974   1_655 S
O272   Cu475   1.976   .     S
Br273  C336    1.931   .     S
Br274  C282    1.926   .     S
Br275  C283    1.932   .     S
Br276  C284    1.929   .     S
Br277  C285    1.927   .     S
Br278  C286    1.931   .     S
Br279  C287    1.930   .     S
Br280  C288    1.929   .     S
C281   O361    1.294   .     A
C281   O394    1.320   .     A
C281   C310    1.484   .     S
C282   N357    1.376   .     A
C282   C963    1.421   1_455 S
C283   C1506   1.421   1_554 S
C283   N494    1.375   .     S
C284   C1016   1.422   .     S
C284   N493    1.376   .     S
C285   C1376   1.422   1_554 S
C285   N88     1.374   1_565 S
C286   N359    1.376   .     A
C286   C831    1.421   .     S
C287   N360    1.376   .     A
C287   C1374   1.421   1_554 S
C288   C829    1.422   .     S
C288   N87     1.376   1_565 S
C289   C308    1.417   .     A
C289   C300    1.403   .     A
C289   C316    1.489   .     S
C290   C317    1.497   .     S
C290   C307    1.411   .     A
C290   C301    1.401   .     A
C291   C298    1.405   .     A
C291   C318    1.489   .     S
C291   C307    1.418   .     A
C292   O383    1.291   .     A
C292   O372    1.316   .     A
C292   C309    1.477   .     S
C293   C308    1.410   .     A
C293   C299    1.401   .     A
C293   C319    1.498   .     S
C294   C320    1.504   .     S
C294   C310    1.429   .     A
C294   C305    1.400   .     A
C295   C321    1.480   .     S
C295   C309    1.404   .     A
C295   C306    1.397   .     A
C296   C309    1.426   .     A
C296   C322    1.491   .     S
C296   C302    1.399   .     A
C297   C304    1.401   .     A
C297   C323    1.484   .     S
C297   C310    1.407   .     A
C298   C324    1.487   .     S
C298   C312    1.422   .     A
C299   C326    1.500   .     S
C299   C311    1.420   .     A
C300   C327    1.484   .     S
C300   C311    1.422   .     A
C301   C328    1.497   .     S
C301   C312    1.413   .     A
C302   C329    1.476   .     S
C302   C315    1.402   .     A
C303   O407    1.310   .     A
C303   O404    1.300   .     A
C303   C308    1.482   .     S
C304   C313    1.417   .     A
C304   C330    1.492   .     S
C305   C331    1.485   .     S
C305   C313    1.407   .     A
C306   C332    1.485   .     S
C306   C315    1.416   .     A
C307   C314    1.484   .     S
C311   C335    1.487   .     S
C312   C334    1.487   .     S
C313   C333    1.485   .     S
C314   O405    1.310   .     A
C314   O406    1.301   .     A
C315   C325    1.480   .     S
C316   O370    1.396   .     S
C316   O369    1.221   .     D
C317   O371    1.221   .     D
C317   O373    1.399   .     S
C318   O374    1.222   .     D
C318   O375    1.396   .     S
C319   O377    1.400   .     S
C319   O376    1.221   .     D
C320   O379    1.400   .     S
C320   O378    1.218   .     D
C321   O380    1.222   .     D
C321   O381    1.395   .     S
C322   O382    1.222   .     D
C322   O384    1.398   .     S
C323   O385    1.221   .     D
C323   O386    1.397   .     S
C324   O388    1.396   .     S
C324   O387    1.220   .     D
C325   O408    1.312   .     A
C325   O364    1.295   .     A
C326   O390    1.400   .     S
C326   O389    1.218   .     D
C327   O391    1.219   .     D
C327   O392    1.397   .     S
C328   O395    1.399   .     S
C328   O393    1.221   .     D
C329   O397    1.394   .     S
C329   O396    1.222   .     D
C330   O399    1.395   .     S
C330   O398    1.220   .     D
C331   O400    1.223   .     D
C331   O401    1.395   .     S
C332   O403    1.393   .     S
C332   O402    1.223   .     D
C333   O362    1.303   .     A
C333   O363    1.310   .     A
C334   O368    1.311   .     A
C334   O365    1.302   .     A
C335   O366    1.307   .     A
C335   O367    1.306   .     A
C336   N358    1.376   .     A
C336   C1508   1.422   1_454 S
Cu337  O361    1.976   .     S
Cu337  N357    2.028   .     S
Cu337  O405    1.975   .     S
Cu337  Cu338   2.699   .     S
Cu337  O519    1.976   1_455 S
Cu337  O543    1.974   1_455 S
Cu338  O508    1.976   1_455 S
Cu338  O540    1.975   1_455 S
Cu338  N358    2.028   .     S
Cu338  O394    1.976   .     S
Cu338  O406    1.974   .     S
Cu339  O366    1.975   .     S
Cu339  O363    1.976   .     S
Cu339  Cu340   2.699   .     S
Cu339  N359    2.028   .     S
Cu340  O362    1.976   .     S
Cu340  O367    1.974   .     S
Cu340  N360    2.028   .     S
H341   O370    1.013   .     S
H342   O390    1.014   .     S
H343   O392    1.013   .     S
H344   O395    1.014   .     S
H345   O397    1.011   .     S
H346   O399    1.010   .     S
H347   O401    1.014   .     S
H348   O403    1.010   .     S
H349   O373    1.014   .     S
H350   O375    1.013   .     S
H351   O377    1.014   .     S
H352   O379    1.014   .     S
H353   O381    1.013   .     S
H354   O384    1.011   .     S
H355   O386    1.014   .     S
H356   O388    1.013   .     S
N357   C420    1.376   1_455 S
N358   C419    1.375   1_455 S
O364   Cu68    1.976   1_565 S
O365   Cu68    1.975   1_565 S
O368   Cu67    1.974   1_565 S
O372   Cu474   1.976   .     S
O383   Cu473   1.976   .     S
O404   Cu474   1.975   .     S
O407   Cu473   1.974   .     S
O408   Cu67    1.976   1_565 S
Br409  C472    1.931   .     S
Br410  C418    1.926   .     S
Br411  C419    1.932   .     S
Br412  C420    1.929   .     S
Br413  C421    1.927   .     S
Br414  C422    1.931   .     S
Br415  C423    1.930   .     S
Br416  C424    1.929   .     S
C417   O497    1.294   .     A
C417   O530    1.320   .     A
C417   C446    1.484   .     S
C418   N493    1.376   .     A
C418   C827    1.421   .     S
C419   C1370   1.421   1_654 S
C419   N358    1.375   1_655 S
C420   C880    1.422   1_655 S
C420   N357    1.376   1_655 S
C421   C1512   1.422   1_554 S
C421   N224    1.374   1_565 S
C422   N495    1.376   .     A
C422   C967    1.421   .     S
C423   N496    1.376   .     A
C423   C1510   1.421   1_554 S
C424   C965    1.422   .     S
C424   N223    1.376   1_565 S
C425   C444    1.417   .     A
C425   C436    1.403   .     A
C425   C452    1.489   .     S
C426   C453    1.497   .     S
C426   C443    1.411   .     A
C426   C437    1.401   .     A
C427   C434    1.405   .     A
C427   C454    1.489   .     S
C427   C443    1.418   .     A
C428   O519    1.291   .     A
C428   O508    1.316   .     A
C428   C445    1.477   .     S
C429   C444    1.410   .     A
C429   C435    1.401   .     A
C429   C455    1.498   .     S
C430   C456    1.504   .     S
C430   C446    1.429   .     A
C430   C441    1.400   .     A
C431   C457    1.480   .     S
C431   C445    1.404   .     A
C431   C442    1.397   .     A
C432   C445    1.426   .     A
C432   C458    1.491   .     S
C432   C438    1.399   .     A
C433   C440    1.401   .     A
C433   C459    1.484   .     S
C433   C446    1.407   .     A
C434   C460    1.487   .     S
C434   C448    1.422   .     A
C435   C462    1.500   .     S
C435   C447    1.420   .     A
C436   C463    1.484   .     S
C436   C447    1.422   .     A
C437   C464    1.497   .     S
C437   C448    1.413   .     A
C438   C465    1.476   .     S
C438   C451    1.402   .     A
C439   O543    1.310   .     A
C439   O540    1.300   .     A
C439   C444    1.482   .     S
C440   C449    1.417   .     A
C440   C466    1.492   .     S
C441   C467    1.485   .     S
C441   C449    1.407   .     A
C442   C468    1.485   .     S
C442   C451    1.416   .     A
C443   C450    1.484   .     S
C447   C471    1.487   .     S
C448   C470    1.487   .     S
C449   C469    1.485   .     S
C450   O541    1.310   .     A
C450   O542    1.301   .     A
C451   C461    1.480   .     S
C452   O506    1.396   .     S
C452   O505    1.221   .     D
C453   O507    1.221   .     D
C453   O509    1.399   .     S
C454   O510    1.222   .     D
C454   O511    1.396   .     S
C455   O513    1.400   .     S
C455   O512    1.221   .     D
C456   O515    1.400   .     S
C456   O514    1.218   .     D
C457   O516    1.222   .     D
C457   O517    1.395   .     S
C458   O518    1.222   .     D
C458   O520    1.398   .     S
C459   O521    1.221   .     D
C459   O522    1.397   .     S
C460   O524    1.396   .     S
C460   O523    1.220   .     D
C461   O544    1.312   .     A
C461   O500    1.295   .     A
C462   O526    1.400   .     S
C462   O525    1.218   .     D
C463   O527    1.219   .     D
C463   O528    1.397   .     S
C464   O531    1.399   .     S
C464   O529    1.221   .     D
C465   O533    1.394   .     S
C465   O532    1.222   .     D
C466   O535    1.395   .     S
C466   O534    1.220   .     D
C467   O536    1.223   .     D
C467   O537    1.395   .     S
C468   O539    1.393   .     S
C468   O538    1.223   .     D
C469   O498    1.303   .     A
C469   O499    1.310   .     A
C470   O504    1.311   .     A
C470   O501    1.302   .     A
C471   O502    1.307   .     A
C471   O503    1.306   .     A
C472   N494    1.376   .     A
C472   C1372   1.422   1_554 S
Cu473  O497    1.976   .     S
Cu473  N493    2.028   .     S
Cu473  O541    1.975   .     S
Cu473  Cu474   2.699   .     S
Cu474  N494    2.028   .     S
Cu474  O530    1.976   .     S
Cu474  O542    1.974   .     S
Cu475  O502    1.975   .     S
Cu475  O499    1.976   .     S
Cu475  Cu476   2.699   .     S
Cu475  N495    2.028   .     S
Cu476  O498    1.976   .     S
Cu476  O503    1.974   .     S
Cu476  N496    2.028   .     S
H477   O506    1.013   .     S
H478   O526    1.014   .     S
H479   O528    1.013   .     S
H480   O531    1.014   .     S
H481   O533    1.011   .     S
H482   O535    1.010   .     S
H483   O537    1.014   .     S
H484   O539    1.010   .     S
H485   O509    1.014   .     S
H486   O511    1.013   .     S
H487   O513    1.014   .     S
H488   O515    1.014   .     S
H489   O517    1.013   .     S
H490   O520    1.011   .     S
H491   O522    1.014   .     S
H492   O524    1.013   .     S
O500   Cu204   1.976   1_565 S
O501   Cu204   1.975   1_565 S
O504   Cu203   1.974   1_565 S
O508   Cu338   1.976   1_655 S
O519   Cu337   1.976   1_655 S
O540   Cu338   1.975   1_655 S
O543   Cu337   1.974   1_655 S
O544   Cu203   1.976   1_565 S
Br545  C608    1.931   .     S
Br546  C554    1.926   .     S
Br547  C555    1.932   .     S
Br548  C556    1.929   .     S
Br549  C557    1.927   .     S
Br550  C558    1.931   .     S
Br551  C559    1.930   .     S
Br552  C560    1.929   .     S
C553   O633    1.294   .     A
C553   O666    1.320   .     A
C553   C582    1.484   .     S
C554   N629    1.376   .     A
C554   C1235   1.421   1_455 S
C555   N766    1.375   .     S
C556   C1288   1.422   .     S
C556   N765    1.376   .     S
C557   N904    1.374   .     S
C558   N631    1.376   .     A
C558   C1103   1.421   .     S
C559   N632    1.376   .     A
C560   C1101   1.422   .     S
C560   N903    1.376   .     S
C561   C580    1.417   .     A
C561   C572    1.403   .     A
C561   C588    1.489   .     S
C562   C589    1.497   .     S
C562   C579    1.411   .     A
C562   C573    1.401   .     A
C563   C570    1.405   .     A
C563   C590    1.489   .     S
C563   C579    1.418   .     A
C564   O655    1.291   .     A
C564   O644    1.316   .     A
C564   C581    1.477   .     S
C565   C580    1.410   .     A
C565   C571    1.401   .     A
C565   C591    1.498   .     S
C566   C592    1.504   .     S
C566   C582    1.429   .     A
C566   C577    1.400   .     A
C567   C593    1.480   .     S
C567   C581    1.404   .     A
C567   C578    1.397   .     A
C568   C581    1.426   .     A
C568   C594    1.491   .     S
C568   C574    1.399   .     A
C569   C576    1.401   .     A
C569   C595    1.484   .     S
C569   C582    1.407   .     A
C570   C596    1.487   .     S
C570   C584    1.422   .     A
C571   C598    1.500   .     S
C571   C583    1.420   .     A
C572   C599    1.484   .     S
C572   C583    1.422   .     A
C573   C600    1.497   .     S
C573   C584    1.413   .     A
C574   C601    1.476   .     S
C574   C587    1.402   .     A
C575   O679    1.310   .     A
C575   O676    1.300   .     A
C575   C580    1.482   .     S
C576   C585    1.417   .     A
C576   C602    1.492   .     S
C577   C603    1.485   .     S
C577   C585    1.407   .     A
C578   C604    1.485   .     S
C578   C587    1.416   .     A
C579   C586    1.484   .     S
C583   C607    1.487   .     S
C584   C606    1.487   .     S
C585   C605    1.485   .     S
C586   O677    1.310   .     A
C586   O678    1.301   .     A
C587   C597    1.480   .     S
C588   O642    1.396   .     S
C588   O641    1.221   .     D
C589   O643    1.221   .     D
C589   O645    1.399   .     S
C590   O646    1.222   .     D
C590   O647    1.396   .     S
C591   O649    1.400   .     S
C591   O648    1.221   .     D
C592   O651    1.400   .     S
C592   O650    1.218   .     D
C593   O652    1.222   .     D
C593   O653    1.395   .     S
C594   O654    1.222   .     D
C594   O656    1.398   .     S
C595   O657    1.221   .     D
C595   O658    1.397   .     S
C596   O660    1.396   .     S
C596   O659    1.220   .     D
C597   O680    1.312   .     A
C597   O636    1.295   .     A
C598   O662    1.400   .     S
C598   O661    1.218   .     D
C599   O663    1.219   .     D
C599   O664    1.397   .     S
C600   O667    1.399   .     S
C600   O665    1.221   .     D
C601   O669    1.394   .     S
C601   O668    1.222   .     D
C602   O671    1.395   .     S
C602   O670    1.220   .     D
C603   O672    1.223   .     D
C603   O673    1.395   .     S
C604   O675    1.393   .     S
C604   O674    1.223   .     D
C605   O634    1.303   .     A
C605   O635    1.310   .     A
C606   O640    1.311   .     A
C606   O637    1.302   .     A
C607   O638    1.307   .     A
C607   O639    1.306   .     A
C608   N630    1.376   .     A
C608   C148    1.422   1_455 S
Cu609  O633    1.976   .     S
Cu609  N629    2.028   .     S
Cu609  O677    1.975   .     S
Cu609  Cu610   2.699   .     S
Cu609  O791    1.976   1_455 S
Cu609  O815    1.974   1_455 S
Cu610  O780    1.976   1_455 S
Cu610  O812    1.975   1_455 S
Cu610  N630    2.028   .     S
Cu610  O666    1.976   .     S
Cu610  O678    1.974   .     S
Cu611  O638    1.975   .     S
Cu611  O635    1.976   .     S
Cu611  Cu612   2.699   .     S
Cu611  N631    2.028   .     S
Cu611  O912    1.974   1_545 S
Cu611  O952    1.976   1_545 S
Cu612  O634    1.976   .     S
Cu612  O639    1.974   .     S
Cu612  N632    2.028   .     S
Cu612  O908    1.976   1_545 S
Cu612  O909    1.975   1_545 S
H613   O642    1.013   .     S
H614   O662    1.014   .     S
H615   O664    1.013   .     S
H616   O667    1.014   .     S
H617   O669    1.011   .     S
H618   O671    1.010   .     S
H619   O673    1.014   .     S
H620   O675    1.010   .     S
H621   O645    1.014   .     S
H622   O647    1.013   .     S
H623   O649    1.014   .     S
H624   O651    1.014   .     S
H625   O653    1.013   .     S
H626   O656    1.011   .     S
H627   O658    1.014   .     S
H628   O660    1.013   .     S
N629   C692    1.376   1_455 S
N630   C691    1.375   1_455 S
N631   C832    1.376   1_545 S
N632   C829    1.374   1_545 S
O636   Cu884   1.976   .     S
O637   Cu884   1.975   .     S
O640   Cu883   1.974   .     S
O644   Cu746   1.976   .     S
O655   Cu745   1.976   .     S
O676   Cu746   1.975   .     S
O679   Cu745   1.974   .     S
O680   Cu883   1.976   .     S
Br681  C744    1.931   .     S
Br682  C690    1.926   .     S
Br683  C691    1.932   .     S
Br684  C692    1.929   .     S
Br685  C693    1.927   .     S
Br686  C694    1.931   .     S
Br687  C695    1.930   .     S
Br688  C696    1.929   .     S
C689   O769    1.294   .     A
C689   O802    1.320   .     A
C689   C718    1.484   .     S
C690   N765    1.376   .     A
C690   C1099   1.421   .     S
C691   C10     1.421   1_655 S
C691   N630    1.375   1_655 S
C692   C1152   1.422   1_655 S
C692   N629    1.376   1_655 S
C693   N1040   1.374   .     S
C694   N767    1.376   .     A
C694   C1239   1.421   .     S
C695   N768    1.376   .     A
C696   C1237   1.422   .     S
C696   N1039   1.376   .     S
C697   C716    1.417   .     A
C697   C708    1.403   .     A
C697   C724    1.489   .     S
C698   C725    1.497   .     S
C698   C715    1.411   .     A
C698   C709    1.401   .     A
C699   C706    1.405   .     A
C699   C726    1.489   .     S
C699   C715    1.418   .     A
C700   O791    1.291   .     A
C700   O780    1.316   .     A
C700   C717    1.477   .     S
C701   C716    1.410   .     A
C701   C707    1.401   .     A
C701   C727    1.498   .     S
C702   C728    1.504   .     S
C702   C718    1.429   .     A
C702   C713    1.400   .     A
C703   C729    1.480   .     S
C703   C717    1.404   .     A
C703   C714    1.397   .     A
C704   C717    1.426   .     A
C704   C730    1.491   .     S
C704   C710    1.399   .     A
C705   C712    1.401   .     A
C705   C731    1.484   .     S
C705   C718    1.407   .     A
C706   C732    1.487   .     S
C706   C720    1.422   .     A
C707   C734    1.500   .     S
C707   C719    1.420   .     A
C708   C735    1.484   .     S
C708   C719    1.422   .     A
C709   C736    1.497   .     S
C709   C720    1.413   .     A
C710   C737    1.476   .     S
C710   C723    1.402   .     A
C711   O815    1.310   .     A
C711   O812    1.300   .     A
C711   C716    1.482   .     S
C712   C721    1.417   .     A
C712   C738    1.492   .     S
C713   C739    1.485   .     S
C713   C721    1.407   .     A
C714   C740    1.485   .     S
C714   C723    1.416   .     A
C715   C722    1.484   .     S
C719   C743    1.487   .     S
C720   C742    1.487   .     S
C721   C741    1.485   .     S
C722   O813    1.310   .     A
C722   O814    1.301   .     A
C723   C733    1.480   .     S
C724   O778    1.396   .     S
C724   O777    1.221   .     D
C725   O779    1.221   .     D
C725   O781    1.399   .     S
C726   O782    1.222   .     D
C726   O783    1.396   .     S
C727   O785    1.400   .     S
C727   O784    1.221   .     D
C728   O787    1.400   .     S
C728   O786    1.218   .     D
C729   O788    1.222   .     D
C729   O789    1.395   .     S
C730   O790    1.222   .     D
C730   O792    1.398   .     S
C731   O793    1.221   .     D
C731   O794    1.397   .     S
C732   O796    1.396   .     S
C732   O795    1.220   .     D
C733   O816    1.312   .     A
C733   O772    1.295   .     A
C734   O798    1.400   .     S
C734   O797    1.218   .     D
C735   O799    1.219   .     D
C735   O800    1.397   .     S
C736   O803    1.399   .     S
C736   O801    1.221   .     D
C737   O805    1.394   .     S
C737   O804    1.222   .     D
C738   O807    1.395   .     S
C738   O806    1.220   .     D
C739   O808    1.223   .     D
C739   O809    1.395   .     S
C740   O811    1.393   .     S
C740   O810    1.223   .     D
C741   O770    1.303   .     A
C741   O771    1.310   .     A
C742   O776    1.311   .     A
C742   O773    1.302   .     A
C743   O774    1.307   .     A
C743   O775    1.306   .     A
C744   N766    1.376   .     A
Cu745  O769    1.976   .     S
Cu745  N765    2.028   .     S
Cu745  O813    1.975   .     S
Cu745  Cu746   2.699   .     S
Cu746  N766    2.028   .     S
Cu746  O802    1.976   .     S
Cu746  O814    1.974   .     S
Cu747  O774    1.975   .     S
Cu747  O771    1.976   .     S
Cu747  Cu748   2.699   .     S
Cu747  N767    2.028   .     S
Cu747  O1048   1.974   1_545 S
Cu747  O1088   1.976   1_545 S
Cu748  O770    1.976   .     S
Cu748  O775    1.974   .     S
Cu748  N768    2.028   .     S
Cu748  O1044   1.976   1_545 S
Cu748  O1045   1.975   1_545 S
H749   O778    1.013   .     S
H750   O798    1.014   .     S
H751   O800    1.013   .     S
H752   O803    1.014   .     S
H753   O805    1.011   .     S
H754   O807    1.010   .     S
H755   O809    1.014   .     S
H756   O811    1.010   .     S
H757   O781    1.014   .     S
H758   O783    1.013   .     S
H759   O785    1.014   .     S
H760   O787    1.014   .     S
H761   O789    1.013   .     S
H762   O792    1.011   .     S
H763   O794    1.014   .     S
H764   O796    1.013   .     S
N767   C968    1.376   1_545 S
N768   C965    1.374   1_545 S
O772   Cu1020  1.976   .     S
O773   Cu1020  1.975   .     S
O776   Cu1019  1.974   .     S
O780   Cu610   1.976   1_655 S
O791   Cu609   1.976   1_655 S
O812   Cu610   1.975   1_655 S
O815   Cu609   1.974   1_655 S
O816   Cu1019  1.976   .     S
Br817  C880    1.931   .     S
Br818  C826    1.926   .     S
Br819  C827    1.932   .     S
Br820  C828    1.929   .     S
Br821  C829    1.927   .     S
Br822  C830    1.931   .     S
Br823  C831    1.930   .     S
Br824  C832    1.929   .     S
C825   O905    1.294   .     A
C825   O938    1.320   .     A
C825   C854    1.484   .     S
C826   N901    1.376   .     A
C826   C1507   1.421   1_455 S
C827   N1038   1.375   .     S
C828   C1560   1.422   .     S
C828   N1037   1.376   .     S
C829   N632    1.374   1_565 S
C830   N903    1.376   .     A
C830   C1375   1.421   .     S
C831   N904    1.376   .     A
C832   C1373   1.422   .     S
C832   N631    1.376   1_565 S
C833   C852    1.417   .     A
C833   C844    1.403   .     A
C833   C860    1.489   .     S
C834   C861    1.497   .     S
C834   C851    1.411   .     A
C834   C845    1.401   .     A
C835   C842    1.405   .     A
C835   C862    1.489   .     S
C835   C851    1.418   .     A
C836   O927    1.291   .     A
C836   O916    1.316   .     A
C836   C853    1.477   .     S
C837   C852    1.410   .     A
C837   C843    1.401   .     A
C837   C863    1.498   .     S
C838   C864    1.504   .     S
C838   C854    1.429   .     A
C838   C849    1.400   .     A
C839   C865    1.480   .     S
C839   C853    1.404   .     A
C839   C850    1.397   .     A
C840   C853    1.426   .     A
C840   C866    1.491   .     S
C840   C846    1.399   .     A
C841   C848    1.401   .     A
C841   C867    1.484   .     S
C841   C854    1.407   .     A
C842   C868    1.487   .     S
C842   C856    1.422   .     A
C843   C870    1.500   .     S
C843   C855    1.420   .     A
C844   C871    1.484   .     S
C844   C855    1.422   .     A
C845   C872    1.497   .     S
C845   C856    1.413   .     A
C846   C873    1.476   .     S
C846   C859    1.402   .     A
C847   O951    1.310   .     A
C847   O948    1.300   .     A
C847   C852    1.482   .     S
C848   C857    1.417   .     A
C848   C874    1.492   .     S
C849   C875    1.485   .     S
C849   C857    1.407   .     A
C850   C876    1.485   .     S
C850   C859    1.416   .     A
C851   C858    1.484   .     S
C855   C879    1.487   .     S
C856   C878    1.487   .     S
C857   C877    1.485   .     S
C858   O949    1.310   .     A
C858   O950    1.301   .     A
C859   C869    1.480   .     S
C860   O914    1.396   .     S
C860   O913    1.221   .     D
C861   O915    1.221   .     D
C861   O917    1.399   .     S
C862   O918    1.222   .     D
C862   O919    1.396   .     S
C863   O921    1.400   .     S
C863   O920    1.221   .     D
C864   O923    1.400   .     S
C864   O922    1.218   .     D
C865   O924    1.222   .     D
C865   O925    1.395   .     S
C866   O926    1.222   .     D
C866   O928    1.398   .     S
C867   O929    1.221   .     D
C867   O930    1.397   .     S
C868   O932    1.396   .     S
C868   O931    1.220   .     D
C869   O952    1.312   .     A
C869   O908    1.295   .     A
C870   O934    1.400   .     S
C870   O933    1.218   .     D
C871   O935    1.219   .     D
C871   O936    1.397   .     S
C872   O939    1.399   .     S
C872   O937    1.221   .     D
C873   O941    1.394   .     S
C873   O940    1.222   .     D
C874   O943    1.395   .     S
C874   O942    1.220   .     D
C875   O944    1.223   .     D
C875   O945    1.395   .     S
C876   O947    1.393   .     S
C876   O946    1.223   .     D
C877   O906    1.303   .     A
C877   O907    1.310   .     A
C878   O912    1.311   .     A
C878   O909    1.302   .     A
C879   O910    1.307   .     A
C879   O911    1.306   .     A
C880   N902    1.376   .     A
C880   C420    1.422   1_455 S
Cu881  O905    1.976   .     S
Cu881  N901    2.028   .     S
Cu881  O949    1.975   .     S
Cu881  Cu882   2.699   .     S
Cu881  O1063   1.976   1_455 S
Cu881  O1087   1.974   1_455 S
Cu882  O1052   1.976   1_455 S
Cu882  O1084   1.975   1_455 S
Cu882  N902    2.028   .     S
Cu882  O938    1.976   .     S
Cu882  O950    1.974   .     S
Cu883  O910    1.975   .     S
Cu883  O907    1.976   .     S
Cu883  Cu884   2.699   .     S
Cu883  N903    2.028   .     S
Cu884  O906    1.976   .     S
Cu884  O911    1.974   .     S
Cu884  N904    2.028   .     S
H885   O914    1.013   .     S
H886   O934    1.014   .     S
H887   O936    1.013   .     S
H888   O939    1.014   .     S
H889   O941    1.011   .     S
H890   O943    1.010   .     S
H891   O945    1.014   .     S
H892   O947    1.010   .     S
H893   O917    1.014   .     S
H894   O919    1.013   .     S
H895   O921    1.014   .     S
H896   O923    1.014   .     S
H897   O925    1.013   .     S
H898   O928    1.011   .     S
H899   O930    1.014   .     S
H900   O932    1.013   .     S
N901   C964    1.376   1_455 S
N902   C963    1.375   1_455 S
O908   Cu612   1.976   1_565 S
O909   Cu612   1.975   1_565 S
O912   Cu611   1.974   1_565 S
O916   Cu1018  1.976   .     S
O927   Cu1017  1.976   .     S
O948   Cu1018  1.975   .     S
O951   Cu1017  1.974   .     S
O952   Cu611   1.976   1_565 S
Br953  C1016   1.931   .     S
Br954  C962    1.926   .     S
Br955  C963    1.932   .     S
Br956  C964    1.929   .     S
Br957  C965    1.927   .     S
Br958  C966    1.931   .     S
Br959  C967    1.930   .     S
Br960  C968    1.929   .     S
C961   O1041   1.294   .     A
C961   O1074   1.320   .     A
C961   C990    1.484   .     S
C962   N1037   1.376   .     A
C962   C1371   1.421   .     S
C963   C282    1.421   1_655 S
C963   N902    1.375   1_655 S
C964   C1424   1.422   1_655 S
C964   N901    1.376   1_655 S
C965   N768    1.374   1_565 S
C966   N1039   1.376   .     A
C966   C1511   1.421   .     S
C967   N1040   1.376   .     A
C968   C1509   1.422   .     S
C968   N767    1.376   1_565 S
C969   C988    1.417   .     A
C969   C980    1.403   .     A
C969   C996    1.489   .     S
C970   C997    1.497   .     S
C970   C987    1.411   .     A
C970   C981    1.401   .     A
C971   C978    1.405   .     A
C971   C998    1.489   .     S
C971   C987    1.418   .     A
C972   O1063   1.291   .     A
C972   O1052   1.316   .     A
C972   C989    1.477   .     S
C973   C988    1.410   .     A
C973   C979    1.401   .     A
C973   C999    1.498   .     S
C974   C1000   1.504   .     S
C974   C990    1.429   .     A
C974   C985    1.400   .     A
C975   C1001   1.480   .     S
C975   C989    1.404   .     A
C975   C986    1.397   .     A
C976   C989    1.426   .     A
C976   C1002   1.491   .     S
C976   C982    1.399   .     A
C977   C984    1.401   .     A
C977   C1003   1.484   .     S
C977   C990    1.407   .     A
C978   C1004   1.487   .     S
C978   C992    1.422   .     A
C979   C1006   1.500   .     S
C979   C991    1.420   .     A
C980   C1007   1.484   .     S
C980   C991    1.422   .     A
C981   C1008   1.497   .     S
C981   C992    1.413   .     A
C982   C1009   1.476   .     S
C982   C995    1.402   .     A
C983   O1087   1.310   .     A
C983   O1084   1.300   .     A
C983   C988    1.482   .     S
C984   C993    1.417   .     A
C984   C1010   1.492   .     S
C985   C1011   1.485   .     S
C985   C993    1.407   .     A
C986   C1012   1.485   .     S
C986   C995    1.416   .     A
C987   C994    1.484   .     S
C991   C1015   1.487   .     S
C992   C1014   1.487   .     S
C993   C1013   1.485   .     S
C994   O1085   1.310   .     A
C994   O1086   1.301   .     A
C995   C1005   1.480   .     S
C996   O1050   1.396   .     S
C996   O1049   1.221   .     D
C997   O1051   1.221   .     D
C997   O1053   1.399   .     S
C998   O1054   1.222   .     D
C998   O1055   1.396   .     S
C999   O1057   1.400   .     S
C999   O1056   1.221   .     D
C1000  O1059   1.400   .     S
C1000  O1058   1.218   .     D
C1001  O1060   1.222   .     D
C1001  O1061   1.395   .     S
C1002  O1062   1.222   .     D
C1002  O1064   1.398   .     S
C1003  O1065   1.221   .     D
C1003  O1066   1.397   .     S
C1004  O1068   1.396   .     S
C1004  O1067   1.220   .     D
C1005  O1088   1.312   .     A
C1005  O1044   1.295   .     A
C1006  O1070   1.400   .     S
C1006  O1069   1.218   .     D
C1007  O1071   1.219   .     D
C1007  O1072   1.397   .     S
C1008  O1075   1.399   .     S
C1008  O1073   1.221   .     D
C1009  O1077   1.394   .     S
C1009  O1076   1.222   .     D
C1010  O1079   1.395   .     S
C1010  O1078   1.220   .     D
C1011  O1080   1.223   .     D
C1011  O1081   1.395   .     S
C1012  O1083   1.393   .     S
C1012  O1082   1.223   .     D
C1013  O1042   1.303   .     A
C1013  O1043   1.310   .     A
C1014  O1048   1.311   .     A
C1014  O1045   1.302   .     A
C1015  O1046   1.307   .     A
C1015  O1047   1.306   .     A
C1016  N1038   1.376   .     A
Cu1017 O1041   1.976   .     S
Cu1017 N1037   2.028   .     S
Cu1017 O1085   1.975   .     S
Cu1017 Cu1018  2.699   .     S
Cu1018 N1038   2.028   .     S
Cu1018 O1074   1.976   .     S
Cu1018 O1086   1.974   .     S
Cu1019 O1046   1.975   .     S
Cu1019 O1043   1.976   .     S
Cu1019 Cu1020  2.699   .     S
Cu1019 N1039   2.028   .     S
Cu1020 O1042   1.976   .     S
Cu1020 O1047   1.974   .     S
Cu1020 N1040   2.028   .     S
H1021  O1050   1.013   .     S
H1022  O1070   1.014   .     S
H1023  O1072   1.013   .     S
H1024  O1075   1.014   .     S
H1025  O1077   1.011   .     S
H1026  O1079   1.010   .     S
H1027  O1081   1.014   .     S
H1028  O1083   1.010   .     S
H1029  O1053   1.014   .     S
H1030  O1055   1.013   .     S
H1031  O1057   1.014   .     S
H1032  O1059   1.014   .     S
H1033  O1061   1.013   .     S
H1034  O1064   1.011   .     S
H1035  O1066   1.014   .     S
H1036  O1068   1.013   .     S
O1044  Cu748   1.976   1_565 S
O1045  Cu748   1.975   1_565 S
O1048  Cu747   1.974   1_565 S
O1052  Cu882   1.976   1_655 S
O1063  Cu881   1.976   1_655 S
O1084  Cu882   1.975   1_655 S
O1087  Cu881   1.974   1_655 S
O1088  Cu747   1.976   1_565 S
Br1089 C1152   1.931   .     S
Br1090 C1098   1.926   .     S
Br1091 C1099   1.932   .     S
Br1092 C1100   1.929   .     S
Br1093 C1101   1.927   .     S
Br1094 C1102   1.931   .     S
Br1095 C1103   1.930   .     S
Br1096 C1104   1.929   .     S
C1097  O1177   1.294   .     A
C1097  O1210   1.320   .     A
C1097  C1126   1.484   .     S
C1098  N1173   1.376   .     A
C1098  C147    1.421   1_456 S
C1099  N1310   1.375   .     S
C1100  C200    1.422   1_556 S
C1100  N1309   1.376   .     S
C1101  N1448   1.374   .     S
C1102  N1175   1.376   .     A
C1102  C15     1.421   1_556 S
C1103  N1176   1.376   .     A
C1104  C13     1.422   1_556 S
C1104  N1447   1.376   .     S
C1105  C1124   1.417   .     A
C1105  C1116   1.403   .     A
C1105  C1132   1.489   .     S
C1106  C1133   1.497   .     S
C1106  C1123   1.411   .     A
C1106  C1117   1.401   .     A
C1107  C1114   1.405   .     A
C1107  C1134   1.489   .     S
C1107  C1123   1.418   .     A
C1108  O1199   1.291   .     A
C1108  O1188   1.316   .     A
C1108  C1125   1.477   .     S
C1109  C1124   1.410   .     A
C1109  C1115   1.401   .     A
C1109  C1135   1.498   .     S
C1110  C1136   1.504   .     S
C1110  C1126   1.429   .     A
C1110  C1121   1.400   .     A
C1111  C1137   1.480   .     S
C1111  C1125   1.404   .     A
C1111  C1122   1.397   .     A
C1112  C1125   1.426   .     A
C1112  C1138   1.491   .     S
C1112  C1118   1.399   .     A
C1113  C1120   1.401   .     A
C1113  C1139   1.484   .     S
C1113  C1126   1.407   .     A
C1114  C1140   1.487   .     S
C1114  C1128   1.422   .     A
C1115  C1142   1.500   .     S
C1115  C1127   1.420   .     A
C1116  C1143   1.484   .     S
C1116  C1127   1.422   .     A
C1117  C1144   1.497   .     S
C1117  C1128   1.413   .     A
C1118  C1145   1.476   .     S
C1118  C1131   1.402   .     A
C1119  O1223   1.310   .     A
C1119  O1220   1.300   .     A
C1119  C1124   1.482   .     S
C1120  C1129   1.417   .     A
C1120  C1146   1.492   .     S
C1121  C1147   1.485   .     S
C1121  C1129   1.407   .     A
C1122  C1148   1.485   .     S
C1122  C1131   1.416   .     A
C1123  C1130   1.484   .     S
C1127  C1151   1.487   .     S
C1128  C1150   1.487   .     S
C1129  C1149   1.485   .     S
C1130  O1221   1.310   .     A
C1130  O1222   1.301   .     A
C1131  C1141   1.480   .     S
C1132  O1186   1.396   .     S
C1132  O1185   1.221   .     D
C1133  O1187   1.221   .     D
C1133  O1189   1.399   .     S
C1134  O1190   1.222   .     D
C1134  O1191   1.396   .     S
C1135  O1193   1.400   .     S
C1135  O1192   1.221   .     D
C1136  O1195   1.400   .     S
C1136  O1194   1.218   .     D
C1137  O1196   1.222   .     D
C1137  O1197   1.395   .     S
C1138  O1198   1.222   .     D
C1138  O1200   1.398   .     S
C1139  O1201   1.221   .     D
C1139  O1202   1.397   .     S
C1140  O1204   1.396   .     S
C1140  O1203   1.220   .     D
C1141  O1224   1.312   .     A
C1141  O1180   1.295   .     A
C1142  O1206   1.400   .     S
C1142  O1205   1.218   .     D
C1143  O1207   1.219   .     D
C1143  O1208   1.397   .     S
C1144  O1211   1.399   .     S
C1144  O1209   1.221   .     D
C1145  O1213   1.394   .     S
C1145  O1212   1.222   .     D
C1146  O1215   1.395   .     S
C1146  O1214   1.220   .     D
C1147  O1216   1.223   .     D
C1147  O1217   1.395   .     S
C1148  O1219   1.393   .     S
C1148  O1218   1.223   .     D
C1149  O1178   1.303   .     A
C1149  O1179   1.310   .     A
C1150  O1184   1.311   .     A
C1150  O1181   1.302   .     A
C1151  O1182   1.307   .     A
C1151  O1183   1.306   .     A
C1152  N1174   1.376   .     A
C1152  C692    1.422   1_455 S
Cu1153 O1177   1.976   .     S
Cu1153 N1173   2.028   .     S
Cu1153 O1221   1.975   .     S
Cu1153 Cu1154  2.699   .     S
Cu1153 O1335   1.976   1_455 S
Cu1153 O1359   1.974   1_455 S
Cu1154 O1324   1.976   1_455 S
Cu1154 O1356   1.975   1_455 S
Cu1154 N1174   2.028   .     S
Cu1154 O1210   1.976   .     S
Cu1154 O1222   1.974   .     S
Cu1155 O1182   1.975   .     S
Cu1155 O1179   1.976   .     S
Cu1155 Cu1156  2.699   .     S
Cu1155 N1175   2.028   .     S
Cu1155 O1456   1.974   1_545 S
Cu1155 O1496   1.976   1_545 S
Cu1156 O1178   1.976   .     S
Cu1156 O1183   1.974   .     S
Cu1156 N1176   2.028   .     S
Cu1156 O1452   1.976   1_545 S
Cu1156 O1453   1.975   1_545 S
H1157  O1186   1.013   .     S
H1158  O1206   1.014   .     S
H1159  O1208   1.013   .     S
H1160  O1211   1.014   .     S
H1161  O1213   1.011   .     S
H1162  O1215   1.010   .     S
H1163  O1217   1.014   .     S
H1164  O1219   1.010   .     S
H1165  O1189   1.014   .     S
H1166  O1191   1.013   .     S
H1167  O1193   1.014   .     S
H1168  O1195   1.014   .     S
H1169  O1197   1.013   .     S
H1170  O1200   1.011   .     S
H1171  O1202   1.014   .     S
H1172  O1204   1.013   .     S
N1173  C1236   1.376   1_455 S
N1174  C1235   1.375   1_455 S
N1175  C1376   1.376   1_545 S
N1176  C1373   1.374   1_545 S
O1180  Cu1428  1.976   .     S
O1181  Cu1428  1.975   .     S
O1184  Cu1427  1.974   .     S
O1188  Cu1290  1.976   .     S
O1199  Cu1289  1.976   .     S
O1220  Cu1290  1.975   .     S
O1223  Cu1289  1.974   .     S
O1224  Cu1427  1.976   .     S
Br1225 C1288   1.931   .     S
Br1226 C1234   1.926   .     S
Br1227 C1235   1.932   .     S
Br1228 C1236   1.929   .     S
Br1229 C1237   1.927   .     S
Br1230 C1238   1.931   .     S
Br1231 C1239   1.930   .     S
Br1232 C1240   1.929   .     S
C1233  O1313   1.294   .     A
C1233  O1346   1.320   .     A
C1233  C1262   1.484   .     S
C1234  N1309   1.376   .     A
C1234  C11     1.421   1_556 S
C1235  C554    1.421   1_655 S
C1235  N1174   1.375   1_655 S
C1236  C64     1.422   1_656 S
C1236  N1173   1.376   1_655 S
C1237  N1584   1.374   .     S
C1238  N1311   1.376   .     A
C1238  C151    1.421   1_556 S
C1239  N1312   1.376   .     A
C1240  C149    1.422   1_556 S
C1240  N1583   1.376   .     S
C1241  C1260   1.417   .     A
C1241  C1252   1.403   .     A
C1241  C1268   1.489   .     S
C1242  C1269   1.497   .     S
C1242  C1259   1.411   .     A
C1242  C1253   1.401   .     A
C1243  C1250   1.405   .     A
C1243  C1270   1.489   .     S
C1243  C1259   1.418   .     A
C1244  O1335   1.291   .     A
C1244  O1324   1.316   .     A
C1244  C1261   1.477   .     S
C1245  C1260   1.410   .     A
C1245  C1251   1.401   .     A
C1245  C1271   1.498   .     S
C1246  C1272   1.504   .     S
C1246  C1262   1.429   .     A
C1246  C1257   1.400   .     A
C1247  C1273   1.480   .     S
C1247  C1261   1.404   .     A
C1247  C1258   1.397   .     A
C1248  C1261   1.426   .     A
C1248  C1274   1.491   .     S
C1248  C1254   1.399   .     A
C1249  C1256   1.401   .     A
C1249  C1275   1.484   .     S
C1249  C1262   1.407   .     A
C1250  C1276   1.487   .     S
C1250  C1264   1.422   .     A
C1251  C1278   1.500   .     S
C1251  C1263   1.420   .     A
C1252  C1279   1.484   .     S
C1252  C1263   1.422   .     A
C1253  C1280   1.497   .     S
C1253  C1264   1.413   .     A
C1254  C1281   1.476   .     S
C1254  C1267   1.402   .     A
C1255  O1359   1.310   .     A
C1255  O1356   1.300   .     A
C1255  C1260   1.482   .     S
C1256  C1265   1.417   .     A
C1256  C1282   1.492   .     S
C1257  C1283   1.485   .     S
C1257  C1265   1.407   .     A
C1258  C1284   1.485   .     S
C1258  C1267   1.416   .     A
C1259  C1266   1.484   .     S
C1263  C1287   1.487   .     S
C1264  C1286   1.487   .     S
C1265  C1285   1.485   .     S
C1266  O1357   1.310   .     A
C1266  O1358   1.301   .     A
C1267  C1277   1.480   .     S
C1268  O1322   1.396   .     S
C1268  O1321   1.221   .     D
C1269  O1323   1.221   .     D
C1269  O1325   1.399   .     S
C1270  O1326   1.222   .     D
C1270  O1327   1.396   .     S
C1271  O1329   1.400   .     S
C1271  O1328   1.221   .     D
C1272  O1331   1.400   .     S
C1272  O1330   1.218   .     D
C1273  O1332   1.222   .     D
C1273  O1333   1.395   .     S
C1274  O1334   1.222   .     D
C1274  O1336   1.398   .     S
C1275  O1337   1.221   .     D
C1275  O1338   1.397   .     S
C1276  O1340   1.396   .     S
C1276  O1339   1.220   .     D
C1277  O1360   1.312   .     A
C1277  O1316   1.295   .     A
C1278  O1342   1.400   .     S
C1278  O1341   1.218   .     D
C1279  O1343   1.219   .     D
C1279  O1344   1.397   .     S
C1280  O1347   1.399   .     S
C1280  O1345   1.221   .     D
C1281  O1349   1.394   .     S
C1281  O1348   1.222   .     D
C1282  O1351   1.395   .     S
C1282  O1350   1.220   .     D
C1283  O1352   1.223   .     D
C1283  O1353   1.395   .     S
C1284  O1355   1.393   .     S
C1284  O1354   1.223   .     D
C1285  O1314   1.303   .     A
C1285  O1315   1.310   .     A
C1286  O1320   1.311   .     A
C1286  O1317   1.302   .     A
C1287  O1318   1.307   .     A
C1287  O1319   1.306   .     A
C1288  N1310   1.376   .     A
Cu1289 O1313   1.976   .     S
Cu1289 N1309   2.028   .     S
Cu1289 O1357   1.975   .     S
Cu1289 Cu1290  2.699   .     S
Cu1290 N1310   2.028   .     S
Cu1290 O1346   1.976   .     S
Cu1290 O1358   1.974   .     S
Cu1291 O1318   1.975   .     S
Cu1291 O1315   1.976   .     S
Cu1291 Cu1292  2.699   .     S
Cu1291 N1311   2.028   .     S
Cu1291 O1592   1.974   1_545 S
Cu1291 O1632   1.976   1_545 S
Cu1292 O1314   1.976   .     S
Cu1292 O1319   1.974   .     S
Cu1292 N1312   2.028   .     S
Cu1292 O1588   1.976   1_545 S
Cu1292 O1589   1.975   1_545 S
H1293  O1322   1.013   .     S
H1294  O1342   1.014   .     S
H1295  O1344   1.013   .     S
H1296  O1347   1.014   .     S
H1297  O1349   1.011   .     S
H1298  O1351   1.010   .     S
H1299  O1353   1.014   .     S
H1300  O1355   1.010   .     S
H1301  O1325   1.014   .     S
H1302  O1327   1.013   .     S
H1303  O1329   1.014   .     S
H1304  O1331   1.014   .     S
H1305  O1333   1.013   .     S
H1306  O1336   1.011   .     S
H1307  O1338   1.014   .     S
H1308  O1340   1.013   .     S
N1311  C1512   1.376   1_545 S
N1312  C1509   1.374   1_545 S
O1316  Cu1564  1.976   .     S
O1317  Cu1564  1.975   .     S
O1320  Cu1563  1.974   .     S
O1324  Cu1154  1.976   1_655 S
O1335  Cu1153  1.976   1_655 S
O1356  Cu1154  1.975   1_655 S
O1359  Cu1153  1.974   1_655 S
O1360  Cu1563  1.976   .     S
Br1361 C1424   1.931   .     S
Br1362 C1370   1.926   .     S
Br1363 C1371   1.932   .     S
Br1364 C1372   1.929   .     S
Br1365 C1373   1.927   .     S
Br1366 C1374   1.931   .     S
Br1367 C1375   1.930   .     S
Br1368 C1376   1.929   .     S
C1369  O1449   1.294   .     A
C1369  O1482   1.320   .     A
C1369  C1398   1.484   .     S
C1370  N1445   1.376   .     A
C1370  C419    1.421   1_456 S
C1371  N1582   1.375   .     S
C1372  C472    1.422   1_556 S
C1372  N1581   1.376   .     S
C1373  N1176   1.374   1_565 S
C1374  N1447   1.376   .     A
C1374  C287    1.421   1_556 S
C1375  N1448   1.376   .     A
C1376  C285    1.422   1_556 S
C1376  N1175   1.376   1_565 S
C1377  C1396   1.417   .     A
C1377  C1388   1.403   .     A
C1377  C1404   1.489   .     S
C1378  C1405   1.497   .     S
C1378  C1395   1.411   .     A
C1378  C1389   1.401   .     A
C1379  C1386   1.405   .     A
C1379  C1406   1.489   .     S
C1379  C1395   1.418   .     A
C1380  O1471   1.291   .     A
C1380  O1460   1.316   .     A
C1380  C1397   1.477   .     S
C1381  C1396   1.410   .     A
C1381  C1387   1.401   .     A
C1381  C1407   1.498   .     S
C1382  C1408   1.504   .     S
C1382  C1398   1.429   .     A
C1382  C1393   1.400   .     A
C1383  C1409   1.480   .     S
C1383  C1397   1.404   .     A
C1383  C1394   1.397   .     A
C1384  C1397   1.426   .     A
C1384  C1410   1.491   .     S
C1384  C1390   1.399   .     A
C1385  C1392   1.401   .     A
C1385  C1411   1.484   .     S
C1385  C1398   1.407   .     A
C1386  C1412   1.487   .     S
C1386  C1400   1.422   .     A
C1387  C1414   1.500   .     S
C1387  C1399   1.420   .     A
C1388  C1415   1.484   .     S
C1388  C1399   1.422   .     A
C1389  C1416   1.497   .     S
C1389  C1400   1.413   .     A
C1390  C1417   1.476   .     S
C1390  C1403   1.402   .     A
C1391  O1495   1.310   .     A
C1391  O1492   1.300   .     A
C1391  C1396   1.482   .     S
C1392  C1401   1.417   .     A
C1392  C1418   1.492   .     S
C1393  C1419   1.485   .     S
C1393  C1401   1.407   .     A
C1394  C1420   1.485   .     S
C1394  C1403   1.416   .     A
C1395  C1402   1.484   .     S
C1399  C1423   1.487   .     S
C1400  C1422   1.487   .     S
C1401  C1421   1.485   .     S
C1402  O1493   1.310   .     A
C1402  O1494   1.301   .     A
C1403  C1413   1.480   .     S
C1404  O1458   1.396   .     S
C1404  O1457   1.221   .     D
C1405  O1459   1.221   .     D
C1405  O1461   1.399   .     S
C1406  O1462   1.222   .     D
C1406  O1463   1.396   .     S
C1407  O1465   1.400   .     S
C1407  O1464   1.221   .     D
C1408  O1467   1.400   .     S
C1408  O1466   1.218   .     D
C1409  O1468   1.222   .     D
C1409  O1469   1.395   .     S
C1410  O1470   1.222   .     D
C1410  O1472   1.398   .     S
C1411  O1473   1.221   .     D
C1411  O1474   1.397   .     S
C1412  O1476   1.396   .     S
C1412  O1475   1.220   .     D
C1413  O1496   1.312   .     A
C1413  O1452   1.295   .     A
C1414  O1478   1.400   .     S
C1414  O1477   1.218   .     D
C1415  O1479   1.219   .     D
C1415  O1480   1.397   .     S
C1416  O1483   1.399   .     S
C1416  O1481   1.221   .     D
C1417  O1485   1.394   .     S
C1417  O1484   1.222   .     D
C1418  O1487   1.395   .     S
C1418  O1486   1.220   .     D
C1419  O1488   1.223   .     D
C1419  O1489   1.395   .     S
C1420  O1491   1.393   .     S
C1420  O1490   1.223   .     D
C1421  O1450   1.303   .     A
C1421  O1451   1.310   .     A
C1422  O1456   1.311   .     A
C1422  O1453   1.302   .     A
C1423  O1454   1.307   .     A
C1423  O1455   1.306   .     A
C1424  N1446   1.376   .     A
C1424  C964    1.422   1_455 S
Cu1425 O1449   1.976   .     S
Cu1425 N1445   2.028   .     S
Cu1425 O1493   1.975   .     S
Cu1425 Cu1426  2.699   .     S
Cu1425 O1607   1.976   1_455 S
Cu1425 O1631   1.974   1_455 S
Cu1426 O1596   1.976   1_455 S
Cu1426 O1628   1.975   1_455 S
Cu1426 N1446   2.028   .     S
Cu1426 O1482   1.976   .     S
Cu1426 O1494   1.974   .     S
Cu1427 O1454   1.975   .     S
Cu1427 O1451   1.976   .     S
Cu1427 Cu1428  2.699   .     S
Cu1427 N1447   2.028   .     S
Cu1428 O1450   1.976   .     S
Cu1428 O1455   1.974   .     S
Cu1428 N1448   2.028   .     S
H1429  O1458   1.013   .     S
H1430  O1478   1.014   .     S
H1431  O1480   1.013   .     S
H1432  O1483   1.014   .     S
H1433  O1485   1.011   .     S
H1434  O1487   1.010   .     S
H1435  O1489   1.014   .     S
H1436  O1491   1.010   .     S
H1437  O1461   1.014   .     S
H1438  O1463   1.013   .     S
H1439  O1465   1.014   .     S
H1440  O1467   1.014   .     S
H1441  O1469   1.013   .     S
H1442  O1472   1.011   .     S
H1443  O1474   1.014   .     S
H1444  O1476   1.013   .     S
N1445  C1508   1.376   1_455 S
N1446  C1507   1.375   1_455 S
O1452  Cu1156  1.976   1_565 S
O1453  Cu1156  1.975   1_565 S
O1456  Cu1155  1.974   1_565 S
O1460  Cu1562  1.976   .     S
O1471  Cu1561  1.976   .     S
O1492  Cu1562  1.975   .     S
O1495  Cu1561  1.974   .     S
O1496  Cu1155  1.976   1_565 S
Br1497 C1560   1.931   .     S
Br1498 C1506   1.926   .     S
Br1499 C1507   1.932   .     S
Br1500 C1508   1.929   .     S
Br1501 C1509   1.927   .     S
Br1502 C1510   1.931   .     S
Br1503 C1511   1.930   .     S
Br1504 C1512   1.929   .     S
C1505  O1585   1.294   .     A
C1505  O1618   1.320   .     A
C1505  C1534   1.484   .     S
C1506  N1581   1.376   .     A
C1506  C283    1.421   1_556 S
C1507  C826    1.421   1_655 S
C1507  N1446   1.375   1_655 S
C1508  C336    1.422   1_656 S
C1508  N1445   1.376   1_655 S
C1509  N1312   1.374   1_565 S
C1510  N1583   1.376   .     A
C1510  C423    1.421   1_556 S
C1511  N1584   1.376   .     A
C1512  C421    1.422   1_556 S
C1512  N1311   1.376   1_565 S
C1513  C1532   1.417   .     A
C1513  C1524   1.403   .     A
C1513  C1540   1.489   .     S
C1514  C1541   1.497   .     S
C1514  C1531   1.411   .     A
C1514  C1525   1.401   .     A
C1515  C1522   1.405   .     A
C1515  C1542   1.489   .     S
C1515  C1531   1.418   .     A
C1516  O1607   1.291   .     A
C1516  O1596   1.316   .     A
C1516  C1533   1.477   .     S
C1517  C1532   1.410   .     A
C1517  C1523   1.401   .     A
C1517  C1543   1.498   .     S
C1518  C1544   1.504   .     S
C1518  C1534   1.429   .     A
C1518  C1529   1.400   .     A
C1519  C1545   1.480   .     S
C1519  C1533   1.404   .     A
C1519  C1530   1.397   .     A
C1520  C1533   1.426   .     A
C1520  C1546   1.491   .     S
C1520  C1526   1.399   .     A
C1521  C1528   1.401   .     A
C1521  C1547   1.484   .     S
C1521  C1534   1.407   .     A
C1522  C1548   1.487   .     S
C1522  C1536   1.422   .     A
C1523  C1550   1.500   .     S
C1523  C1535   1.420   .     A
C1524  C1551   1.484   .     S
C1524  C1535   1.422   .     A
C1525  C1552   1.497   .     S
C1525  C1536   1.413   .     A
C1526  C1553   1.476   .     S
C1526  C1539   1.402   .     A
C1527  O1631   1.310   .     A
C1527  O1628   1.300   .     A
C1527  C1532   1.482   .     S
C1528  C1537   1.417   .     A
C1528  C1554   1.492   .     S
C1529  C1555   1.485   .     S
C1529  C1537   1.407   .     A
C1530  C1556   1.485   .     S
C1530  C1539   1.416   .     A
C1531  C1538   1.484   .     S
C1535  C1559   1.487   .     S
C1536  C1558   1.487   .     S
C1537  C1557   1.485   .     S
C1538  O1629   1.310   .     A
C1538  O1630   1.301   .     A
C1539  C1549   1.480   .     S
C1540  O1594   1.396   .     S
C1540  O1593   1.221   .     D
C1541  O1595   1.221   .     D
C1541  O1597   1.399   .     S
C1542  O1598   1.222   .     D
C1542  O1599   1.396   .     S
C1543  O1601   1.400   .     S
C1543  O1600   1.221   .     D
C1544  O1603   1.400   .     S
C1544  O1602   1.218   .     D
C1545  O1604   1.222   .     D
C1545  O1605   1.395   .     S
C1546  O1606   1.222   .     D
C1546  O1608   1.398   .     S
C1547  O1609   1.221   .     D
C1547  O1610   1.397   .     S
C1548  O1612   1.396   .     S
C1548  O1611   1.220   .     D
C1549  O1632   1.312   .     A
C1549  O1588   1.295   .     A
C1550  O1614   1.400   .     S
C1550  O1613   1.218   .     D
C1551  O1615   1.219   .     D
C1551  O1616   1.397   .     S
C1552  O1619   1.399   .     S
C1552  O1617   1.221   .     D
C1553  O1621   1.394   .     S
C1553  O1620   1.222   .     D
C1554  O1623   1.395   .     S
C1554  O1622   1.220   .     D
C1555  O1624   1.223   .     D
C1555  O1625   1.395   .     S
C1556  O1627   1.393   .     S
C1556  O1626   1.223   .     D
C1557  O1586   1.303   .     A
C1557  O1587   1.310   .     A
C1558  O1592   1.311   .     A
C1558  O1589   1.302   .     A
C1559  O1590   1.307   .     A
C1559  O1591   1.306   .     A
C1560  N1582   1.376   .     A
Cu1561 O1585   1.976   .     S
Cu1561 N1581   2.028   .     S
Cu1561 O1629   1.975   .     S
Cu1561 Cu1562  2.699   .     S
Cu1562 N1582   2.028   .     S
Cu1562 O1618   1.976   .     S
Cu1562 O1630   1.974   .     S
Cu1563 O1590   1.975   .     S
Cu1563 O1587   1.976   .     S
Cu1563 Cu1564  2.699   .     S
Cu1563 N1583   2.028   .     S
Cu1564 O1586   1.976   .     S
Cu1564 O1591   1.974   .     S
Cu1564 N1584   2.028   .     S
H1565  O1594   1.013   .     S
H1566  O1614   1.014   .     S
H1567  O1616   1.013   .     S
H1568  O1619   1.014   .     S
H1569  O1621   1.011   .     S
H1570  O1623   1.010   .     S
H1571  O1625   1.014   .     S
H1572  O1627   1.010   .     S
H1573  O1597   1.014   .     S
H1574  O1599   1.013   .     S
H1575  O1601   1.014   .     S
H1576  O1603   1.014   .     S
H1577  O1605   1.013   .     S
H1578  O1608   1.011   .     S
H1579  O1610   1.014   .     S
H1580  O1612   1.013   .     S
O1588  Cu1292  1.976   1_565 S
O1589  Cu1292  1.975   1_565 S
O1592  Cu1291  1.974   1_565 S
O1596  Cu1426  1.976   1_655 S
O1607  Cu1425  1.976   1_655 S
O1628  Cu1426  1.975   1_655 S
O1631  Cu1425  1.974   1_655 S
O1632  Cu1291  1.976   1_565 S
