data_str_m3_o2_o10_pcu_sym.84
_audit_creation_date              2020-01-03
_audit_creation_method            'Materials Studio'
_symmetry_space_group_name_H-M    'P1'
_symmetry_Int_Tables_number       1
_symmetry_cell_setting            triclinic
loop_
_symmetry_equiv_pos_as_xyz
  x,y,z
_cell_length_a                    25.7720
_cell_length_b                    30.0152
_cell_length_c                    28.3387
_cell_angle_alpha                 90.6085
_cell_angle_beta                  98.5875
_cell_angle_gamma                 89.8868
loop_
_atom_site_label
_atom_site_type_symbol
_atom_site_fract_x
_atom_site_fract_y
_atom_site_fract_z
_atom_site_U_iso_or_equiv
_atom_site_adp_type
_atom_site_occupancy
C1     C     0.16612   0.16380   0.24960   0.00000  Uiso   1.00
C2     C     0.14719   0.21255   0.44407   0.00000  Uiso   1.00
C3     C     0.16735   0.24966   0.02670   0.00000  Uiso   1.00
C4     C     0.16655   0.24923   0.47325   0.00000  Uiso   1.00
C5     C     0.06701   0.24995   0.23755   0.00000  Uiso   1.00
C6     C     0.26633   0.25001   0.26246   0.00000  Uiso   1.00
C7     C     0.01203   0.24981   0.23083   0.00000  Uiso   1.00
C8     C     0.32134   0.25007   0.26921   0.00000  Uiso   1.00
C9     C     0.19422   0.04836   0.29149   0.00000  Uiso   1.00
C10    C     0.19666   0.45152   0.21796   0.00000  Uiso   1.00
C11    C     0.19067   0.09421   0.29070   0.00000  Uiso   1.00
C12    C     0.16611   0.33616   0.25025   0.00000  Uiso   1.00
C13    C     0.19308   0.40567   0.21751   0.00000  Uiso   1.00
C14    C     0.16766   0.11567   0.24905   0.00000  Uiso   1.00
C15    C     0.16765   0.38422   0.25130   0.00000  Uiso   1.00
C16    C     0.14788   0.09069   0.20771   0.00000  Uiso   1.00
C17    C     0.14552   0.40910   0.28594   0.00000  Uiso   1.00
C18    C     0.15210   0.04472   0.20883   0.00000  Uiso   1.00
C19    C     0.14973   0.45507   0.28627   0.00000  Uiso   1.00
C20    C     0.17498   0.02383   0.25059   0.00000  Uiso   1.00
C21    C     0.17499   0.47601   0.25229   0.00000  Uiso   1.00
C22    C     0.12126   0.11076   0.16456   0.00000  Uiso   1.00
C23    C     0.12081   0.24254   0.04597   0.00000  Uiso   1.00
C24    C     0.11644   0.38884   0.31997   0.00000  Uiso   1.00
C25    C     0.26389   0.26311   0.04286   0.00000  Uiso   1.00
C26    C     0.12855   0.17273   0.46418   0.00000  Uiso   1.00
C27    C     0.18549   0.28610   0.45069   0.00000  Uiso   1.00
C28    C     0.12133   0.24260   0.09566   0.00000  Uiso   1.00
C29    C     0.18544   0.28576   0.40106   0.00000  Uiso   1.00
C30    C     0.21234   0.25743   0.10866   0.00000  Uiso   1.00
C31    C     0.14751   0.21394   0.39440   0.00000  Uiso   1.00
C32    C     0.21391   0.25717   0.05914   0.00000  Uiso   1.00
H33    H     0.21174   0.03194   0.32388   0.00000  Uiso   1.00
H34    H     0.21058   0.38695   0.19101   0.00000  Uiso   1.00
H35    H     0.13618   0.02498   0.17773   0.00000  Uiso   1.00
H36    H     0.13198   0.47476   0.31196   0.00000  Uiso   1.00
H37    H     0.08519   0.23674   0.10967   0.00000  Uiso   1.00
H38    H     0.20044   0.31426   0.38438   0.00000  Uiso   1.00
H39    H     0.21606   0.46798   0.19155   0.00000  Uiso   1.00
H40    H     0.08406   0.23707   0.02263   0.00000  Uiso   1.00
H41    H     0.20018   0.31517   0.47138   0.00000  Uiso   1.00
H42    H     0.24801   0.26340   0.13317   0.00000  Uiso   1.00
H43    H     0.13263   0.18590   0.37212   0.00000  Uiso   1.00
H44    H     0.32483   0.24944   0.19441   0.00000  Uiso   1.00
H45    H     0.00860   0.25037   0.30564   0.00000  Uiso   1.00
H46    H     0.20630   0.11290   0.32257   0.00000  Uiso   1.00
N47    N     0.16667   0.24999   0.12623   0.00000  Uiso   1.00
N48    N     0.16667   0.25001   0.37376   0.00000  Uiso   1.00
N49    N     0.09993   0.12678   0.13002   0.00000  Uiso   1.00
N50    N     0.09314   0.37264   0.34720   0.00000  Uiso   1.00
N51    N     0.30398   0.26784   0.02985   0.00000  Uiso   1.00
N52    N     0.11361   0.14079   0.48031   0.00000  Uiso   1.00
O53    O     0.16667   0.18453   0.28974   0.00000  Uiso   1.00
O54    O     0.16666   0.31546   0.21026   0.00000  Uiso   1.00
O55    O     0.16667   0.18453   0.21026   0.00000  Uiso   1.00
O56    O     0.16666   0.31547   0.28974   0.00000  Uiso   1.00
O57    O     0.09058   0.25000   0.28044   0.00000  Uiso   1.00
O58    O     0.24275   0.25000   0.21955   0.00000  Uiso   1.00
O59    O     0.09058   0.24999   0.20096   0.00000  Uiso   1.00
O60    O     0.24275   0.25000   0.29903   0.00000  Uiso   1.00
Zn61   Zn    0.16667   0.25000   0.30307   0.00000  Uiso   1.00
Zn62   Zn    0.16667   0.24999   0.19693   0.00000  Uiso   1.00
C63    C     0.49945   0.16380   0.24960   0.00000  Uiso   1.00
C64    C     0.48053   0.21255   0.44407   0.00000  Uiso   1.00
C65    C     0.50069   0.24966   0.02670   0.00000  Uiso   1.00
C66    C     0.49989   0.24923   0.47325   0.00000  Uiso   1.00
C67    C     0.40035   0.24995   0.23755   0.00000  Uiso   1.00
C68    C     0.59966   0.25001   0.26246   0.00000  Uiso   1.00
C69    C     0.34536   0.24981   0.23083   0.00000  Uiso   1.00
C70    C     0.65468   0.25007   0.26921   0.00000  Uiso   1.00
C71    C     0.52755   0.04836   0.29149   0.00000  Uiso   1.00
C72    C     0.53000   0.45152   0.21796   0.00000  Uiso   1.00
C73    C     0.52400   0.09421   0.29070   0.00000  Uiso   1.00
C74    C     0.49944   0.33616   0.25025   0.00000  Uiso   1.00
C75    C     0.52641   0.40567   0.21751   0.00000  Uiso   1.00
C76    C     0.50099   0.11567   0.24905   0.00000  Uiso   1.00
C77    C     0.50098   0.38422   0.25130   0.00000  Uiso   1.00
C78    C     0.48122   0.09069   0.20771   0.00000  Uiso   1.00
C79    C     0.47885   0.40910   0.28594   0.00000  Uiso   1.00
C80    C     0.48544   0.04472   0.20883   0.00000  Uiso   1.00
C81    C     0.48306   0.45507   0.28627   0.00000  Uiso   1.00
C82    C     0.50832   0.02383   0.25059   0.00000  Uiso   1.00
C83    C     0.50833   0.47601   0.25229   0.00000  Uiso   1.00
C84    C     0.45459   0.11076   0.16456   0.00000  Uiso   1.00
C85    C     0.45414   0.24254   0.04597   0.00000  Uiso   1.00
C86    C     0.44977   0.38884   0.31997   0.00000  Uiso   1.00
C87    C     0.59722   0.26311   0.04286   0.00000  Uiso   1.00
C88    C     0.46188   0.17273   0.46418   0.00000  Uiso   1.00
C89    C     0.51883   0.28610   0.45069   0.00000  Uiso   1.00
C90    C     0.45466   0.24260   0.09566   0.00000  Uiso   1.00
C91    C     0.51878   0.28576   0.40106   0.00000  Uiso   1.00
C92    C     0.54567   0.25743   0.10866   0.00000  Uiso   1.00
C93    C     0.48084   0.21394   0.39440   0.00000  Uiso   1.00
C94    C     0.54724   0.25717   0.05914   0.00000  Uiso   1.00
H95    H     0.54507   0.03194   0.32388   0.00000  Uiso   1.00
H96    H     0.54391   0.38695   0.19101   0.00000  Uiso   1.00
H97    H     0.46952   0.02498   0.17773   0.00000  Uiso   1.00
H98    H     0.46531   0.47476   0.31196   0.00000  Uiso   1.00
H99    H     0.41852   0.23674   0.10967   0.00000  Uiso   1.00
H100   H     0.53377   0.31426   0.38438   0.00000  Uiso   1.00
H101   H     0.54939   0.46798   0.19155   0.00000  Uiso   1.00
H102   H     0.41740   0.23707   0.02263   0.00000  Uiso   1.00
H103   H     0.53352   0.31517   0.47138   0.00000  Uiso   1.00
H104   H     0.58134   0.26340   0.13317   0.00000  Uiso   1.00
H105   H     0.46596   0.18590   0.37212   0.00000  Uiso   1.00
H106   H     0.65817   0.24944   0.19441   0.00000  Uiso   1.00
H107   H     0.34193   0.25037   0.30564   0.00000  Uiso   1.00
H108   H     0.53964   0.11290   0.32257   0.00000  Uiso   1.00
N109   N     0.50000   0.24999   0.12623   0.00000  Uiso   1.00
N110   N     0.50000   0.25001   0.37376   0.00000  Uiso   1.00
N111   N     0.43327   0.12678   0.13002   0.00000  Uiso   1.00
N112   N     0.42648   0.37264   0.34720   0.00000  Uiso   1.00
N113   N     0.63732   0.26784   0.02985   0.00000  Uiso   1.00
N114   N     0.44694   0.14079   0.48031   0.00000  Uiso   1.00
O115   O     0.50000   0.18453   0.28974   0.00000  Uiso   1.00
O116   O     0.50000   0.31546   0.21026   0.00000  Uiso   1.00
O117   O     0.50000   0.18453   0.21026   0.00000  Uiso   1.00
O118   O     0.50000   0.31547   0.28974   0.00000  Uiso   1.00
O119   O     0.42392   0.25000   0.28044   0.00000  Uiso   1.00
O120   O     0.57608   0.25000   0.21955   0.00000  Uiso   1.00
O121   O     0.42392   0.24999   0.20096   0.00000  Uiso   1.00
O122   O     0.57608   0.25000   0.29903   0.00000  Uiso   1.00
Zn123  Zn    0.50000   0.25000   0.30307   0.00000  Uiso   1.00
Zn124  Zn    0.50000   0.24999   0.19693   0.00000  Uiso   1.00
C125   C     0.83278   0.16380   0.24960   0.00000  Uiso   1.00
C126   C     0.81386   0.21255   0.44407   0.00000  Uiso   1.00
C127   C     0.83402   0.24966   0.02670   0.00000  Uiso   1.00
C128   C     0.83322   0.24923   0.47325   0.00000  Uiso   1.00
C129   C     0.73368   0.24995   0.23755   0.00000  Uiso   1.00
C130   C     0.93300   0.25001   0.26246   0.00000  Uiso   1.00
C131   C     0.67870   0.24981   0.23083   0.00000  Uiso   1.00
C132   C     0.98801   0.25007   0.26921   0.00000  Uiso   1.00
C133   C     0.86089   0.04836   0.29149   0.00000  Uiso   1.00
C134   C     0.86333   0.45152   0.21796   0.00000  Uiso   1.00
C135   C     0.85733   0.09421   0.29070   0.00000  Uiso   1.00
C136   C     0.83278   0.33616   0.25025   0.00000  Uiso   1.00
C137   C     0.85975   0.40567   0.21751   0.00000  Uiso   1.00
C138   C     0.83433   0.11567   0.24905   0.00000  Uiso   1.00
C139   C     0.83431   0.38422   0.25130   0.00000  Uiso   1.00
C140   C     0.81455   0.09069   0.20771   0.00000  Uiso   1.00
C141   C     0.81219   0.40910   0.28594   0.00000  Uiso   1.00
C142   C     0.81877   0.04472   0.20883   0.00000  Uiso   1.00
C143   C     0.81640   0.45507   0.28627   0.00000  Uiso   1.00
C144   C     0.84165   0.02383   0.25059   0.00000  Uiso   1.00
C145   C     0.84166   0.47601   0.25229   0.00000  Uiso   1.00
C146   C     0.78793   0.11076   0.16456   0.00000  Uiso   1.00
C147   C     0.78747   0.24254   0.04597   0.00000  Uiso   1.00
C148   C     0.78311   0.38884   0.31997   0.00000  Uiso   1.00
C149   C     0.93056   0.26311   0.04286   0.00000  Uiso   1.00
C150   C     0.79521   0.17273   0.46418   0.00000  Uiso   1.00
C151   C     0.85216   0.28610   0.45069   0.00000  Uiso   1.00
C152   C     0.78800   0.24260   0.09566   0.00000  Uiso   1.00
C153   C     0.85211   0.28576   0.40106   0.00000  Uiso   1.00
C154   C     0.87900   0.25743   0.10866   0.00000  Uiso   1.00
C155   C     0.81417   0.21394   0.39440   0.00000  Uiso   1.00
C156   C     0.88058   0.25717   0.05914   0.00000  Uiso   1.00
H157   H     0.87841   0.03194   0.32388   0.00000  Uiso   1.00
H158   H     0.87724   0.38695   0.19101   0.00000  Uiso   1.00
H159   H     0.80285   0.02498   0.17773   0.00000  Uiso   1.00
H160   H     0.79864   0.47476   0.31196   0.00000  Uiso   1.00
H161   H     0.75186   0.23674   0.10967   0.00000  Uiso   1.00
H162   H     0.86711   0.31426   0.38438   0.00000  Uiso   1.00
H163   H     0.88273   0.46798   0.19155   0.00000  Uiso   1.00
H164   H     0.75073   0.23707   0.02263   0.00000  Uiso   1.00
H165   H     0.86685   0.31517   0.47138   0.00000  Uiso   1.00
H166   H     0.91467   0.26340   0.13317   0.00000  Uiso   1.00
H167   H     0.79929   0.18590   0.37212   0.00000  Uiso   1.00
H168   H     0.99150   0.24944   0.19441   0.00000  Uiso   1.00
H169   H     0.67527   0.25037   0.30564   0.00000  Uiso   1.00
H170   H     0.87297   0.11290   0.32257   0.00000  Uiso   1.00
N171   N     0.83333   0.24999   0.12623   0.00000  Uiso   1.00
N172   N     0.83333   0.25001   0.37376   0.00000  Uiso   1.00
N173   N     0.76660   0.12678   0.13002   0.00000  Uiso   1.00
N174   N     0.75981   0.37264   0.34720   0.00000  Uiso   1.00
N175   N     0.97065   0.26784   0.02985   0.00000  Uiso   1.00
N176   N     0.78027   0.14079   0.48031   0.00000  Uiso   1.00
O177   O     0.83334   0.18453   0.28974   0.00000  Uiso   1.00
O178   O     0.83333   0.31546   0.21026   0.00000  Uiso   1.00
O179   O     0.83334   0.18453   0.21026   0.00000  Uiso   1.00
O180   O     0.83333   0.31547   0.28974   0.00000  Uiso   1.00
O181   O     0.75725   0.25000   0.28044   0.00000  Uiso   1.00
O182   O     0.90942   0.25000   0.21955   0.00000  Uiso   1.00
O183   O     0.75725   0.24999   0.20096   0.00000  Uiso   1.00
O184   O     0.90942   0.25000   0.29903   0.00000  Uiso   1.00
Zn185  Zn    0.83333   0.25000   0.30307   0.00000  Uiso   1.00
Zn186  Zn    0.83333   0.24999   0.19693   0.00000  Uiso   1.00
C187   C     0.16612   0.66380   0.24960   0.00000  Uiso   1.00
C188   C     0.14719   0.71255   0.44407   0.00000  Uiso   1.00
C189   C     0.16735   0.74966   0.02670   0.00000  Uiso   1.00
C190   C     0.16655   0.74923   0.47325   0.00000  Uiso   1.00
C191   C     0.06701   0.74995   0.23755   0.00000  Uiso   1.00
C192   C     0.26633   0.75001   0.26246   0.00000  Uiso   1.00
C193   C     0.01203   0.74981   0.23083   0.00000  Uiso   1.00
C194   C     0.32134   0.75007   0.26921   0.00000  Uiso   1.00
C195   C     0.19422   0.54836   0.29149   0.00000  Uiso   1.00
C196   C     0.19666   0.95152   0.21796   0.00000  Uiso   1.00
C197   C     0.19067   0.59421   0.29070   0.00000  Uiso   1.00
C198   C     0.16611   0.83616   0.25025   0.00000  Uiso   1.00
C199   C     0.19308   0.90567   0.21751   0.00000  Uiso   1.00
C200   C     0.16766   0.61567   0.24905   0.00000  Uiso   1.00
C201   C     0.16765   0.88422   0.25130   0.00000  Uiso   1.00
C202   C     0.14788   0.59069   0.20771   0.00000  Uiso   1.00
C203   C     0.14552   0.90910   0.28594   0.00000  Uiso   1.00
C204   C     0.15210   0.54472   0.20883   0.00000  Uiso   1.00
C205   C     0.14973   0.95507   0.28627   0.00000  Uiso   1.00
C206   C     0.17498   0.52383   0.25059   0.00000  Uiso   1.00
C207   C     0.17499   0.97601   0.25229   0.00000  Uiso   1.00
C208   C     0.12126   0.61076   0.16456   0.00000  Uiso   1.00
C209   C     0.12081   0.74254   0.04597   0.00000  Uiso   1.00
C210   C     0.11644   0.88884   0.31997   0.00000  Uiso   1.00
C211   C     0.26389   0.76311   0.04286   0.00000  Uiso   1.00
C212   C     0.12855   0.67273   0.46418   0.00000  Uiso   1.00
C213   C     0.18549   0.78610   0.45069   0.00000  Uiso   1.00
C214   C     0.12133   0.74260   0.09566   0.00000  Uiso   1.00
C215   C     0.18544   0.78576   0.40106   0.00000  Uiso   1.00
C216   C     0.21234   0.75743   0.10866   0.00000  Uiso   1.00
C217   C     0.14751   0.71394   0.39440   0.00000  Uiso   1.00
C218   C     0.21391   0.75717   0.05914   0.00000  Uiso   1.00
H219   H     0.21174   0.53194   0.32388   0.00000  Uiso   1.00
H220   H     0.21058   0.88695   0.19101   0.00000  Uiso   1.00
H221   H     0.13618   0.52498   0.17773   0.00000  Uiso   1.00
H222   H     0.13198   0.97476   0.31196   0.00000  Uiso   1.00
H223   H     0.08519   0.73674   0.10967   0.00000  Uiso   1.00
H224   H     0.20044   0.81426   0.38438   0.00000  Uiso   1.00
H225   H     0.21606   0.96798   0.19155   0.00000  Uiso   1.00
H226   H     0.08406   0.73707   0.02263   0.00000  Uiso   1.00
H227   H     0.20018   0.81517   0.47138   0.00000  Uiso   1.00
H228   H     0.24801   0.76340   0.13317   0.00000  Uiso   1.00
H229   H     0.13263   0.68590   0.37212   0.00000  Uiso   1.00
H230   H     0.32483   0.74944   0.19441   0.00000  Uiso   1.00
H231   H     0.00860   0.75037   0.30564   0.00000  Uiso   1.00
H232   H     0.20630   0.61290   0.32257   0.00000  Uiso   1.00
N233   N     0.16667   0.74999   0.12623   0.00000  Uiso   1.00
N234   N     0.16667   0.75001   0.37376   0.00000  Uiso   1.00
N235   N     0.09993   0.62678   0.13002   0.00000  Uiso   1.00
N236   N     0.09314   0.87264   0.34720   0.00000  Uiso   1.00
N237   N     0.30398   0.76784   0.02985   0.00000  Uiso   1.00
N238   N     0.11361   0.64079   0.48031   0.00000  Uiso   1.00
O239   O     0.16667   0.68453   0.28974   0.00000  Uiso   1.00
O240   O     0.16666   0.81546   0.21026   0.00000  Uiso   1.00
O241   O     0.16667   0.68453   0.21026   0.00000  Uiso   1.00
O242   O     0.16666   0.81547   0.28974   0.00000  Uiso   1.00
O243   O     0.09058   0.75000   0.28044   0.00000  Uiso   1.00
O244   O     0.24275   0.75000   0.21955   0.00000  Uiso   1.00
O245   O     0.09058   0.74999   0.20096   0.00000  Uiso   1.00
O246   O     0.24275   0.75000   0.29903   0.00000  Uiso   1.00
Zn247  Zn    0.16667   0.75000   0.30307   0.00000  Uiso   1.00
Zn248  Zn    0.16667   0.74999   0.19693   0.00000  Uiso   1.00
C249   C     0.49945   0.66380   0.24960   0.00000  Uiso   1.00
C250   C     0.48053   0.71255   0.44407   0.00000  Uiso   1.00
C251   C     0.50069   0.74966   0.02670   0.00000  Uiso   1.00
C252   C     0.49989   0.74923   0.47325   0.00000  Uiso   1.00
C253   C     0.40035   0.74995   0.23755   0.00000  Uiso   1.00
C254   C     0.59966   0.75001   0.26246   0.00000  Uiso   1.00
C255   C     0.34536   0.74981   0.23083   0.00000  Uiso   1.00
C256   C     0.65468   0.75007   0.26921   0.00000  Uiso   1.00
C257   C     0.52755   0.54836   0.29149   0.00000  Uiso   1.00
C258   C     0.53000   0.95152   0.21796   0.00000  Uiso   1.00
C259   C     0.52400   0.59421   0.29070   0.00000  Uiso   1.00
C260   C     0.49944   0.83616   0.25025   0.00000  Uiso   1.00
C261   C     0.52641   0.90567   0.21751   0.00000  Uiso   1.00
C262   C     0.50099   0.61567   0.24905   0.00000  Uiso   1.00
C263   C     0.50098   0.88422   0.25130   0.00000  Uiso   1.00
C264   C     0.48122   0.59069   0.20771   0.00000  Uiso   1.00
C265   C     0.47885   0.90910   0.28594   0.00000  Uiso   1.00
C266   C     0.48544   0.54472   0.20883   0.00000  Uiso   1.00
C267   C     0.48306   0.95507   0.28627   0.00000  Uiso   1.00
C268   C     0.50832   0.52383   0.25059   0.00000  Uiso   1.00
C269   C     0.50833   0.97601   0.25229   0.00000  Uiso   1.00
C270   C     0.45459   0.61076   0.16456   0.00000  Uiso   1.00
C271   C     0.45414   0.74254   0.04597   0.00000  Uiso   1.00
C272   C     0.44977   0.88884   0.31997   0.00000  Uiso   1.00
C273   C     0.59722   0.76311   0.04286   0.00000  Uiso   1.00
C274   C     0.46188   0.67273   0.46418   0.00000  Uiso   1.00
C275   C     0.51883   0.78610   0.45069   0.00000  Uiso   1.00
C276   C     0.45466   0.74260   0.09566   0.00000  Uiso   1.00
C277   C     0.51878   0.78576   0.40106   0.00000  Uiso   1.00
C278   C     0.54567   0.75743   0.10866   0.00000  Uiso   1.00
C279   C     0.48084   0.71394   0.39440   0.00000  Uiso   1.00
C280   C     0.54724   0.75717   0.05914   0.00000  Uiso   1.00
H281   H     0.54507   0.53194   0.32388   0.00000  Uiso   1.00
H282   H     0.54391   0.88695   0.19101   0.00000  Uiso   1.00
H283   H     0.46952   0.52498   0.17773   0.00000  Uiso   1.00
H284   H     0.46531   0.97476   0.31196   0.00000  Uiso   1.00
H285   H     0.41852   0.73674   0.10967   0.00000  Uiso   1.00
H286   H     0.53377   0.81426   0.38438   0.00000  Uiso   1.00
H287   H     0.54939   0.96798   0.19155   0.00000  Uiso   1.00
H288   H     0.41740   0.73707   0.02263   0.00000  Uiso   1.00
H289   H     0.53352   0.81517   0.47138   0.00000  Uiso   1.00
H290   H     0.58134   0.76340   0.13317   0.00000  Uiso   1.00
H291   H     0.46596   0.68590   0.37212   0.00000  Uiso   1.00
H292   H     0.65817   0.74944   0.19441   0.00000  Uiso   1.00
H293   H     0.34193   0.75037   0.30564   0.00000  Uiso   1.00
H294   H     0.53964   0.61290   0.32257   0.00000  Uiso   1.00
N295   N     0.50000   0.74999   0.12623   0.00000  Uiso   1.00
N296   N     0.50000   0.75001   0.37376   0.00000  Uiso   1.00
N297   N     0.43327   0.62678   0.13002   0.00000  Uiso   1.00
N298   N     0.42648   0.87264   0.34720   0.00000  Uiso   1.00
N299   N     0.63732   0.76784   0.02985   0.00000  Uiso   1.00
N300   N     0.44694   0.64079   0.48031   0.00000  Uiso   1.00
O301   O     0.50000   0.68453   0.28974   0.00000  Uiso   1.00
O302   O     0.50000   0.81546   0.21026   0.00000  Uiso   1.00
O303   O     0.50000   0.68453   0.21026   0.00000  Uiso   1.00
O304   O     0.50000   0.81547   0.28974   0.00000  Uiso   1.00
O305   O     0.42392   0.75000   0.28044   0.00000  Uiso   1.00
O306   O     0.57608   0.75000   0.21955   0.00000  Uiso   1.00
O307   O     0.42392   0.74999   0.20096   0.00000  Uiso   1.00
O308   O     0.57608   0.75000   0.29903   0.00000  Uiso   1.00
Zn309  Zn    0.50000   0.75000   0.30307   0.00000  Uiso   1.00
Zn310  Zn    0.50000   0.74999   0.19693   0.00000  Uiso   1.00
C311   C     0.83278   0.66380   0.24960   0.00000  Uiso   1.00
C312   C     0.81386   0.71255   0.44407   0.00000  Uiso   1.00
C313   C     0.83402   0.74966   0.02670   0.00000  Uiso   1.00
C314   C     0.83322   0.74923   0.47325   0.00000  Uiso   1.00
C315   C     0.73368   0.74995   0.23755   0.00000  Uiso   1.00
C316   C     0.93300   0.75001   0.26246   0.00000  Uiso   1.00
C317   C     0.67870   0.74981   0.23083   0.00000  Uiso   1.00
C318   C     0.98801   0.75007   0.26921   0.00000  Uiso   1.00
C319   C     0.86089   0.54836   0.29149   0.00000  Uiso   1.00
C320   C     0.86333   0.95152   0.21796   0.00000  Uiso   1.00
C321   C     0.85733   0.59421   0.29070   0.00000  Uiso   1.00
C322   C     0.83278   0.83616   0.25025   0.00000  Uiso   1.00
C323   C     0.85975   0.90567   0.21751   0.00000  Uiso   1.00
C324   C     0.83433   0.61567   0.24905   0.00000  Uiso   1.00
C325   C     0.83431   0.88422   0.25130   0.00000  Uiso   1.00
C326   C     0.81455   0.59069   0.20771   0.00000  Uiso   1.00
C327   C     0.81219   0.90910   0.28594   0.00000  Uiso   1.00
C328   C     0.81877   0.54472   0.20883   0.00000  Uiso   1.00
C329   C     0.81640   0.95507   0.28627   0.00000  Uiso   1.00
C330   C     0.84165   0.52383   0.25059   0.00000  Uiso   1.00
C331   C     0.84166   0.97601   0.25229   0.00000  Uiso   1.00
C332   C     0.78793   0.61076   0.16456   0.00000  Uiso   1.00
C333   C     0.78747   0.74254   0.04597   0.00000  Uiso   1.00
C334   C     0.78311   0.88884   0.31997   0.00000  Uiso   1.00
C335   C     0.93056   0.76311   0.04286   0.00000  Uiso   1.00
C336   C     0.79521   0.67273   0.46418   0.00000  Uiso   1.00
C337   C     0.85216   0.78610   0.45069   0.00000  Uiso   1.00
C338   C     0.78800   0.74260   0.09566   0.00000  Uiso   1.00
C339   C     0.85211   0.78576   0.40106   0.00000  Uiso   1.00
C340   C     0.87900   0.75743   0.10866   0.00000  Uiso   1.00
C341   C     0.81417   0.71394   0.39440   0.00000  Uiso   1.00
C342   C     0.88058   0.75717   0.05914   0.00000  Uiso   1.00
H343   H     0.87841   0.53194   0.32388   0.00000  Uiso   1.00
H344   H     0.87724   0.88695   0.19101   0.00000  Uiso   1.00
H345   H     0.80285   0.52498   0.17773   0.00000  Uiso   1.00
H346   H     0.79864   0.97476   0.31196   0.00000  Uiso   1.00
H347   H     0.75186   0.73674   0.10967   0.00000  Uiso   1.00
H348   H     0.86711   0.81426   0.38438   0.00000  Uiso   1.00
H349   H     0.88273   0.96798   0.19155   0.00000  Uiso   1.00
H350   H     0.75073   0.73707   0.02263   0.00000  Uiso   1.00
H351   H     0.86685   0.81517   0.47138   0.00000  Uiso   1.00
H352   H     0.91467   0.76340   0.13317   0.00000  Uiso   1.00
H353   H     0.79929   0.68590   0.37212   0.00000  Uiso   1.00
H354   H     0.99150   0.74944   0.19441   0.00000  Uiso   1.00
H355   H     0.67527   0.75037   0.30564   0.00000  Uiso   1.00
H356   H     0.87297   0.61290   0.32257   0.00000  Uiso   1.00
N357   N     0.83333   0.74999   0.12623   0.00000  Uiso   1.00
N358   N     0.83333   0.75001   0.37376   0.00000  Uiso   1.00
N359   N     0.76660   0.62678   0.13002   0.00000  Uiso   1.00
N360   N     0.75981   0.87264   0.34720   0.00000  Uiso   1.00
N361   N     0.97065   0.76784   0.02985   0.00000  Uiso   1.00
N362   N     0.78027   0.64079   0.48031   0.00000  Uiso   1.00
O363   O     0.83334   0.68453   0.28974   0.00000  Uiso   1.00
O364   O     0.83333   0.81546   0.21026   0.00000  Uiso   1.00
O365   O     0.83334   0.68453   0.21026   0.00000  Uiso   1.00
O366   O     0.83333   0.81547   0.28974   0.00000  Uiso   1.00
O367   O     0.75725   0.75000   0.28044   0.00000  Uiso   1.00
O368   O     0.90942   0.75000   0.21955   0.00000  Uiso   1.00
O369   O     0.75725   0.74999   0.20096   0.00000  Uiso   1.00
O370   O     0.90942   0.75000   0.29903   0.00000  Uiso   1.00
Zn371  Zn    0.83333   0.75000   0.30307   0.00000  Uiso   1.00
Zn372  Zn    0.83333   0.74999   0.19693   0.00000  Uiso   1.00
C373   C     0.16612   0.16380   0.74960   0.00000  Uiso   1.00
C374   C     0.14719   0.21255   0.94407   0.00000  Uiso   1.00
C375   C     0.16735   0.24966   0.52670   0.00000  Uiso   1.00
C376   C     0.16655   0.24923   0.97325   0.00000  Uiso   1.00
C377   C     0.06701   0.24995   0.73755   0.00000  Uiso   1.00
C378   C     0.26633   0.25001   0.76246   0.00000  Uiso   1.00
C379   C     0.01203   0.24981   0.73083   0.00000  Uiso   1.00
C380   C     0.32134   0.25007   0.76921   0.00000  Uiso   1.00
C381   C     0.19422   0.04836   0.79149   0.00000  Uiso   1.00
C382   C     0.19666   0.45152   0.71796   0.00000  Uiso   1.00
C383   C     0.19067   0.09421   0.79070   0.00000  Uiso   1.00
C384   C     0.16611   0.33616   0.75025   0.00000  Uiso   1.00
C385   C     0.19308   0.40567   0.71751   0.00000  Uiso   1.00
C386   C     0.16766   0.11567   0.74905   0.00000  Uiso   1.00
C387   C     0.16765   0.38422   0.75130   0.00000  Uiso   1.00
C388   C     0.14788   0.09069   0.70771   0.00000  Uiso   1.00
C389   C     0.14552   0.40910   0.78594   0.00000  Uiso   1.00
C390   C     0.15210   0.04472   0.70883   0.00000  Uiso   1.00
C391   C     0.14973   0.45507   0.78627   0.00000  Uiso   1.00
C392   C     0.17498   0.02383   0.75059   0.00000  Uiso   1.00
C393   C     0.17499   0.47601   0.75229   0.00000  Uiso   1.00
C394   C     0.12126   0.11076   0.66456   0.00000  Uiso   1.00
C395   C     0.12081   0.24254   0.54597   0.00000  Uiso   1.00
C396   C     0.11644   0.38884   0.81997   0.00000  Uiso   1.00
C397   C     0.26389   0.26311   0.54286   0.00000  Uiso   1.00
C398   C     0.12855   0.17273   0.96418   0.00000  Uiso   1.00
C399   C     0.18549   0.28610   0.95069   0.00000  Uiso   1.00
C400   C     0.12133   0.24260   0.59566   0.00000  Uiso   1.00
C401   C     0.18544   0.28576   0.90106   0.00000  Uiso   1.00
C402   C     0.21234   0.25743   0.60866   0.00000  Uiso   1.00
C403   C     0.14751   0.21394   0.89440   0.00000  Uiso   1.00
C404   C     0.21391   0.25717   0.55914   0.00000  Uiso   1.00
H405   H     0.21174   0.03194   0.82388   0.00000  Uiso   1.00
H406   H     0.21058   0.38695   0.69101   0.00000  Uiso   1.00
H407   H     0.13618   0.02498   0.67773   0.00000  Uiso   1.00
H408   H     0.13198   0.47476   0.81196   0.00000  Uiso   1.00
H409   H     0.08519   0.23674   0.60967   0.00000  Uiso   1.00
H410   H     0.20044   0.31426   0.88438   0.00000  Uiso   1.00
H411   H     0.21606   0.46798   0.69155   0.00000  Uiso   1.00
H412   H     0.08406   0.23707   0.52263   0.00000  Uiso   1.00
H413   H     0.20018   0.31517   0.97138   0.00000  Uiso   1.00
H414   H     0.24801   0.26340   0.63317   0.00000  Uiso   1.00
H415   H     0.13263   0.18590   0.87212   0.00000  Uiso   1.00
H416   H     0.32483   0.24944   0.69441   0.00000  Uiso   1.00
H417   H     0.00860   0.25037   0.80564   0.00000  Uiso   1.00
H418   H     0.20630   0.11290   0.82257   0.00000  Uiso   1.00
N419   N     0.16667   0.24999   0.62623   0.00000  Uiso   1.00
N420   N     0.16667   0.25001   0.87376   0.00000  Uiso   1.00
N421   N     0.09993   0.12678   0.63002   0.00000  Uiso   1.00
N422   N     0.09314   0.37264   0.84720   0.00000  Uiso   1.00
N423   N     0.30398   0.26784   0.52985   0.00000  Uiso   1.00
N424   N     0.11361   0.14079   0.98031   0.00000  Uiso   1.00
O425   O     0.16667   0.18453   0.78974   0.00000  Uiso   1.00
O426   O     0.16666   0.31546   0.71026   0.00000  Uiso   1.00
O427   O     0.16667   0.18453   0.71026   0.00000  Uiso   1.00
O428   O     0.16666   0.31547   0.78974   0.00000  Uiso   1.00
O429   O     0.09058   0.25000   0.78044   0.00000  Uiso   1.00
O430   O     0.24275   0.25000   0.71955   0.00000  Uiso   1.00
O431   O     0.09058   0.24999   0.70096   0.00000  Uiso   1.00
O432   O     0.24275   0.25000   0.79903   0.00000  Uiso   1.00
Zn433  Zn    0.16667   0.25000   0.80307   0.00000  Uiso   1.00
Zn434  Zn    0.16667   0.24999   0.69693   0.00000  Uiso   1.00
C435   C     0.49945   0.16380   0.74960   0.00000  Uiso   1.00
C436   C     0.48053   0.21255   0.94407   0.00000  Uiso   1.00
C437   C     0.50069   0.24966   0.52670   0.00000  Uiso   1.00
C438   C     0.49989   0.24923   0.97325   0.00000  Uiso   1.00
C439   C     0.40035   0.24995   0.73755   0.00000  Uiso   1.00
C440   C     0.59966   0.25001   0.76246   0.00000  Uiso   1.00
C441   C     0.34536   0.24981   0.73083   0.00000  Uiso   1.00
C442   C     0.65468   0.25007   0.76921   0.00000  Uiso   1.00
C443   C     0.52755   0.04836   0.79149   0.00000  Uiso   1.00
C444   C     0.53000   0.45152   0.71796   0.00000  Uiso   1.00
C445   C     0.52400   0.09421   0.79070   0.00000  Uiso   1.00
C446   C     0.49944   0.33616   0.75025   0.00000  Uiso   1.00
C447   C     0.52641   0.40567   0.71751   0.00000  Uiso   1.00
C448   C     0.50099   0.11567   0.74905   0.00000  Uiso   1.00
C449   C     0.50098   0.38422   0.75130   0.00000  Uiso   1.00
C450   C     0.48122   0.09069   0.70771   0.00000  Uiso   1.00
C451   C     0.47885   0.40910   0.78594   0.00000  Uiso   1.00
C452   C     0.48544   0.04472   0.70883   0.00000  Uiso   1.00
C453   C     0.48306   0.45507   0.78627   0.00000  Uiso   1.00
C454   C     0.50832   0.02383   0.75059   0.00000  Uiso   1.00
C455   C     0.50833   0.47601   0.75229   0.00000  Uiso   1.00
C456   C     0.45459   0.11076   0.66456   0.00000  Uiso   1.00
C457   C     0.45414   0.24254   0.54597   0.00000  Uiso   1.00
C458   C     0.44977   0.38884   0.81997   0.00000  Uiso   1.00
C459   C     0.59722   0.26311   0.54286   0.00000  Uiso   1.00
C460   C     0.46188   0.17273   0.96418   0.00000  Uiso   1.00
C461   C     0.51883   0.28610   0.95069   0.00000  Uiso   1.00
C462   C     0.45466   0.24260   0.59566   0.00000  Uiso   1.00
C463   C     0.51878   0.28576   0.90106   0.00000  Uiso   1.00
C464   C     0.54567   0.25743   0.60866   0.00000  Uiso   1.00
C465   C     0.48084   0.21394   0.89440   0.00000  Uiso   1.00
C466   C     0.54724   0.25717   0.55914   0.00000  Uiso   1.00
H467   H     0.54507   0.03194   0.82388   0.00000  Uiso   1.00
H468   H     0.54391   0.38695   0.69101   0.00000  Uiso   1.00
H469   H     0.46952   0.02498   0.67773   0.00000  Uiso   1.00
H470   H     0.46531   0.47476   0.81196   0.00000  Uiso   1.00
H471   H     0.41852   0.23674   0.60967   0.00000  Uiso   1.00
H472   H     0.53377   0.31426   0.88438   0.00000  Uiso   1.00
H473   H     0.54939   0.46798   0.69155   0.00000  Uiso   1.00
H474   H     0.41740   0.23707   0.52263   0.00000  Uiso   1.00
H475   H     0.53352   0.31517   0.97138   0.00000  Uiso   1.00
H476   H     0.58134   0.26340   0.63317   0.00000  Uiso   1.00
H477   H     0.46596   0.18590   0.87212   0.00000  Uiso   1.00
H478   H     0.65817   0.24944   0.69441   0.00000  Uiso   1.00
H479   H     0.34193   0.25037   0.80564   0.00000  Uiso   1.00
H480   H     0.53964   0.11290   0.82257   0.00000  Uiso   1.00
N481   N     0.50000   0.24999   0.62623   0.00000  Uiso   1.00
N482   N     0.50000   0.25001   0.87376   0.00000  Uiso   1.00
N483   N     0.43327   0.12678   0.63002   0.00000  Uiso   1.00
N484   N     0.42648   0.37264   0.84720   0.00000  Uiso   1.00
N485   N     0.63732   0.26784   0.52985   0.00000  Uiso   1.00
N486   N     0.44694   0.14079   0.98031   0.00000  Uiso   1.00
O487   O     0.50000   0.18453   0.78974   0.00000  Uiso   1.00
O488   O     0.50000   0.31546   0.71026   0.00000  Uiso   1.00
O489   O     0.50000   0.18453   0.71026   0.00000  Uiso   1.00
O490   O     0.50000   0.31547   0.78974   0.00000  Uiso   1.00
O491   O     0.42392   0.25000   0.78044   0.00000  Uiso   1.00
O492   O     0.57608   0.25000   0.71955   0.00000  Uiso   1.00
O493   O     0.42392   0.24999   0.70096   0.00000  Uiso   1.00
O494   O     0.57608   0.25000   0.79903   0.00000  Uiso   1.00
Zn495  Zn    0.50000   0.25000   0.80307   0.00000  Uiso   1.00
Zn496  Zn    0.50000   0.24999   0.69693   0.00000  Uiso   1.00
C497   C     0.83278   0.16380   0.74960   0.00000  Uiso   1.00
C498   C     0.81386   0.21255   0.94407   0.00000  Uiso   1.00
C499   C     0.83402   0.24966   0.52670   0.00000  Uiso   1.00
C500   C     0.83322   0.24923   0.97325   0.00000  Uiso   1.00
C501   C     0.73368   0.24995   0.73755   0.00000  Uiso   1.00
C502   C     0.93300   0.25001   0.76246   0.00000  Uiso   1.00
C503   C     0.67870   0.24981   0.73083   0.00000  Uiso   1.00
C504   C     0.98801   0.25007   0.76921   0.00000  Uiso   1.00
C505   C     0.86089   0.04836   0.79149   0.00000  Uiso   1.00
C506   C     0.86333   0.45152   0.71796   0.00000  Uiso   1.00
C507   C     0.85733   0.09421   0.79070   0.00000  Uiso   1.00
C508   C     0.83278   0.33616   0.75025   0.00000  Uiso   1.00
C509   C     0.85975   0.40567   0.71751   0.00000  Uiso   1.00
C510   C     0.83433   0.11567   0.74905   0.00000  Uiso   1.00
C511   C     0.83431   0.38422   0.75130   0.00000  Uiso   1.00
C512   C     0.81455   0.09069   0.70771   0.00000  Uiso   1.00
C513   C     0.81219   0.40910   0.78594   0.00000  Uiso   1.00
C514   C     0.81877   0.04472   0.70883   0.00000  Uiso   1.00
C515   C     0.81640   0.45507   0.78627   0.00000  Uiso   1.00
C516   C     0.84165   0.02383   0.75059   0.00000  Uiso   1.00
C517   C     0.84166   0.47601   0.75229   0.00000  Uiso   1.00
C518   C     0.78793   0.11076   0.66456   0.00000  Uiso   1.00
C519   C     0.78747   0.24254   0.54597   0.00000  Uiso   1.00
C520   C     0.78311   0.38884   0.81997   0.00000  Uiso   1.00
C521   C     0.93056   0.26311   0.54286   0.00000  Uiso   1.00
C522   C     0.79521   0.17273   0.96418   0.00000  Uiso   1.00
C523   C     0.85216   0.28610   0.95069   0.00000  Uiso   1.00
C524   C     0.78800   0.24260   0.59566   0.00000  Uiso   1.00
C525   C     0.85211   0.28576   0.90106   0.00000  Uiso   1.00
C526   C     0.87900   0.25743   0.60866   0.00000  Uiso   1.00
C527   C     0.81417   0.21394   0.89440   0.00000  Uiso   1.00
C528   C     0.88058   0.25717   0.55914   0.00000  Uiso   1.00
H529   H     0.87841   0.03194   0.82388   0.00000  Uiso   1.00
H530   H     0.87724   0.38695   0.69101   0.00000  Uiso   1.00
H531   H     0.80285   0.02498   0.67773   0.00000  Uiso   1.00
H532   H     0.79864   0.47476   0.81196   0.00000  Uiso   1.00
H533   H     0.75186   0.23674   0.60967   0.00000  Uiso   1.00
H534   H     0.86711   0.31426   0.88438   0.00000  Uiso   1.00
H535   H     0.88273   0.46798   0.69155   0.00000  Uiso   1.00
H536   H     0.75073   0.23707   0.52263   0.00000  Uiso   1.00
H537   H     0.86685   0.31517   0.97138   0.00000  Uiso   1.00
H538   H     0.91467   0.26340   0.63317   0.00000  Uiso   1.00
H539   H     0.79929   0.18590   0.87212   0.00000  Uiso   1.00
H540   H     0.99150   0.24944   0.69441   0.00000  Uiso   1.00
H541   H     0.67527   0.25037   0.80564   0.00000  Uiso   1.00
H542   H     0.87297   0.11290   0.82257   0.00000  Uiso   1.00
N543   N     0.83333   0.24999   0.62623   0.00000  Uiso   1.00
N544   N     0.83333   0.25001   0.87376   0.00000  Uiso   1.00
N545   N     0.76660   0.12678   0.63002   0.00000  Uiso   1.00
N546   N     0.75981   0.37264   0.84720   0.00000  Uiso   1.00
N547   N     0.97065   0.26784   0.52985   0.00000  Uiso   1.00
N548   N     0.78027   0.14079   0.98031   0.00000  Uiso   1.00
O549   O     0.83334   0.18453   0.78974   0.00000  Uiso   1.00
O550   O     0.83333   0.31546   0.71026   0.00000  Uiso   1.00
O551   O     0.83334   0.18453   0.71026   0.00000  Uiso   1.00
O552   O     0.83333   0.31547   0.78974   0.00000  Uiso   1.00
O553   O     0.75725   0.25000   0.78044   0.00000  Uiso   1.00
O554   O     0.90942   0.25000   0.71955   0.00000  Uiso   1.00
O555   O     0.75725   0.24999   0.70096   0.00000  Uiso   1.00
O556   O     0.90942   0.25000   0.79903   0.00000  Uiso   1.00
Zn557  Zn    0.83333   0.25000   0.80307   0.00000  Uiso   1.00
Zn558  Zn    0.83333   0.24999   0.69693   0.00000  Uiso   1.00
C559   C     0.16612   0.66380   0.74960   0.00000  Uiso   1.00
C560   C     0.14719   0.71255   0.94407   0.00000  Uiso   1.00
C561   C     0.16735   0.74966   0.52670   0.00000  Uiso   1.00
C562   C     0.16655   0.74923   0.97325   0.00000  Uiso   1.00
C563   C     0.06701   0.74995   0.73755   0.00000  Uiso   1.00
C564   C     0.26633   0.75001   0.76246   0.00000  Uiso   1.00
C565   C     0.01203   0.74981   0.73083   0.00000  Uiso   1.00
C566   C     0.32134   0.75007   0.76921   0.00000  Uiso   1.00
C567   C     0.19422   0.54836   0.79149   0.00000  Uiso   1.00
C568   C     0.19666   0.95152   0.71796   0.00000  Uiso   1.00
C569   C     0.19067   0.59421   0.79070   0.00000  Uiso   1.00
C570   C     0.16611   0.83616   0.75025   0.00000  Uiso   1.00
C571   C     0.19308   0.90567   0.71751   0.00000  Uiso   1.00
C572   C     0.16766   0.61567   0.74905   0.00000  Uiso   1.00
C573   C     0.16765   0.88422   0.75130   0.00000  Uiso   1.00
C574   C     0.14788   0.59069   0.70771   0.00000  Uiso   1.00
C575   C     0.14552   0.90910   0.78594   0.00000  Uiso   1.00
C576   C     0.15210   0.54472   0.70883   0.00000  Uiso   1.00
C577   C     0.14973   0.95507   0.78627   0.00000  Uiso   1.00
C578   C     0.17498   0.52383   0.75059   0.00000  Uiso   1.00
C579   C     0.17499   0.97601   0.75229   0.00000  Uiso   1.00
C580   C     0.12126   0.61076   0.66456   0.00000  Uiso   1.00
C581   C     0.12081   0.74254   0.54597   0.00000  Uiso   1.00
C582   C     0.11644   0.88884   0.81997   0.00000  Uiso   1.00
C583   C     0.26389   0.76311   0.54286   0.00000  Uiso   1.00
C584   C     0.12855   0.67273   0.96418   0.00000  Uiso   1.00
C585   C     0.18549   0.78610   0.95069   0.00000  Uiso   1.00
C586   C     0.12133   0.74260   0.59566   0.00000  Uiso   1.00
C587   C     0.18544   0.78576   0.90106   0.00000  Uiso   1.00
C588   C     0.21234   0.75743   0.60866   0.00000  Uiso   1.00
C589   C     0.14751   0.71394   0.89440   0.00000  Uiso   1.00
C590   C     0.21391   0.75717   0.55914   0.00000  Uiso   1.00
H591   H     0.21174   0.53194   0.82388   0.00000  Uiso   1.00
H592   H     0.21058   0.88695   0.69101   0.00000  Uiso   1.00
H593   H     0.13618   0.52498   0.67773   0.00000  Uiso   1.00
H594   H     0.13198   0.97476   0.81196   0.00000  Uiso   1.00
H595   H     0.08519   0.73674   0.60967   0.00000  Uiso   1.00
H596   H     0.20044   0.81426   0.88438   0.00000  Uiso   1.00
H597   H     0.21606   0.96798   0.69155   0.00000  Uiso   1.00
H598   H     0.08406   0.73707   0.52263   0.00000  Uiso   1.00
H599   H     0.20018   0.81517   0.97138   0.00000  Uiso   1.00
H600   H     0.24801   0.76340   0.63317   0.00000  Uiso   1.00
H601   H     0.13263   0.68590   0.87212   0.00000  Uiso   1.00
H602   H     0.32483   0.74944   0.69441   0.00000  Uiso   1.00
H603   H     0.00860   0.75037   0.80564   0.00000  Uiso   1.00
H604   H     0.20630   0.61290   0.82257   0.00000  Uiso   1.00
N605   N     0.16667   0.74999   0.62623   0.00000  Uiso   1.00
N606   N     0.16667   0.75001   0.87376   0.00000  Uiso   1.00
N607   N     0.09993   0.62678   0.63002   0.00000  Uiso   1.00
N608   N     0.09314   0.87264   0.84720   0.00000  Uiso   1.00
N609   N     0.30398   0.76784   0.52985   0.00000  Uiso   1.00
N610   N     0.11361   0.64079   0.98031   0.00000  Uiso   1.00
O611   O     0.16667   0.68453   0.78974   0.00000  Uiso   1.00
O612   O     0.16666   0.81546   0.71026   0.00000  Uiso   1.00
O613   O     0.16667   0.68453   0.71026   0.00000  Uiso   1.00
O614   O     0.16666   0.81547   0.78974   0.00000  Uiso   1.00
O615   O     0.09058   0.75000   0.78044   0.00000  Uiso   1.00
O616   O     0.24275   0.75000   0.71955   0.00000  Uiso   1.00
O617   O     0.09058   0.74999   0.70096   0.00000  Uiso   1.00
O618   O     0.24275   0.75000   0.79903   0.00000  Uiso   1.00
Zn619  Zn    0.16667   0.75000   0.80307   0.00000  Uiso   1.00
Zn620  Zn    0.16667   0.74999   0.69693   0.00000  Uiso   1.00
C621   C     0.49945   0.66380   0.74960   0.00000  Uiso   1.00
C622   C     0.48053   0.71255   0.94407   0.00000  Uiso   1.00
C623   C     0.50069   0.74966   0.52670   0.00000  Uiso   1.00
C624   C     0.49989   0.74923   0.97325   0.00000  Uiso   1.00
C625   C     0.40035   0.74995   0.73755   0.00000  Uiso   1.00
C626   C     0.59966   0.75001   0.76246   0.00000  Uiso   1.00
C627   C     0.34536   0.74981   0.73083   0.00000  Uiso   1.00
C628   C     0.65468   0.75007   0.76921   0.00000  Uiso   1.00
C629   C     0.52755   0.54836   0.79149   0.00000  Uiso   1.00
C630   C     0.53000   0.95152   0.71796   0.00000  Uiso   1.00
C631   C     0.52400   0.59421   0.79070   0.00000  Uiso   1.00
C632   C     0.49944   0.83616   0.75025   0.00000  Uiso   1.00
C633   C     0.52641   0.90567   0.71751   0.00000  Uiso   1.00
C634   C     0.50099   0.61567   0.74905   0.00000  Uiso   1.00
C635   C     0.50098   0.88422   0.75130   0.00000  Uiso   1.00
C636   C     0.48122   0.59069   0.70771   0.00000  Uiso   1.00
C637   C     0.47885   0.90910   0.78594   0.00000  Uiso   1.00
C638   C     0.48544   0.54472   0.70883   0.00000  Uiso   1.00
C639   C     0.48306   0.95507   0.78627   0.00000  Uiso   1.00
C640   C     0.50832   0.52383   0.75059   0.00000  Uiso   1.00
C641   C     0.50833   0.97601   0.75229   0.00000  Uiso   1.00
C642   C     0.45459   0.61076   0.66456   0.00000  Uiso   1.00
C643   C     0.45414   0.74254   0.54597   0.00000  Uiso   1.00
C644   C     0.44977   0.88884   0.81997   0.00000  Uiso   1.00
C645   C     0.59722   0.76311   0.54286   0.00000  Uiso   1.00
C646   C     0.46188   0.67273   0.96418   0.00000  Uiso   1.00
C647   C     0.51883   0.78610   0.95069   0.00000  Uiso   1.00
C648   C     0.45466   0.74260   0.59566   0.00000  Uiso   1.00
C649   C     0.51878   0.78576   0.90106   0.00000  Uiso   1.00
C650   C     0.54567   0.75743   0.60866   0.00000  Uiso   1.00
C651   C     0.48084   0.71394   0.89440   0.00000  Uiso   1.00
C652   C     0.54724   0.75717   0.55914   0.00000  Uiso   1.00
H653   H     0.54507   0.53194   0.82388   0.00000  Uiso   1.00
H654   H     0.54391   0.88695   0.69101   0.00000  Uiso   1.00
H655   H     0.46952   0.52498   0.67773   0.00000  Uiso   1.00
H656   H     0.46531   0.97476   0.81196   0.00000  Uiso   1.00
H657   H     0.41852   0.73674   0.60967   0.00000  Uiso   1.00
H658   H     0.53377   0.81426   0.88438   0.00000  Uiso   1.00
H659   H     0.54939   0.96798   0.69155   0.00000  Uiso   1.00
H660   H     0.41740   0.73707   0.52263   0.00000  Uiso   1.00
H661   H     0.53352   0.81517   0.97138   0.00000  Uiso   1.00
H662   H     0.58134   0.76340   0.63317   0.00000  Uiso   1.00
H663   H     0.46596   0.68590   0.87212   0.00000  Uiso   1.00
H664   H     0.65817   0.74944   0.69441   0.00000  Uiso   1.00
H665   H     0.34193   0.75037   0.80564   0.00000  Uiso   1.00
H666   H     0.53964   0.61290   0.82257   0.00000  Uiso   1.00
N667   N     0.50000   0.74999   0.62623   0.00000  Uiso   1.00
N668   N     0.50000   0.75001   0.87376   0.00000  Uiso   1.00
N669   N     0.43327   0.62678   0.63002   0.00000  Uiso   1.00
N670   N     0.42648   0.87264   0.84720   0.00000  Uiso   1.00
N671   N     0.63732   0.76784   0.52985   0.00000  Uiso   1.00
N672   N     0.44694   0.64079   0.98031   0.00000  Uiso   1.00
O673   O     0.50000   0.68453   0.78974   0.00000  Uiso   1.00
O674   O     0.50000   0.81546   0.71026   0.00000  Uiso   1.00
O675   O     0.50000   0.68453   0.71026   0.00000  Uiso   1.00
O676   O     0.50000   0.81547   0.78974   0.00000  Uiso   1.00
O677   O     0.42392   0.75000   0.78044   0.00000  Uiso   1.00
O678   O     0.57608   0.75000   0.71955   0.00000  Uiso   1.00
O679   O     0.42392   0.74999   0.70096   0.00000  Uiso   1.00
O680   O     0.57608   0.75000   0.79903   0.00000  Uiso   1.00
Zn681  Zn    0.50000   0.75000   0.80307   0.00000  Uiso   1.00
Zn682  Zn    0.50000   0.74999   0.69693   0.00000  Uiso   1.00
C683   C     0.83278   0.66380   0.74960   0.00000  Uiso   1.00
C684   C     0.81386   0.71255   0.94407   0.00000  Uiso   1.00
C685   C     0.83402   0.74966   0.52670   0.00000  Uiso   1.00
C686   C     0.83322   0.74923   0.97325   0.00000  Uiso   1.00
C687   C     0.73368   0.74995   0.73755   0.00000  Uiso   1.00
C688   C     0.93300   0.75001   0.76246   0.00000  Uiso   1.00
C689   C     0.67870   0.74981   0.73083   0.00000  Uiso   1.00
C690   C     0.98801   0.75007   0.76921   0.00000  Uiso   1.00
C691   C     0.86089   0.54836   0.79149   0.00000  Uiso   1.00
C692   C     0.86333   0.95152   0.71796   0.00000  Uiso   1.00
C693   C     0.85733   0.59421   0.79070   0.00000  Uiso   1.00
C694   C     0.83278   0.83616   0.75025   0.00000  Uiso   1.00
C695   C     0.85975   0.90567   0.71751   0.00000  Uiso   1.00
C696   C     0.83433   0.61567   0.74905   0.00000  Uiso   1.00
C697   C     0.83431   0.88422   0.75130   0.00000  Uiso   1.00
C698   C     0.81455   0.59069   0.70771   0.00000  Uiso   1.00
C699   C     0.81219   0.90910   0.78594   0.00000  Uiso   1.00
C700   C     0.81877   0.54472   0.70883   0.00000  Uiso   1.00
C701   C     0.81640   0.95507   0.78627   0.00000  Uiso   1.00
C702   C     0.84165   0.52383   0.75059   0.00000  Uiso   1.00
C703   C     0.84166   0.97601   0.75229   0.00000  Uiso   1.00
C704   C     0.78793   0.61076   0.66456   0.00000  Uiso   1.00
C705   C     0.78747   0.74254   0.54597   0.00000  Uiso   1.00
C706   C     0.78311   0.88884   0.81997   0.00000  Uiso   1.00
C707   C     0.93056   0.76311   0.54286   0.00000  Uiso   1.00
C708   C     0.79521   0.67273   0.96418   0.00000  Uiso   1.00
C709   C     0.85216   0.78610   0.95069   0.00000  Uiso   1.00
C710   C     0.78800   0.74260   0.59566   0.00000  Uiso   1.00
C711   C     0.85211   0.78576   0.90106   0.00000  Uiso   1.00
C712   C     0.87900   0.75743   0.60866   0.00000  Uiso   1.00
C713   C     0.81417   0.71394   0.89440   0.00000  Uiso   1.00
C714   C     0.88058   0.75717   0.55914   0.00000  Uiso   1.00
H715   H     0.87841   0.53194   0.82388   0.00000  Uiso   1.00
H716   H     0.87724   0.88695   0.69101   0.00000  Uiso   1.00
H717   H     0.80285   0.52498   0.67773   0.00000  Uiso   1.00
H718   H     0.79864   0.97476   0.81196   0.00000  Uiso   1.00
H719   H     0.75186   0.73674   0.60967   0.00000  Uiso   1.00
H720   H     0.86711   0.81426   0.88438   0.00000  Uiso   1.00
H721   H     0.88273   0.96798   0.69155   0.00000  Uiso   1.00
H722   H     0.75073   0.73707   0.52263   0.00000  Uiso   1.00
H723   H     0.86685   0.81517   0.97138   0.00000  Uiso   1.00
H724   H     0.91467   0.76340   0.63317   0.00000  Uiso   1.00
H725   H     0.79929   0.68590   0.87212   0.00000  Uiso   1.00
H726   H     0.99150   0.74944   0.69441   0.00000  Uiso   1.00
H727   H     0.67527   0.75037   0.80564   0.00000  Uiso   1.00
H728   H     0.87297   0.61290   0.82257   0.00000  Uiso   1.00
N729   N     0.83333   0.74999   0.62623   0.00000  Uiso   1.00
N730   N     0.83333   0.75001   0.87376   0.00000  Uiso   1.00
N731   N     0.76660   0.62678   0.63002   0.00000  Uiso   1.00
N732   N     0.75981   0.87264   0.84720   0.00000  Uiso   1.00
N733   N     0.97065   0.76784   0.52985   0.00000  Uiso   1.00
N734   N     0.78027   0.64079   0.98031   0.00000  Uiso   1.00
O735   O     0.83334   0.68453   0.78974   0.00000  Uiso   1.00
O736   O     0.83333   0.81546   0.71026   0.00000  Uiso   1.00
O737   O     0.83334   0.68453   0.71026   0.00000  Uiso   1.00
O738   O     0.83333   0.81547   0.78974   0.00000  Uiso   1.00
O739   O     0.75725   0.75000   0.78044   0.00000  Uiso   1.00
O740   O     0.90942   0.75000   0.71955   0.00000  Uiso   1.00
O741   O     0.75725   0.74999   0.70096   0.00000  Uiso   1.00
O742   O     0.90942   0.75000   0.79903   0.00000  Uiso   1.00
Zn743  Zn    0.83333   0.75000   0.80307   0.00000  Uiso   1.00
Zn744  Zn    0.83333   0.74999   0.69693   0.00000  Uiso   1.00
loop_
_geom_bond_atom_site_label_1
_geom_bond_atom_site_label_2
_geom_bond_distance
_geom_bond_site_symmetry_2
_ccdc_geom_bond_type
C1     O53     1.289   .     A
C1     O55     1.284   .     A
C1     C14     1.445   .     S
C2     C4      1.416   .     A
C2     C26     1.443   .     S
C2     C31     1.410   .     A
C3     C23     1.408   .     A
C3     C32     1.415   .     A
C3     C376    1.512   1_554 S
C4     C27     1.408   .     A
C4     C375    1.512   .     S
C5     C7      1.401   .     S
C5     O57     1.275   .     A
C5     O59     1.277   .     A
C6     O60     1.277   .     A
C6     O58     1.275   .     A
C6     C8      1.402   .     S
C7     C132    1.329   1_455 S
C7     H168    1.087   1_455 S
C8     C69     1.329   .     S
C8     H107    1.088   .     S
C9     C20     1.394   .     A
C9     H33     1.084   .     S
C9     C11     1.379   .     A
C10    C21     1.394   .     A
C10    H39     1.084   .     S
C10    C13     1.379   .     A
C11    C14     1.402   .     A
C11    H46     1.084   .     S
C12    C15     1.443   .     S
C12    O56     1.284   .     A
C12    O54     1.288   .     A
C13    H34     1.084   .     S
C13    C15     1.401   .     A
C14    C16     1.414   .     A
C15    C17     1.413   .     A
C16    C18     1.384   .     A
C16    C22     1.446   .     S
C17    C19     1.384   .     A
C17    C24     1.446   .     S
C18    H35     1.085   .     S
C18    C20     1.395   .     A
C19    H36     1.085   .     S
C19    C21     1.396   .     A
C20    C207    1.437   1_545 S
C21    C206    1.437   .     S
C22    N49     1.157   .     T
C23    C28     1.406   .     A
C23    H40     1.083   .     S
C24    N50     1.157   .     T
C25    N51     1.157   .     T
C25    C32     1.444   .     S
C26    N52     1.157   .     T
C27    C29     1.406   .     A
C27    H41     1.083   .     S
C28    N47     1.364   .     A
C28    H37     1.081   .     S
C29    H38     1.081   .     S
C29    N48     1.363   .     A
C30    C32     1.410   .     A
C30    N47     1.365   .     A
C30    H42     1.080   .     S
C31    N48     1.364   .     A
C31    H43     1.082   .     S
H44    C69     1.087   .     S
H45    C132    1.088   1_455 S
N47    Zn62    2.003   .     S
N48    Zn61    2.003   .     S
O53    Zn61    1.997   .     S
O54    Zn62    1.997   .     S
O55    Zn62    2.005   .     S
O56    Zn61    2.005   .     S
O57    Zn61    1.970   .     S
O58    Zn62    1.970   .     S
O59    Zn62    1.981   .     S
O60    Zn61    1.981   .     S
C63    O115    1.289   .     A
C63    O117    1.284   .     A
C63    C76     1.445   .     S
C64    C66     1.416   .     A
C64    C88     1.443   .     S
C64    C93     1.410   .     A
C65    C85     1.408   .     A
C65    C94     1.415   .     A
C65    C438    1.512   1_554 S
C66    C89     1.408   .     A
C66    C437    1.512   .     S
C67    C69     1.401   .     S
C67    O119    1.275   .     A
C67    O121    1.277   .     A
C68    O122    1.277   .     A
C68    O120    1.275   .     A
C68    C70     1.402   .     S
C70    C131    1.329   .     S
C70    H169    1.088   .     S
C71    C82     1.394   .     A
C71    H95     1.084   .     S
C71    C73     1.379   .     A
C72    C83     1.394   .     A
C72    H101    1.084   .     S
C72    C75     1.379   .     A
C73    C76     1.402   .     A
C73    H108    1.084   .     S
C74    C77     1.443   .     S
C74    O118    1.284   .     A
C74    O116    1.288   .     A
C75    H96     1.084   .     S
C75    C77     1.401   .     A
C76    C78     1.414   .     A
C77    C79     1.413   .     A
C78    C80     1.384   .     A
C78    C84     1.446   .     S
C79    C81     1.384   .     A
C79    C86     1.446   .     S
C80    H97     1.085   .     S
C80    C82     1.395   .     A
C81    H98     1.085   .     S
C81    C83     1.396   .     A
C82    C269    1.437   1_545 S
C83    C268    1.437   .     S
C84    N111    1.157   .     T
C85    C90     1.406   .     A
C85    H102    1.083   .     S
C86    N112    1.157   .     T
C87    N113    1.157   .     T
C87    C94     1.444   .     S
C88    N114    1.157   .     T
C89    C91     1.406   .     A
C89    H103    1.083   .     S
C90    N109    1.364   .     A
C90    H99     1.081   .     S
C91    H100    1.081   .     S
C91    N110    1.363   .     A
C92    C94     1.410   .     A
C92    N109    1.365   .     A
C92    H104    1.080   .     S
C93    N110    1.364   .     A
C93    H105    1.082   .     S
H106   C131    1.087   .     S
N109   Zn124   2.003   .     S
N110   Zn123   2.003   .     S
O115   Zn123   1.997   .     S
O116   Zn124   1.997   .     S
O117   Zn124   2.005   .     S
O118   Zn123   2.005   .     S
O119   Zn123   1.970   .     S
O120   Zn124   1.970   .     S
O121   Zn124   1.981   .     S
O122   Zn123   1.981   .     S
C125   O177    1.289   .     A
C125   O179    1.284   .     A
C125   C138    1.445   .     S
C126   C128    1.416   .     A
C126   C150    1.443   .     S
C126   C155    1.410   .     A
C127   C147    1.408   .     A
C127   C156    1.415   .     A
C127   C500    1.512   1_554 S
C128   C151    1.408   .     A
C128   C499    1.512   .     S
C129   C131    1.401   .     S
C129   O181    1.275   .     A
C129   O183    1.277   .     A
C130   O184    1.277   .     A
C130   O182    1.275   .     A
C130   C132    1.402   .     S
C132   C7      1.329   1_655 S
C132   H45     1.088   1_655 S
C133   C144    1.394   .     A
C133   H157    1.084   .     S
C133   C135    1.379   .     A
C134   C145    1.394   .     A
C134   H163    1.084   .     S
C134   C137    1.379   .     A
C135   C138    1.402   .     A
C135   H170    1.084   .     S
C136   C139    1.443   .     S
C136   O180    1.284   .     A
C136   O178    1.288   .     A
C137   H158    1.084   .     S
C137   C139    1.401   .     A
C138   C140    1.414   .     A
C139   C141    1.413   .     A
C140   C142    1.384   .     A
C140   C146    1.446   .     S
C141   C143    1.384   .     A
C141   C148    1.446   .     S
C142   H159    1.085   .     S
C142   C144    1.395   .     A
C143   H160    1.085   .     S
C143   C145    1.396   .     A
C144   C331    1.437   1_545 S
C145   C330    1.437   .     S
C146   N173    1.157   .     T
C147   C152    1.406   .     A
C147   H164    1.083   .     S
C148   N174    1.157   .     T
C149   N175    1.157   .     T
C149   C156    1.444   .     S
C150   N176    1.157   .     T
C151   C153    1.406   .     A
C151   H165    1.083   .     S
C152   N171    1.364   .     A
C152   H161    1.081   .     S
C153   H162    1.081   .     S
C153   N172    1.363   .     A
C154   C156    1.410   .     A
C154   N171    1.365   .     A
C154   H166    1.080   .     S
C155   N172    1.364   .     A
C155   H167    1.082   .     S
H168   C7      1.087   1_655 S
N171   Zn186   2.003   .     S
N172   Zn185   2.003   .     S
O177   Zn185   1.997   .     S
O178   Zn186   1.997   .     S
O179   Zn186   2.005   .     S
O180   Zn185   2.005   .     S
O181   Zn185   1.970   .     S
O182   Zn186   1.970   .     S
O183   Zn186   1.981   .     S
O184   Zn185   1.981   .     S
C187   O239    1.289   .     A
C187   O241    1.284   .     A
C187   C200    1.445   .     S
C188   C190    1.416   .     A
C188   C212    1.443   .     S
C188   C217    1.410   .     A
C189   C209    1.408   .     A
C189   C218    1.415   .     A
C189   C562    1.512   1_554 S
C190   C213    1.408   .     A
C190   C561    1.512   .     S
C191   C193    1.401   .     S
C191   O243    1.275   .     A
C191   O245    1.277   .     A
C192   O246    1.277   .     A
C192   O244    1.275   .     A
C192   C194    1.402   .     S
C193   C318    1.329   1_455 S
C193   H354    1.087   1_455 S
C194   C255    1.329   .     S
C194   H293    1.088   .     S
C195   C206    1.394   .     A
C195   H219    1.084   .     S
C195   C197    1.379   .     A
C196   C207    1.394   .     A
C196   H225    1.084   .     S
C196   C199    1.379   .     A
C197   C200    1.402   .     A
C197   H232    1.084   .     S
C198   C201    1.443   .     S
C198   O242    1.284   .     A
C198   O240    1.288   .     A
C199   H220    1.084   .     S
C199   C201    1.401   .     A
C200   C202    1.414   .     A
C201   C203    1.413   .     A
C202   C204    1.384   .     A
C202   C208    1.446   .     S
C203   C205    1.384   .     A
C203   C210    1.446   .     S
C204   H221    1.085   .     S
C204   C206    1.395   .     A
C205   H222    1.085   .     S
C205   C207    1.396   .     A
C207   C20     1.437   1_565 S
C208   N235    1.157   .     T
C209   C214    1.406   .     A
C209   H226    1.083   .     S
C210   N236    1.157   .     T
C211   N237    1.157   .     T
C211   C218    1.444   .     S
C212   N238    1.157   .     T
C213   C215    1.406   .     A
C213   H227    1.083   .     S
C214   N233    1.364   .     A
C214   H223    1.081   .     S
C215   H224    1.081   .     S
C215   N234    1.363   .     A
C216   C218    1.410   .     A
C216   N233    1.365   .     A
C216   H228    1.080   .     S
C217   N234    1.364   .     A
C217   H229    1.082   .     S
H230   C255    1.087   .     S
H231   C318    1.088   1_455 S
N233   Zn248   2.003   .     S
N234   Zn247   2.003   .     S
O239   Zn247   1.997   .     S
O240   Zn248   1.997   .     S
O241   Zn248   2.005   .     S
O242   Zn247   2.005   .     S
O243   Zn247   1.970   .     S
O244   Zn248   1.970   .     S
O245   Zn248   1.981   .     S
O246   Zn247   1.981   .     S
C249   O301    1.289   .     A
C249   O303    1.284   .     A
C249   C262    1.445   .     S
C250   C252    1.416   .     A
C250   C274    1.443   .     S
C250   C279    1.410   .     A
C251   C271    1.408   .     A
C251   C280    1.415   .     A
C251   C624    1.512   1_554 S
C252   C275    1.408   .     A
C252   C623    1.512   .     S
C253   C255    1.401   .     S
C253   O305    1.275   .     A
C253   O307    1.277   .     A
C254   O308    1.277   .     A
C254   O306    1.275   .     A
C254   C256    1.402   .     S
C256   C317    1.329   .     S
C256   H355    1.088   .     S
C257   C268    1.394   .     A
C257   H281    1.084   .     S
C257   C259    1.379   .     A
C258   C269    1.394   .     A
C258   H287    1.084   .     S
C258   C261    1.379   .     A
C259   C262    1.402   .     A
C259   H294    1.084   .     S
C260   C263    1.443   .     S
C260   O304    1.284   .     A
C260   O302    1.288   .     A
C261   H282    1.084   .     S
C261   C263    1.401   .     A
C262   C264    1.414   .     A
C263   C265    1.413   .     A
C264   C266    1.384   .     A
C264   C270    1.446   .     S
C265   C267    1.384   .     A
C265   C272    1.446   .     S
C266   H283    1.085   .     S
C266   C268    1.395   .     A
C267   H284    1.085   .     S
C267   C269    1.396   .     A
C269   C82     1.437   1_565 S
C270   N297    1.157   .     T
C271   C276    1.406   .     A
C271   H288    1.083   .     S
C272   N298    1.157   .     T
C273   N299    1.157   .     T
C273   C280    1.444   .     S
C274   N300    1.157   .     T
C275   C277    1.406   .     A
C275   H289    1.083   .     S
C276   N295    1.364   .     A
C276   H285    1.081   .     S
C277   H286    1.081   .     S
C277   N296    1.363   .     A
C278   C280    1.410   .     A
C278   N295    1.365   .     A
C278   H290    1.080   .     S
C279   N296    1.364   .     A
C279   H291    1.082   .     S
H292   C317    1.087   .     S
N295   Zn310   2.003   .     S
N296   Zn309   2.003   .     S
O301   Zn309   1.997   .     S
O302   Zn310   1.997   .     S
O303   Zn310   2.005   .     S
O304   Zn309   2.005   .     S
O305   Zn309   1.970   .     S
O306   Zn310   1.970   .     S
O307   Zn310   1.981   .     S
O308   Zn309   1.981   .     S
C311   O363    1.289   .     A
C311   O365    1.284   .     A
C311   C324    1.445   .     S
C312   C314    1.416   .     A
C312   C336    1.443   .     S
C312   C341    1.410   .     A
C313   C333    1.408   .     A
C313   C342    1.415   .     A
C313   C686    1.512   1_554 S
C314   C337    1.408   .     A
C314   C685    1.512   .     S
C315   C317    1.401   .     S
C315   O367    1.275   .     A
C315   O369    1.277   .     A
C316   O370    1.277   .     A
C316   O368    1.275   .     A
C316   C318    1.402   .     S
C318   C193    1.329   1_655 S
C318   H231    1.088   1_655 S
C319   C330    1.394   .     A
C319   H343    1.084   .     S
C319   C321    1.379   .     A
C320   C331    1.394   .     A
C320   H349    1.084   .     S
C320   C323    1.379   .     A
C321   C324    1.402   .     A
C321   H356    1.084   .     S
C322   C325    1.443   .     S
C322   O366    1.284   .     A
C322   O364    1.288   .     A
C323   H344    1.084   .     S
C323   C325    1.401   .     A
C324   C326    1.414   .     A
C325   C327    1.413   .     A
C326   C328    1.384   .     A
C326   C332    1.446   .     S
C327   C329    1.384   .     A
C327   C334    1.446   .     S
C328   H345    1.085   .     S
C328   C330    1.395   .     A
C329   H346    1.085   .     S
C329   C331    1.396   .     A
C331   C144    1.437   1_565 S
C332   N359    1.157   .     T
C333   C338    1.406   .     A
C333   H350    1.083   .     S
C334   N360    1.157   .     T
C335   N361    1.157   .     T
C335   C342    1.444   .     S
C336   N362    1.157   .     T
C337   C339    1.406   .     A
C337   H351    1.083   .     S
C338   N357    1.364   .     A
C338   H347    1.081   .     S
C339   H348    1.081   .     S
C339   N358    1.363   .     A
C340   C342    1.410   .     A
C340   N357    1.365   .     A
C340   H352    1.080   .     S
C341   N358    1.364   .     A
C341   H353    1.082   .     S
H354   C193    1.087   1_655 S
N357   Zn372   2.003   .     S
N358   Zn371   2.003   .     S
O363   Zn371   1.997   .     S
O364   Zn372   1.997   .     S
O365   Zn372   2.005   .     S
O366   Zn371   2.005   .     S
O367   Zn371   1.970   .     S
O368   Zn372   1.970   .     S
O369   Zn372   1.981   .     S
O370   Zn371   1.981   .     S
C373   O425    1.289   .     A
C373   O427    1.284   .     A
C373   C386    1.445   .     S
C374   C376    1.416   .     A
C374   C398    1.443   .     S
C374   C403    1.410   .     A
C375   C395    1.408   .     A
C375   C404    1.415   .     A
C376   C399    1.408   .     A
C376   C3      1.512   1_556 S
C377   C379    1.401   .     S
C377   O429    1.275   .     A
C377   O431    1.277   .     A
C378   O432    1.277   .     A
C378   O430    1.275   .     A
C378   C380    1.402   .     S
C379   C504    1.329   1_455 S
C379   H540    1.087   1_455 S
C380   C441    1.329   .     S
C380   H479    1.088   .     S
C381   C392    1.394   .     A
C381   H405    1.084   .     S
C381   C383    1.379   .     A
C382   C393    1.394   .     A
C382   H411    1.084   .     S
C382   C385    1.379   .     A
C383   C386    1.402   .     A
C383   H418    1.084   .     S
C384   C387    1.443   .     S
C384   O428    1.284   .     A
C384   O426    1.288   .     A
C385   H406    1.084   .     S
C385   C387    1.401   .     A
C386   C388    1.414   .     A
C387   C389    1.413   .     A
C388   C390    1.384   .     A
C388   C394    1.446   .     S
C389   C391    1.384   .     A
C389   C396    1.446   .     S
C390   H407    1.085   .     S
C390   C392    1.395   .     A
C391   H408    1.085   .     S
C391   C393    1.396   .     A
C392   C579    1.437   1_545 S
C393   C578    1.437   .     S
C394   N421    1.157   .     T
C395   C400    1.406   .     A
C395   H412    1.083   .     S
C396   N422    1.157   .     T
C397   N423    1.157   .     T
C397   C404    1.444   .     S
C398   N424    1.157   .     T
C399   C401    1.406   .     A
C399   H413    1.083   .     S
C400   N419    1.364   .     A
C400   H409    1.081   .     S
C401   H410    1.081   .     S
C401   N420    1.363   .     A
C402   C404    1.410   .     A
C402   N419    1.365   .     A
C402   H414    1.080   .     S
C403   N420    1.364   .     A
C403   H415    1.082   .     S
H416   C441    1.087   .     S
H417   C504    1.088   1_455 S
N419   Zn434   2.003   .     S
N420   Zn433   2.003   .     S
O425   Zn433   1.997   .     S
O426   Zn434   1.997   .     S
O427   Zn434   2.005   .     S
O428   Zn433   2.005   .     S
O429   Zn433   1.970   .     S
O430   Zn434   1.970   .     S
O431   Zn434   1.981   .     S
O432   Zn433   1.981   .     S
C435   O487    1.289   .     A
C435   O489    1.284   .     A
C435   C448    1.445   .     S
C436   C438    1.416   .     A
C436   C460    1.443   .     S
C436   C465    1.410   .     A
C437   C457    1.408   .     A
C437   C466    1.415   .     A
C438   C461    1.408   .     A
C438   C65     1.512   1_556 S
C439   C441    1.401   .     S
C439   O491    1.275   .     A
C439   O493    1.277   .     A
C440   O494    1.277   .     A
C440   O492    1.275   .     A
C440   C442    1.402   .     S
C442   C503    1.329   .     S
C442   H541    1.088   .     S
C443   C454    1.394   .     A
C443   H467    1.084   .     S
C443   C445    1.379   .     A
C444   C455    1.394   .     A
C444   H473    1.084   .     S
C444   C447    1.379   .     A
C445   C448    1.402   .     A
C445   H480    1.084   .     S
C446   C449    1.443   .     S
C446   O490    1.284   .     A
C446   O488    1.288   .     A
C447   H468    1.084   .     S
C447   C449    1.401   .     A
C448   C450    1.414   .     A
C449   C451    1.413   .     A
C450   C452    1.384   .     A
C450   C456    1.446   .     S
C451   C453    1.384   .     A
C451   C458    1.446   .     S
C452   H469    1.085   .     S
C452   C454    1.395   .     A
C453   H470    1.085   .     S
C453   C455    1.396   .     A
C454   C641    1.437   1_545 S
C455   C640    1.437   .     S
C456   N483    1.157   .     T
C457   C462    1.406   .     A
C457   H474    1.083   .     S
C458   N484    1.157   .     T
C459   N485    1.157   .     T
C459   C466    1.444   .     S
C460   N486    1.157   .     T
C461   C463    1.406   .     A
C461   H475    1.083   .     S
C462   N481    1.364   .     A
C462   H471    1.081   .     S
C463   H472    1.081   .     S
C463   N482    1.363   .     A
C464   C466    1.410   .     A
C464   N481    1.365   .     A
C464   H476    1.080   .     S
C465   N482    1.364   .     A
C465   H477    1.082   .     S
H478   C503    1.087   .     S
N481   Zn496   2.003   .     S
N482   Zn495   2.003   .     S
O487   Zn495   1.997   .     S
O488   Zn496   1.997   .     S
O489   Zn496   2.005   .     S
O490   Zn495   2.005   .     S
O491   Zn495   1.970   .     S
O492   Zn496   1.970   .     S
O493   Zn496   1.981   .     S
O494   Zn495   1.981   .     S
C497   O549    1.289   .     A
C497   O551    1.284   .     A
C497   C510    1.445   .     S
C498   C500    1.416   .     A
C498   C522    1.443   .     S
C498   C527    1.410   .     A
C499   C519    1.408   .     A
C499   C528    1.415   .     A
C500   C523    1.408   .     A
C500   C127    1.512   1_556 S
C501   C503    1.401   .     S
C501   O553    1.275   .     A
C501   O555    1.277   .     A
C502   O556    1.277   .     A
C502   O554    1.275   .     A
C502   C504    1.402   .     S
C504   C379    1.329   1_655 S
C504   H417    1.088   1_655 S
C505   C516    1.394   .     A
C505   H529    1.084   .     S
C505   C507    1.379   .     A
C506   C517    1.394   .     A
C506   H535    1.084   .     S
C506   C509    1.379   .     A
C507   C510    1.402   .     A
C507   H542    1.084   .     S
C508   C511    1.443   .     S
C508   O552    1.284   .     A
C508   O550    1.288   .     A
C509   H530    1.084   .     S
C509   C511    1.401   .     A
C510   C512    1.414   .     A
C511   C513    1.413   .     A
C512   C514    1.384   .     A
C512   C518    1.446   .     S
C513   C515    1.384   .     A
C513   C520    1.446   .     S
C514   H531    1.085   .     S
C514   C516    1.395   .     A
C515   H532    1.085   .     S
C515   C517    1.396   .     A
C516   C703    1.437   1_545 S
C517   C702    1.437   .     S
C518   N545    1.157   .     T
C519   C524    1.406   .     A
C519   H536    1.083   .     S
C520   N546    1.157   .     T
C521   N547    1.157   .     T
C521   C528    1.444   .     S
C522   N548    1.157   .     T
C523   C525    1.406   .     A
C523   H537    1.083   .     S
C524   N543    1.364   .     A
C524   H533    1.081   .     S
C525   H534    1.081   .     S
C525   N544    1.363   .     A
C526   C528    1.410   .     A
C526   N543    1.365   .     A
C526   H538    1.080   .     S
C527   N544    1.364   .     A
C527   H539    1.082   .     S
H540   C379    1.087   1_655 S
N543   Zn558   2.003   .     S
N544   Zn557   2.003   .     S
O549   Zn557   1.997   .     S
O550   Zn558   1.997   .     S
O551   Zn558   2.005   .     S
O552   Zn557   2.005   .     S
O553   Zn557   1.970   .     S
O554   Zn558   1.970   .     S
O555   Zn558   1.981   .     S
O556   Zn557   1.981   .     S
C559   O611    1.289   .     A
C559   O613    1.284   .     A
C559   C572    1.445   .     S
C560   C562    1.416   .     A
C560   C584    1.443   .     S
C560   C589    1.410   .     A
C561   C581    1.408   .     A
C561   C590    1.415   .     A
C562   C585    1.408   .     A
C562   C189    1.512   1_556 S
C563   C565    1.401   .     S
C563   O615    1.275   .     A
C563   O617    1.277   .     A
C564   O618    1.277   .     A
C564   O616    1.275   .     A
C564   C566    1.402   .     S
C565   C690    1.329   1_455 S
C565   H726    1.087   1_455 S
C566   C627    1.329   .     S
C566   H665    1.088   .     S
C567   C578    1.394   .     A
C567   H591    1.084   .     S
C567   C569    1.379   .     A
C568   C579    1.394   .     A
C568   H597    1.084   .     S
C568   C571    1.379   .     A
C569   C572    1.402   .     A
C569   H604    1.084   .     S
C570   C573    1.443   .     S
C570   O614    1.284   .     A
C570   O612    1.288   .     A
C571   H592    1.084   .     S
C571   C573    1.401   .     A
C572   C574    1.414   .     A
C573   C575    1.413   .     A
C574   C576    1.384   .     A
C574   C580    1.446   .     S
C575   C577    1.384   .     A
C575   C582    1.446   .     S
C576   H593    1.085   .     S
C576   C578    1.395   .     A
C577   H594    1.085   .     S
C577   C579    1.396   .     A
C579   C392    1.437   1_565 S
C580   N607    1.157   .     T
C581   C586    1.406   .     A
C581   H598    1.083   .     S
C582   N608    1.157   .     T
C583   N609    1.157   .     T
C583   C590    1.444   .     S
C584   N610    1.157   .     T
C585   C587    1.406   .     A
C585   H599    1.083   .     S
C586   N605    1.364   .     A
C586   H595    1.081   .     S
C587   H596    1.081   .     S
C587   N606    1.363   .     A
C588   C590    1.410   .     A
C588   N605    1.365   .     A
C588   H600    1.080   .     S
C589   N606    1.364   .     A
C589   H601    1.082   .     S
H602   C627    1.087   .     S
H603   C690    1.088   1_455 S
N605   Zn620   2.003   .     S
N606   Zn619   2.003   .     S
O611   Zn619   1.997   .     S
O612   Zn620   1.997   .     S
O613   Zn620   2.005   .     S
O614   Zn619   2.005   .     S
O615   Zn619   1.970   .     S
O616   Zn620   1.970   .     S
O617   Zn620   1.981   .     S
O618   Zn619   1.981   .     S
C621   O673    1.289   .     A
C621   O675    1.284   .     A
C621   C634    1.445   .     S
C622   C624    1.416   .     A
C622   C646    1.443   .     S
C622   C651    1.410   .     A
C623   C643    1.408   .     A
C623   C652    1.415   .     A
C624   C647    1.408   .     A
C624   C251    1.512   1_556 S
C625   C627    1.401   .     S
C625   O677    1.275   .     A
C625   O679    1.277   .     A
C626   O680    1.277   .     A
C626   O678    1.275   .     A
C626   C628    1.402   .     S
C628   C689    1.329   .     S
C628   H727    1.088   .     S
C629   C640    1.394   .     A
C629   H653    1.084   .     S
C629   C631    1.379   .     A
C630   C641    1.394   .     A
C630   H659    1.084   .     S
C630   C633    1.379   .     A
C631   C634    1.402   .     A
C631   H666    1.084   .     S
C632   C635    1.443   .     S
C632   O676    1.284   .     A
C632   O674    1.288   .     A
C633   H654    1.084   .     S
C633   C635    1.401   .     A
C634   C636    1.414   .     A
C635   C637    1.413   .     A
C636   C638    1.384   .     A
C636   C642    1.446   .     S
C637   C639    1.384   .     A
C637   C644    1.446   .     S
C638   H655    1.085   .     S
C638   C640    1.395   .     A
C639   H656    1.085   .     S
C639   C641    1.396   .     A
C641   C454    1.437   1_565 S
C642   N669    1.157   .     T
C643   C648    1.406   .     A
C643   H660    1.083   .     S
C644   N670    1.157   .     T
C645   N671    1.157   .     T
C645   C652    1.444   .     S
C646   N672    1.157   .     T
C647   C649    1.406   .     A
C647   H661    1.083   .     S
C648   N667    1.364   .     A
C648   H657    1.081   .     S
C649   H658    1.081   .     S
C649   N668    1.363   .     A
C650   C652    1.410   .     A
C650   N667    1.365   .     A
C650   H662    1.080   .     S
C651   N668    1.364   .     A
C651   H663    1.082   .     S
H664   C689    1.087   .     S
N667   Zn682   2.003   .     S
N668   Zn681   2.003   .     S
O673   Zn681   1.997   .     S
O674   Zn682   1.997   .     S
O675   Zn682   2.005   .     S
O676   Zn681   2.005   .     S
O677   Zn681   1.970   .     S
O678   Zn682   1.970   .     S
O679   Zn682   1.981   .     S
O680   Zn681   1.981   .     S
C683   O735    1.289   .     A
C683   O737    1.284   .     A
C683   C696    1.445   .     S
C684   C686    1.416   .     A
C684   C708    1.443   .     S
C684   C713    1.410   .     A
C685   C705    1.408   .     A
C685   C714    1.415   .     A
C686   C709    1.408   .     A
C686   C313    1.512   1_556 S
C687   C689    1.401   .     S
C687   O739    1.275   .     A
C687   O741    1.277   .     A
C688   O742    1.277   .     A
C688   O740    1.275   .     A
C688   C690    1.402   .     S
C690   C565    1.329   1_655 S
C690   H603    1.088   1_655 S
C691   C702    1.394   .     A
C691   H715    1.084   .     S
C691   C693    1.379   .     A
C692   C703    1.394   .     A
C692   H721    1.084   .     S
C692   C695    1.379   .     A
C693   C696    1.402   .     A
C693   H728    1.084   .     S
C694   C697    1.443   .     S
C694   O738    1.284   .     A
C694   O736    1.288   .     A
C695   H716    1.084   .     S
C695   C697    1.401   .     A
C696   C698    1.414   .     A
C697   C699    1.413   .     A
C698   C700    1.384   .     A
C698   C704    1.446   .     S
C699   C701    1.384   .     A
C699   C706    1.446   .     S
C700   H717    1.085   .     S
C700   C702    1.395   .     A
C701   H718    1.085   .     S
C701   C703    1.396   .     A
C703   C516    1.437   1_565 S
C704   N731    1.157   .     T
C705   C710    1.406   .     A
C705   H722    1.083   .     S
C706   N732    1.157   .     T
C707   N733    1.157   .     T
C707   C714    1.444   .     S
C708   N734    1.157   .     T
C709   C711    1.406   .     A
C709   H723    1.083   .     S
C710   N729    1.364   .     A
C710   H719    1.081   .     S
C711   H720    1.081   .     S
C711   N730    1.363   .     A
C712   C714    1.410   .     A
C712   N729    1.365   .     A
C712   H724    1.080   .     S
C713   N730    1.364   .     A
C713   H725    1.082   .     S
H726   C565    1.087   1_655 S
N729   Zn744   2.003   .     S
N730   Zn743   2.003   .     S
O735   Zn743   1.997   .     S
O736   Zn744   1.997   .     S
O737   Zn744   2.005   .     S
O738   Zn743   2.005   .     S
O739   Zn743   1.970   .     S
O740   Zn744   1.970   .     S
O741   Zn744   1.981   .     S
O742   Zn743   1.981   .     S
