data_str_m3_o1_o10_pcu_sym.191
_audit_creation_date              2020-01-03
_audit_creation_method            'Materials Studio'
_symmetry_space_group_name_H-M    'P1'
_symmetry_Int_Tables_number       1
_symmetry_cell_setting            triclinic
loop_
_symmetry_equiv_pos_as_xyz
  x,y,z
_cell_length_a                    26.4176
_cell_length_b                    32.5246
_cell_length_c                    30.0817
_cell_angle_alpha                 90.6256
_cell_angle_beta                  97.5405
_cell_angle_gamma                 92.6392
loop_
_atom_site_label
_atom_site_type_symbol
_atom_site_fract_x
_atom_site_fract_y
_atom_site_fract_z
_atom_site_U_iso_or_equiv
_atom_site_adp_type
_atom_site_occupancy
C1     C     0.16748   0.08702   0.16644   0.00000  Uiso   1.00
C2     C     0.16270   0.24649   0.16642   0.00000  Uiso   1.00
C3     C     0.06763   0.16913   0.15558   0.00000  Uiso   1.00
C4     C     0.26570   0.16742   0.17839   0.00000  Uiso   1.00
C5     C     0.01420   0.17814   0.15238   0.00000  Uiso   1.00
C6     C     0.32015   0.16770   0.18574   0.00000  Uiso   1.00
C7     C     0.12938   0.02185   0.13461   0.00000  Uiso   1.00
C8     C     0.18131   0.31380   0.20386   0.00000  Uiso   1.00
C9     C     0.12932   0.31228   0.13103   0.00000  Uiso   1.00
C10    C     0.19447   0.02174   0.19984   0.00000  Uiso   1.00
C11    C     0.15730   0.29110   0.16649   0.00000  Uiso   1.00
C12    C     0.16641   0.04289   0.16546   0.00000  Uiso   1.00
C13    C     0.19992   0.19188   0.02786   0.00000  Uiso   1.00
C14    C     0.13373   0.14067   0.30520   0.00000  Uiso   1.00
C15    C     0.20452   0.18761   0.31444   0.00000  Uiso   1.00
C16    C     0.13272   0.14162   0.02005   0.00000  Uiso   1.00
N17    N     0.16665   0.16666   0.28573   0.00000  Uiso   1.00
N18    N     0.16668   0.16668   0.04760   0.00000  Uiso   1.00
O19    O     0.16666   0.10558   0.20487   0.00000  Uiso   1.00
O20    O     0.16667   0.22775   0.12846   0.00000  Uiso   1.00
O21    O     0.16666   0.10559   0.12843   0.00000  Uiso   1.00
O22    O     0.16667   0.22774   0.20490   0.00000  Uiso   1.00
O23    O     0.09058   0.16666   0.19595   0.00000  Uiso   1.00
O24    O     0.24275   0.16667   0.13739   0.00000  Uiso   1.00
O25    O     0.09058   0.16667   0.11950   0.00000  Uiso   1.00
O26    O     0.24275   0.16666   0.21383   0.00000  Uiso   1.00
Zn27   Zn    0.16667   0.16666   0.21771   0.00000  Uiso   1.00
Zn28   Zn    0.16667   0.16667   0.11563   0.00000  Uiso   1.00
C29    C     0.32845   0.20885   0.11945   0.00000  Uiso   1.00
O30    O     0.31227   0.24077   0.13262   0.00000  Uiso   1.00
O31    O     0.33043   0.20229   0.07412   0.00000  Uiso   1.00
H32    H     0.32273   0.22778   0.05621   0.00000  Uiso   1.00
C33    C     0.00888   0.16041   0.23241   0.00000  Uiso   1.00
O34    O     0.33250   0.12796   0.25000   0.00000  Uiso   1.00
O35    O     0.03675   0.19250   0.25687   0.00000  Uiso   1.00
H36    H     0.04861   0.18558   0.28901   0.00000  Uiso   1.00
O37    O     0.08828   0.04250   0.11373   0.00000  Uiso   1.00
C38    C     0.05297   0.04809   0.14497   0.00000  Uiso   1.00
H39    H     0.04349   0.08083   0.14542   0.00000  Uiso   1.00
H40    H     0.06768   0.04112   0.18043   0.00000  Uiso   1.00
C41    C     0.00422   0.02168   0.13158   0.00000  Uiso   1.00
H42    H     0.01254   0.32196   0.13437   0.00000  Uiso   1.00
H43    H     0.30896   0.02854   0.15425   0.00000  Uiso   1.00
H44    H     0.32115   0.02800   0.09667   0.00000  Uiso   1.00
O45    O     0.18325   0.29774   0.24586   0.00000  Uiso   1.00
C46    C     0.13840   0.30681   0.26447   0.00000  Uiso   1.00
H47    H     0.11210   0.32668   0.24319   0.00000  Uiso   1.00
H48    H     0.14998   0.32268   0.29734   0.00000  Uiso   1.00
C49    C     0.10778   0.26759   0.27204   0.00000  Uiso   1.00
H50    H     0.13207   0.24528   0.29109   0.00000  Uiso   1.00
H51    H     0.07643   0.27484   0.29138   0.00000  Uiso   1.00
H52    H     0.09085   0.25400   0.23917   0.00000  Uiso   1.00
C53    C     0.09575   0.29176   0.09299   0.00000  Uiso   1.00
O54    O     0.08005   0.25623   0.09562   0.00000  Uiso   1.00
O55    O     0.08184   0.31342   0.05370   0.00000  Uiso   1.00
H56    H     0.05796   0.29655   0.03067   0.00000  Uiso   1.00
C57    C     0.23490   0.04213   0.23291   0.00000  Uiso   1.00
O58    O     0.26205   0.07007   0.22082   0.00000  Uiso   1.00
O59    O     0.24328   0.02876   0.27719   0.00000  Uiso   1.00
H60    H     0.27163   0.04549   0.29619   0.00000  Uiso   1.00
O61    O     0.22932   0.22171   0.05366   0.00000  Uiso   1.00
C62    C     0.20498   0.25957   0.04761   0.00000  Uiso   1.00
H63    H     0.16483   0.25660   0.05431   0.00000  Uiso   1.00
H64    H     0.20387   0.27064   0.01315   0.00000  Uiso   1.00
C65    C     0.23385   0.29299   0.07795   0.00000  Uiso   1.00
H66    H     0.23500   0.28483   0.11364   0.00000  Uiso   1.00
H67    H     0.27358   0.29719   0.07020   0.00000  Uiso   1.00
H68    H     0.21474   0.32257   0.07252   0.00000  Uiso   1.00
O69    O     0.10052   0.11453   0.27737   0.00000  Uiso   1.00
C70    C     0.10833   0.07272   0.28768   0.00000  Uiso   1.00
H71    H     0.12949   0.06724   0.32145   0.00000  Uiso   1.00
H72    H     0.13135   0.06010   0.26307   0.00000  Uiso   1.00
C73    C     0.05682   0.04862   0.28366   0.00000  Uiso   1.00
H74    H     0.03752   0.04869   0.24866   0.00000  Uiso   1.00
H75    H     0.06190   0.01648   0.29440   0.00000  Uiso   1.00
H76    H     0.03139   0.06191   0.30565   0.00000  Uiso   1.00
O77    O     0.25279   0.19496   0.30151   0.00000  Uiso   1.00
C78    C     0.25788   0.23433   0.28295   0.00000  Uiso   1.00
H79    H     0.22492   0.25217   0.28544   0.00000  Uiso   1.00
H80    H     0.26239   0.23165   0.24707   0.00000  Uiso   1.00
C81    C     0.30462   0.25883   0.30591   0.00000  Uiso   1.00
H82    H     0.00341   0.23859   0.31493   0.00000  Uiso   1.00
H83    H     0.31640   0.28313   0.28318   0.00000  Uiso   1.00
H84    H     0.29559   0.27439   0.00319   0.00000  Uiso   1.00
O85    O     0.09742   0.11731   0.03949   0.00000  Uiso   1.00
C86    C     0.04851   0.13259   0.02721   0.00000  Uiso   1.00
H87    H     0.03609   0.12780   0.32478   0.00000  Uiso   1.00
H88    H     0.04893   0.16601   0.03431   0.00000  Uiso   1.00
C89    C     0.00852   0.10958   0.05064   0.00000  Uiso   1.00
H90    H     0.01391   0.11729   0.08672   0.00000  Uiso   1.00
H91    H     0.30307   0.11856   0.03634   0.00000  Uiso   1.00
H92    H     0.01100   0.07596   0.04569   0.00000  Uiso   1.00
C93    C     0.50081   0.08702   0.16644   0.00000  Uiso   1.00
C94    C     0.49603   0.24649   0.16642   0.00000  Uiso   1.00
C95    C     0.40096   0.16913   0.15558   0.00000  Uiso   1.00
C96    C     0.59903   0.16742   0.17839   0.00000  Uiso   1.00
C97    C     0.34753   0.17814   0.15238   0.00000  Uiso   1.00
C98    C     0.65349   0.16770   0.18574   0.00000  Uiso   1.00
C99    C     0.46271   0.02185   0.13461   0.00000  Uiso   1.00
C100   C     0.51464   0.31380   0.20386   0.00000  Uiso   1.00
C101   C     0.46265   0.31228   0.13103   0.00000  Uiso   1.00
C102   C     0.52780   0.02174   0.19984   0.00000  Uiso   1.00
C103   C     0.49063   0.29110   0.16649   0.00000  Uiso   1.00
C104   C     0.49974   0.04289   0.16546   0.00000  Uiso   1.00
C105   C     0.53325   0.19188   0.02786   0.00000  Uiso   1.00
C106   C     0.46707   0.14067   0.30520   0.00000  Uiso   1.00
C107   C     0.53785   0.18761   0.31444   0.00000  Uiso   1.00
C108   C     0.46605   0.14162   0.02005   0.00000  Uiso   1.00
N109   N     0.49999   0.16666   0.28573   0.00000  Uiso   1.00
N110   N     0.50001   0.16668   0.04760   0.00000  Uiso   1.00
O111   O     0.50000   0.10558   0.20487   0.00000  Uiso   1.00
O112   O     0.50000   0.22775   0.12846   0.00000  Uiso   1.00
O113   O     0.50000   0.10559   0.12843   0.00000  Uiso   1.00
O114   O     0.50000   0.22774   0.20490   0.00000  Uiso   1.00
O115   O     0.42392   0.16666   0.19595   0.00000  Uiso   1.00
O116   O     0.57608   0.16667   0.13739   0.00000  Uiso   1.00
O117   O     0.42392   0.16667   0.11950   0.00000  Uiso   1.00
O118   O     0.57608   0.16666   0.21383   0.00000  Uiso   1.00
Zn119  Zn    0.50000   0.16666   0.21771   0.00000  Uiso   1.00
Zn120  Zn    0.50000   0.16667   0.11563   0.00000  Uiso   1.00
C121   C     0.66178   0.20885   0.11945   0.00000  Uiso   1.00
O122   O     0.64561   0.24077   0.13262   0.00000  Uiso   1.00
O123   O     0.66376   0.20229   0.07412   0.00000  Uiso   1.00
H124   H     0.65606   0.22778   0.05621   0.00000  Uiso   1.00
C125   C     0.34221   0.16041   0.23241   0.00000  Uiso   1.00
O126   O     0.66584   0.12796   0.25000   0.00000  Uiso   1.00
O127   O     0.37009   0.19250   0.25687   0.00000  Uiso   1.00
H128   H     0.38194   0.18558   0.28901   0.00000  Uiso   1.00
O129   O     0.42161   0.04250   0.11373   0.00000  Uiso   1.00
C130   C     0.38631   0.04809   0.14497   0.00000  Uiso   1.00
H131   H     0.37682   0.08083   0.14542   0.00000  Uiso   1.00
H132   H     0.40101   0.04112   0.18043   0.00000  Uiso   1.00
C133   C     0.33755   0.02168   0.13158   0.00000  Uiso   1.00
H134   H     0.34588   0.32196   0.13437   0.00000  Uiso   1.00
H135   H     0.64229   0.02854   0.15425   0.00000  Uiso   1.00
H136   H     0.65448   0.02800   0.09667   0.00000  Uiso   1.00
O137   O     0.51659   0.29774   0.24586   0.00000  Uiso   1.00
C138   C     0.47174   0.30681   0.26447   0.00000  Uiso   1.00
H139   H     0.44543   0.32668   0.24319   0.00000  Uiso   1.00
H140   H     0.48331   0.32268   0.29734   0.00000  Uiso   1.00
C141   C     0.44111   0.26759   0.27204   0.00000  Uiso   1.00
H142   H     0.46541   0.24528   0.29109   0.00000  Uiso   1.00
H143   H     0.40976   0.27484   0.29138   0.00000  Uiso   1.00
H144   H     0.42419   0.25400   0.23917   0.00000  Uiso   1.00
C145   C     0.42908   0.29176   0.09299   0.00000  Uiso   1.00
O146   O     0.41338   0.25623   0.09562   0.00000  Uiso   1.00
O147   O     0.41518   0.31342   0.05370   0.00000  Uiso   1.00
H148   H     0.39129   0.29655   0.03067   0.00000  Uiso   1.00
C149   C     0.56823   0.04213   0.23291   0.00000  Uiso   1.00
O150   O     0.59539   0.07007   0.22082   0.00000  Uiso   1.00
O151   O     0.57662   0.02876   0.27719   0.00000  Uiso   1.00
H152   H     0.60497   0.04549   0.29619   0.00000  Uiso   1.00
O153   O     0.56265   0.22171   0.05366   0.00000  Uiso   1.00
C154   C     0.53832   0.25957   0.04761   0.00000  Uiso   1.00
H155   H     0.49816   0.25660   0.05431   0.00000  Uiso   1.00
H156   H     0.53720   0.27064   0.01315   0.00000  Uiso   1.00
C157   C     0.56718   0.29299   0.07795   0.00000  Uiso   1.00
H158   H     0.56834   0.28483   0.11364   0.00000  Uiso   1.00
H159   H     0.60691   0.29719   0.07020   0.00000  Uiso   1.00
H160   H     0.54808   0.32257   0.07252   0.00000  Uiso   1.00
O161   O     0.43385   0.11453   0.27737   0.00000  Uiso   1.00
C162   C     0.44166   0.07272   0.28768   0.00000  Uiso   1.00
H163   H     0.46283   0.06724   0.32145   0.00000  Uiso   1.00
H164   H     0.46469   0.06010   0.26307   0.00000  Uiso   1.00
C165   C     0.39015   0.04862   0.28366   0.00000  Uiso   1.00
H166   H     0.37086   0.04869   0.24866   0.00000  Uiso   1.00
H167   H     0.39523   0.01648   0.29440   0.00000  Uiso   1.00
H168   H     0.36472   0.06191   0.30565   0.00000  Uiso   1.00
O169   O     0.58612   0.19496   0.30151   0.00000  Uiso   1.00
C170   C     0.59121   0.23433   0.28295   0.00000  Uiso   1.00
H171   H     0.55825   0.25217   0.28544   0.00000  Uiso   1.00
H172   H     0.59572   0.23165   0.24707   0.00000  Uiso   1.00
C173   C     0.63795   0.25883   0.30591   0.00000  Uiso   1.00
H174   H     0.33674   0.23859   0.31493   0.00000  Uiso   1.00
H175   H     0.64974   0.28313   0.28318   0.00000  Uiso   1.00
H176   H     0.62893   0.27439   0.00319   0.00000  Uiso   1.00
O177   O     0.43075   0.11731   0.03949   0.00000  Uiso   1.00
C178   C     0.38185   0.13259   0.02721   0.00000  Uiso   1.00
H179   H     0.36943   0.12780   0.32478   0.00000  Uiso   1.00
H180   H     0.38226   0.16601   0.03431   0.00000  Uiso   1.00
C181   C     0.34185   0.10958   0.05064   0.00000  Uiso   1.00
H182   H     0.34724   0.11729   0.08672   0.00000  Uiso   1.00
H183   H     0.63641   0.11856   0.03634   0.00000  Uiso   1.00
H184   H     0.34433   0.07596   0.04569   0.00000  Uiso   1.00
C185   C     0.83414   0.08702   0.16644   0.00000  Uiso   1.00
C186   C     0.82936   0.24649   0.16642   0.00000  Uiso   1.00
C187   C     0.73429   0.16913   0.15558   0.00000  Uiso   1.00
C188   C     0.93236   0.16742   0.17839   0.00000  Uiso   1.00
C189   C     0.68086   0.17814   0.15238   0.00000  Uiso   1.00
C190   C     0.98682   0.16770   0.18574   0.00000  Uiso   1.00
C191   C     0.79604   0.02185   0.13461   0.00000  Uiso   1.00
C192   C     0.84798   0.31380   0.20386   0.00000  Uiso   1.00
C193   C     0.79599   0.31228   0.13103   0.00000  Uiso   1.00
C194   C     0.86114   0.02174   0.19984   0.00000  Uiso   1.00
C195   C     0.82397   0.29110   0.16649   0.00000  Uiso   1.00
C196   C     0.83308   0.04289   0.16546   0.00000  Uiso   1.00
C197   C     0.86659   0.19188   0.02786   0.00000  Uiso   1.00
C198   C     0.80040   0.14067   0.30520   0.00000  Uiso   1.00
C199   C     0.87119   0.18761   0.31444   0.00000  Uiso   1.00
C200   C     0.79939   0.14162   0.02005   0.00000  Uiso   1.00
N201   N     0.83332   0.16666   0.28573   0.00000  Uiso   1.00
N202   N     0.83335   0.16668   0.04760   0.00000  Uiso   1.00
O203   O     0.83333   0.10558   0.20487   0.00000  Uiso   1.00
O204   O     0.83334   0.22775   0.12846   0.00000  Uiso   1.00
O205   O     0.83333   0.10559   0.12843   0.00000  Uiso   1.00
O206   O     0.83334   0.22774   0.20490   0.00000  Uiso   1.00
O207   O     0.75725   0.16666   0.19595   0.00000  Uiso   1.00
O208   O     0.90942   0.16667   0.13739   0.00000  Uiso   1.00
O209   O     0.75725   0.16667   0.11950   0.00000  Uiso   1.00
O210   O     0.90942   0.16666   0.21383   0.00000  Uiso   1.00
Zn211  Zn    0.83333   0.16666   0.21771   0.00000  Uiso   1.00
Zn212  Zn    0.83333   0.16667   0.11563   0.00000  Uiso   1.00
C213   C     0.99511   0.20885   0.11945   0.00000  Uiso   1.00
O214   O     0.97894   0.24077   0.13262   0.00000  Uiso   1.00
O215   O     0.99710   0.20229   0.07412   0.00000  Uiso   1.00
H216   H     0.98940   0.22778   0.05621   0.00000  Uiso   1.00
C217   C     0.67554   0.16041   0.23241   0.00000  Uiso   1.00
O218   O     0.99917   0.12796   0.25000   0.00000  Uiso   1.00
O219   O     0.70342   0.19250   0.25687   0.00000  Uiso   1.00
H220   H     0.71527   0.18558   0.28901   0.00000  Uiso   1.00
O221   O     0.75495   0.04250   0.11373   0.00000  Uiso   1.00
C222   C     0.71964   0.04809   0.14497   0.00000  Uiso   1.00
H223   H     0.71015   0.08083   0.14542   0.00000  Uiso   1.00
H224   H     0.73435   0.04112   0.18043   0.00000  Uiso   1.00
C225   C     0.67088   0.02168   0.13158   0.00000  Uiso   1.00
H226   H     0.67921   0.32196   0.13437   0.00000  Uiso   1.00
H227   H     0.97563   0.02854   0.15425   0.00000  Uiso   1.00
H228   H     0.98781   0.02800   0.09667   0.00000  Uiso   1.00
O229   O     0.84992   0.29774   0.24586   0.00000  Uiso   1.00
C230   C     0.80507   0.30681   0.26447   0.00000  Uiso   1.00
H231   H     0.77877   0.32668   0.24319   0.00000  Uiso   1.00
H232   H     0.81665   0.32268   0.29734   0.00000  Uiso   1.00
C233   C     0.77444   0.26759   0.27204   0.00000  Uiso   1.00
H234   H     0.79874   0.24528   0.29109   0.00000  Uiso   1.00
H235   H     0.74309   0.27484   0.29138   0.00000  Uiso   1.00
H236   H     0.75752   0.25400   0.23917   0.00000  Uiso   1.00
C237   C     0.76242   0.29176   0.09299   0.00000  Uiso   1.00
O238   O     0.74672   0.25623   0.09562   0.00000  Uiso   1.00
O239   O     0.74851   0.31342   0.05370   0.00000  Uiso   1.00
H240   H     0.72462   0.29655   0.03067   0.00000  Uiso   1.00
C241   C     0.90156   0.04213   0.23291   0.00000  Uiso   1.00
O242   O     0.92872   0.07007   0.22082   0.00000  Uiso   1.00
O243   O     0.90995   0.02876   0.27719   0.00000  Uiso   1.00
H244   H     0.93830   0.04549   0.29619   0.00000  Uiso   1.00
O245   O     0.89598   0.22171   0.05366   0.00000  Uiso   1.00
C246   C     0.87165   0.25957   0.04761   0.00000  Uiso   1.00
H247   H     0.83149   0.25660   0.05431   0.00000  Uiso   1.00
H248   H     0.87053   0.27064   0.01315   0.00000  Uiso   1.00
C249   C     0.90051   0.29299   0.07795   0.00000  Uiso   1.00
H250   H     0.90167   0.28483   0.11364   0.00000  Uiso   1.00
H251   H     0.94024   0.29719   0.07020   0.00000  Uiso   1.00
H252   H     0.88141   0.32257   0.07252   0.00000  Uiso   1.00
O253   O     0.76718   0.11453   0.27737   0.00000  Uiso   1.00
C254   C     0.77500   0.07272   0.28768   0.00000  Uiso   1.00
H255   H     0.79616   0.06724   0.32145   0.00000  Uiso   1.00
H256   H     0.79802   0.06010   0.26307   0.00000  Uiso   1.00
C257   C     0.72349   0.04862   0.28366   0.00000  Uiso   1.00
H258   H     0.70419   0.04869   0.24866   0.00000  Uiso   1.00
H259   H     0.72857   0.01648   0.29440   0.00000  Uiso   1.00
H260   H     0.69805   0.06191   0.30565   0.00000  Uiso   1.00
O261   O     0.91946   0.19496   0.30151   0.00000  Uiso   1.00
C262   C     0.92454   0.23433   0.28295   0.00000  Uiso   1.00
H263   H     0.89159   0.25217   0.28544   0.00000  Uiso   1.00
H264   H     0.92905   0.23165   0.24707   0.00000  Uiso   1.00
C265   C     0.97128   0.25883   0.30591   0.00000  Uiso   1.00
H266   H     0.67008   0.23859   0.31493   0.00000  Uiso   1.00
H267   H     0.98307   0.28313   0.28318   0.00000  Uiso   1.00
H268   H     0.96226   0.27439   0.00319   0.00000  Uiso   1.00
O269   O     0.76409   0.11731   0.03949   0.00000  Uiso   1.00
C270   C     0.71518   0.13259   0.02721   0.00000  Uiso   1.00
H271   H     0.70276   0.12780   0.32478   0.00000  Uiso   1.00
H272   H     0.71560   0.16601   0.03431   0.00000  Uiso   1.00
C273   C     0.67519   0.10958   0.05064   0.00000  Uiso   1.00
H274   H     0.68057   0.11729   0.08672   0.00000  Uiso   1.00
H275   H     0.96974   0.11856   0.03634   0.00000  Uiso   1.00
H276   H     0.67767   0.07596   0.04569   0.00000  Uiso   1.00
C277   C     0.16748   0.42035   0.16644   0.00000  Uiso   1.00
C278   C     0.16270   0.57983   0.16642   0.00000  Uiso   1.00
C279   C     0.06763   0.50246   0.15558   0.00000  Uiso   1.00
C280   C     0.26570   0.50075   0.17839   0.00000  Uiso   1.00
C281   C     0.01420   0.51147   0.15238   0.00000  Uiso   1.00
C282   C     0.32015   0.50104   0.18574   0.00000  Uiso   1.00
C283   C     0.12938   0.35518   0.13461   0.00000  Uiso   1.00
C284   C     0.18131   0.64713   0.20386   0.00000  Uiso   1.00
C285   C     0.12932   0.64562   0.13103   0.00000  Uiso   1.00
C286   C     0.19447   0.35507   0.19984   0.00000  Uiso   1.00
C287   C     0.15730   0.62443   0.16649   0.00000  Uiso   1.00
C288   C     0.16641   0.37623   0.16546   0.00000  Uiso   1.00
C289   C     0.19992   0.52521   0.02786   0.00000  Uiso   1.00
C290   C     0.13373   0.47400   0.30520   0.00000  Uiso   1.00
C291   C     0.20452   0.52094   0.31444   0.00000  Uiso   1.00
C292   C     0.13272   0.47496   0.02005   0.00000  Uiso   1.00
N293   N     0.16665   0.49999   0.28573   0.00000  Uiso   1.00
N294   N     0.16668   0.50001   0.04760   0.00000  Uiso   1.00
O295   O     0.16666   0.43892   0.20487   0.00000  Uiso   1.00
O296   O     0.16667   0.56108   0.12846   0.00000  Uiso   1.00
O297   O     0.16666   0.43893   0.12843   0.00000  Uiso   1.00
O298   O     0.16667   0.56107   0.20490   0.00000  Uiso   1.00
O299   O     0.09058   0.50000   0.19595   0.00000  Uiso   1.00
O300   O     0.24275   0.50000   0.13739   0.00000  Uiso   1.00
O301   O     0.09058   0.50000   0.11950   0.00000  Uiso   1.00
O302   O     0.24275   0.50000   0.21383   0.00000  Uiso   1.00
Zn303  Zn    0.16667   0.49999   0.21771   0.00000  Uiso   1.00
Zn304  Zn    0.16667   0.50001   0.11563   0.00000  Uiso   1.00
C305   C     0.32845   0.54218   0.11945   0.00000  Uiso   1.00
O306   O     0.31227   0.57410   0.13262   0.00000  Uiso   1.00
O307   O     0.33043   0.53562   0.07412   0.00000  Uiso   1.00
H308   H     0.32273   0.56111   0.05621   0.00000  Uiso   1.00
C309   C     0.00888   0.49374   0.23241   0.00000  Uiso   1.00
O310   O     0.33250   0.46130   0.25000   0.00000  Uiso   1.00
O311   O     0.03675   0.52583   0.25687   0.00000  Uiso   1.00
H312   H     0.04861   0.51891   0.28901   0.00000  Uiso   1.00
O313   O     0.08828   0.37583   0.11373   0.00000  Uiso   1.00
C314   C     0.05297   0.38143   0.14497   0.00000  Uiso   1.00
H315   H     0.04349   0.41417   0.14542   0.00000  Uiso   1.00
H316   H     0.06768   0.37445   0.18043   0.00000  Uiso   1.00
C317   C     0.00422   0.35501   0.13158   0.00000  Uiso   1.00
H318   H     0.01254   0.65530   0.13437   0.00000  Uiso   1.00
H319   H     0.30896   0.36188   0.15425   0.00000  Uiso   1.00
H320   H     0.32115   0.36134   0.09667   0.00000  Uiso   1.00
O321   O     0.18325   0.63107   0.24586   0.00000  Uiso   1.00
C322   C     0.13840   0.64015   0.26447   0.00000  Uiso   1.00
H323   H     0.11210   0.66001   0.24319   0.00000  Uiso   1.00
H324   H     0.14998   0.65601   0.29734   0.00000  Uiso   1.00
C325   C     0.10778   0.60092   0.27204   0.00000  Uiso   1.00
H326   H     0.13207   0.57861   0.29109   0.00000  Uiso   1.00
H327   H     0.07643   0.60817   0.29138   0.00000  Uiso   1.00
H328   H     0.09085   0.58733   0.23917   0.00000  Uiso   1.00
C329   C     0.09575   0.62509   0.09299   0.00000  Uiso   1.00
O330   O     0.08005   0.58956   0.09562   0.00000  Uiso   1.00
O331   O     0.08184   0.64675   0.05370   0.00000  Uiso   1.00
H332   H     0.05796   0.62988   0.03067   0.00000  Uiso   1.00
C333   C     0.23490   0.37546   0.23291   0.00000  Uiso   1.00
O334   O     0.26205   0.40340   0.22082   0.00000  Uiso   1.00
O335   O     0.24328   0.36209   0.27719   0.00000  Uiso   1.00
H336   H     0.27163   0.37882   0.29619   0.00000  Uiso   1.00
O337   O     0.22932   0.55505   0.05366   0.00000  Uiso   1.00
C338   C     0.20498   0.59291   0.04761   0.00000  Uiso   1.00
H339   H     0.16483   0.58994   0.05431   0.00000  Uiso   1.00
H340   H     0.20387   0.60397   0.01315   0.00000  Uiso   1.00
C341   C     0.23385   0.62633   0.07795   0.00000  Uiso   1.00
H342   H     0.23500   0.61816   0.11364   0.00000  Uiso   1.00
H343   H     0.27358   0.63052   0.07020   0.00000  Uiso   1.00
H344   H     0.21474   0.65591   0.07252   0.00000  Uiso   1.00
O345   O     0.10052   0.44787   0.27737   0.00000  Uiso   1.00
C346   C     0.10833   0.40606   0.28768   0.00000  Uiso   1.00
H347   H     0.12949   0.40058   0.32145   0.00000  Uiso   1.00
H348   H     0.13135   0.39344   0.26307   0.00000  Uiso   1.00
C349   C     0.05682   0.38195   0.28366   0.00000  Uiso   1.00
H350   H     0.03752   0.38202   0.24866   0.00000  Uiso   1.00
H351   H     0.06190   0.34982   0.29440   0.00000  Uiso   1.00
H352   H     0.03139   0.39525   0.30565   0.00000  Uiso   1.00
O353   O     0.25279   0.52829   0.30151   0.00000  Uiso   1.00
C354   C     0.25788   0.56766   0.28295   0.00000  Uiso   1.00
H355   H     0.22492   0.58550   0.28544   0.00000  Uiso   1.00
H356   H     0.26239   0.56498   0.24707   0.00000  Uiso   1.00
C357   C     0.30462   0.59216   0.30591   0.00000  Uiso   1.00
H358   H     0.00341   0.57193   0.31493   0.00000  Uiso   1.00
H359   H     0.31640   0.61646   0.28318   0.00000  Uiso   1.00
H360   H     0.29559   0.60772   0.00319   0.00000  Uiso   1.00
O361   O     0.09742   0.45064   0.03949   0.00000  Uiso   1.00
C362   C     0.04851   0.46592   0.02721   0.00000  Uiso   1.00
H363   H     0.03609   0.46113   0.32478   0.00000  Uiso   1.00
H364   H     0.04893   0.49934   0.03431   0.00000  Uiso   1.00
C365   C     0.00852   0.44291   0.05064   0.00000  Uiso   1.00
H366   H     0.01391   0.45062   0.08672   0.00000  Uiso   1.00
H367   H     0.30307   0.45190   0.03634   0.00000  Uiso   1.00
H368   H     0.01100   0.40930   0.04569   0.00000  Uiso   1.00
C369   C     0.50081   0.42035   0.16644   0.00000  Uiso   1.00
C370   C     0.49603   0.57983   0.16642   0.00000  Uiso   1.00
C371   C     0.40096   0.50246   0.15558   0.00000  Uiso   1.00
C372   C     0.59903   0.50075   0.17839   0.00000  Uiso   1.00
C373   C     0.34753   0.51147   0.15238   0.00000  Uiso   1.00
C374   C     0.65349   0.50104   0.18574   0.00000  Uiso   1.00
C375   C     0.46271   0.35518   0.13461   0.00000  Uiso   1.00
C376   C     0.51464   0.64713   0.20386   0.00000  Uiso   1.00
C377   C     0.46265   0.64562   0.13103   0.00000  Uiso   1.00
C378   C     0.52780   0.35507   0.19984   0.00000  Uiso   1.00
C379   C     0.49063   0.62443   0.16649   0.00000  Uiso   1.00
C380   C     0.49974   0.37623   0.16546   0.00000  Uiso   1.00
C381   C     0.53325   0.52521   0.02786   0.00000  Uiso   1.00
C382   C     0.46707   0.47400   0.30520   0.00000  Uiso   1.00
C383   C     0.53785   0.52094   0.31444   0.00000  Uiso   1.00
C384   C     0.46605   0.47496   0.02005   0.00000  Uiso   1.00
N385   N     0.49999   0.49999   0.28573   0.00000  Uiso   1.00
N386   N     0.50001   0.50001   0.04760   0.00000  Uiso   1.00
O387   O     0.50000   0.43892   0.20487   0.00000  Uiso   1.00
O388   O     0.50000   0.56108   0.12846   0.00000  Uiso   1.00
O389   O     0.50000   0.43893   0.12843   0.00000  Uiso   1.00
O390   O     0.50000   0.56107   0.20490   0.00000  Uiso   1.00
O391   O     0.42392   0.50000   0.19595   0.00000  Uiso   1.00
O392   O     0.57608   0.50000   0.13739   0.00000  Uiso   1.00
O393   O     0.42392   0.50000   0.11950   0.00000  Uiso   1.00
O394   O     0.57608   0.50000   0.21383   0.00000  Uiso   1.00
Zn395  Zn    0.50000   0.49999   0.21771   0.00000  Uiso   1.00
Zn396  Zn    0.50000   0.50001   0.11563   0.00000  Uiso   1.00
C397   C     0.66178   0.54218   0.11945   0.00000  Uiso   1.00
O398   O     0.64561   0.57410   0.13262   0.00000  Uiso   1.00
O399   O     0.66376   0.53562   0.07412   0.00000  Uiso   1.00
H400   H     0.65606   0.56111   0.05621   0.00000  Uiso   1.00
C401   C     0.34221   0.49374   0.23241   0.00000  Uiso   1.00
O402   O     0.66584   0.46130   0.25000   0.00000  Uiso   1.00
O403   O     0.37009   0.52583   0.25687   0.00000  Uiso   1.00
H404   H     0.38194   0.51891   0.28901   0.00000  Uiso   1.00
O405   O     0.42161   0.37583   0.11373   0.00000  Uiso   1.00
C406   C     0.38631   0.38143   0.14497   0.00000  Uiso   1.00
H407   H     0.37682   0.41417   0.14542   0.00000  Uiso   1.00
H408   H     0.40101   0.37445   0.18043   0.00000  Uiso   1.00
C409   C     0.33755   0.35501   0.13158   0.00000  Uiso   1.00
H410   H     0.34588   0.65530   0.13437   0.00000  Uiso   1.00
H411   H     0.64229   0.36188   0.15425   0.00000  Uiso   1.00
H412   H     0.65448   0.36134   0.09667   0.00000  Uiso   1.00
O413   O     0.51659   0.63107   0.24586   0.00000  Uiso   1.00
C414   C     0.47174   0.64015   0.26447   0.00000  Uiso   1.00
H415   H     0.44543   0.66001   0.24319   0.00000  Uiso   1.00
H416   H     0.48331   0.65601   0.29734   0.00000  Uiso   1.00
C417   C     0.44111   0.60092   0.27204   0.00000  Uiso   1.00
H418   H     0.46541   0.57861   0.29109   0.00000  Uiso   1.00
H419   H     0.40976   0.60817   0.29138   0.00000  Uiso   1.00
H420   H     0.42419   0.58733   0.23917   0.00000  Uiso   1.00
C421   C     0.42908   0.62509   0.09299   0.00000  Uiso   1.00
O422   O     0.41338   0.58956   0.09562   0.00000  Uiso   1.00
O423   O     0.41518   0.64675   0.05370   0.00000  Uiso   1.00
H424   H     0.39129   0.62988   0.03067   0.00000  Uiso   1.00
C425   C     0.56823   0.37546   0.23291   0.00000  Uiso   1.00
O426   O     0.59539   0.40340   0.22082   0.00000  Uiso   1.00
O427   O     0.57662   0.36209   0.27719   0.00000  Uiso   1.00
H428   H     0.60497   0.37882   0.29619   0.00000  Uiso   1.00
O429   O     0.56265   0.55505   0.05366   0.00000  Uiso   1.00
C430   C     0.53832   0.59291   0.04761   0.00000  Uiso   1.00
H431   H     0.49816   0.58994   0.05431   0.00000  Uiso   1.00
H432   H     0.53720   0.60397   0.01315   0.00000  Uiso   1.00
C433   C     0.56718   0.62633   0.07795   0.00000  Uiso   1.00
H434   H     0.56834   0.61816   0.11364   0.00000  Uiso   1.00
H435   H     0.60691   0.63052   0.07020   0.00000  Uiso   1.00
H436   H     0.54808   0.65591   0.07252   0.00000  Uiso   1.00
O437   O     0.43385   0.44787   0.27737   0.00000  Uiso   1.00
C438   C     0.44166   0.40606   0.28768   0.00000  Uiso   1.00
H439   H     0.46283   0.40058   0.32145   0.00000  Uiso   1.00
H440   H     0.46469   0.39344   0.26307   0.00000  Uiso   1.00
C441   C     0.39015   0.38195   0.28366   0.00000  Uiso   1.00
H442   H     0.37086   0.38202   0.24866   0.00000  Uiso   1.00
H443   H     0.39523   0.34982   0.29440   0.00000  Uiso   1.00
H444   H     0.36472   0.39525   0.30565   0.00000  Uiso   1.00
O445   O     0.58612   0.52829   0.30151   0.00000  Uiso   1.00
C446   C     0.59121   0.56766   0.28295   0.00000  Uiso   1.00
H447   H     0.55825   0.58550   0.28544   0.00000  Uiso   1.00
H448   H     0.59572   0.56498   0.24707   0.00000  Uiso   1.00
C449   C     0.63795   0.59216   0.30591   0.00000  Uiso   1.00
H450   H     0.33674   0.57193   0.31493   0.00000  Uiso   1.00
H451   H     0.64974   0.61646   0.28318   0.00000  Uiso   1.00
H452   H     0.62893   0.60772   0.00319   0.00000  Uiso   1.00
O453   O     0.43075   0.45064   0.03949   0.00000  Uiso   1.00
C454   C     0.38185   0.46592   0.02721   0.00000  Uiso   1.00
H455   H     0.36943   0.46113   0.32478   0.00000  Uiso   1.00
H456   H     0.38226   0.49934   0.03431   0.00000  Uiso   1.00
C457   C     0.34185   0.44291   0.05064   0.00000  Uiso   1.00
H458   H     0.34724   0.45062   0.08672   0.00000  Uiso   1.00
H459   H     0.63641   0.45190   0.03634   0.00000  Uiso   1.00
H460   H     0.34433   0.40930   0.04569   0.00000  Uiso   1.00
C461   C     0.83414   0.42035   0.16644   0.00000  Uiso   1.00
C462   C     0.82936   0.57983   0.16642   0.00000  Uiso   1.00
C463   C     0.73429   0.50246   0.15558   0.00000  Uiso   1.00
C464   C     0.93236   0.50075   0.17839   0.00000  Uiso   1.00
C465   C     0.68086   0.51147   0.15238   0.00000  Uiso   1.00
C466   C     0.98682   0.50104   0.18574   0.00000  Uiso   1.00
C467   C     0.79604   0.35518   0.13461   0.00000  Uiso   1.00
C468   C     0.84798   0.64713   0.20386   0.00000  Uiso   1.00
C469   C     0.79599   0.64562   0.13103   0.00000  Uiso   1.00
C470   C     0.86114   0.35507   0.19984   0.00000  Uiso   1.00
C471   C     0.82397   0.62443   0.16649   0.00000  Uiso   1.00
C472   C     0.83308   0.37623   0.16546   0.00000  Uiso   1.00
C473   C     0.86659   0.52521   0.02786   0.00000  Uiso   1.00
C474   C     0.80040   0.47400   0.30520   0.00000  Uiso   1.00
C475   C     0.87119   0.52094   0.31444   0.00000  Uiso   1.00
C476   C     0.79939   0.47496   0.02005   0.00000  Uiso   1.00
N477   N     0.83332   0.49999   0.28573   0.00000  Uiso   1.00
N478   N     0.83335   0.50001   0.04760   0.00000  Uiso   1.00
O479   O     0.83333   0.43892   0.20487   0.00000  Uiso   1.00
O480   O     0.83334   0.56108   0.12846   0.00000  Uiso   1.00
O481   O     0.83333   0.43893   0.12843   0.00000  Uiso   1.00
O482   O     0.83334   0.56107   0.20490   0.00000  Uiso   1.00
O483   O     0.75725   0.50000   0.19595   0.00000  Uiso   1.00
O484   O     0.90942   0.50000   0.13739   0.00000  Uiso   1.00
O485   O     0.75725   0.50000   0.11950   0.00000  Uiso   1.00
O486   O     0.90942   0.50000   0.21383   0.00000  Uiso   1.00
Zn487  Zn    0.83333   0.49999   0.21771   0.00000  Uiso   1.00
Zn488  Zn    0.83333   0.50001   0.11563   0.00000  Uiso   1.00
C489   C     0.99511   0.54218   0.11945   0.00000  Uiso   1.00
O490   O     0.97894   0.57410   0.13262   0.00000  Uiso   1.00
O491   O     0.99710   0.53562   0.07412   0.00000  Uiso   1.00
H492   H     0.98940   0.56111   0.05621   0.00000  Uiso   1.00
C493   C     0.67554   0.49374   0.23241   0.00000  Uiso   1.00
O494   O     0.99917   0.46130   0.25000   0.00000  Uiso   1.00
O495   O     0.70342   0.52583   0.25687   0.00000  Uiso   1.00
H496   H     0.71527   0.51891   0.28901   0.00000  Uiso   1.00
O497   O     0.75495   0.37583   0.11373   0.00000  Uiso   1.00
C498   C     0.71964   0.38143   0.14497   0.00000  Uiso   1.00
H499   H     0.71015   0.41417   0.14542   0.00000  Uiso   1.00
H500   H     0.73435   0.37445   0.18043   0.00000  Uiso   1.00
C501   C     0.67088   0.35501   0.13158   0.00000  Uiso   1.00
H502   H     0.67921   0.65530   0.13437   0.00000  Uiso   1.00
H503   H     0.97563   0.36188   0.15425   0.00000  Uiso   1.00
H504   H     0.98781   0.36134   0.09667   0.00000  Uiso   1.00
O505   O     0.84992   0.63107   0.24586   0.00000  Uiso   1.00
C506   C     0.80507   0.64015   0.26447   0.00000  Uiso   1.00
H507   H     0.77877   0.66001   0.24319   0.00000  Uiso   1.00
H508   H     0.81665   0.65601   0.29734   0.00000  Uiso   1.00
C509   C     0.77444   0.60092   0.27204   0.00000  Uiso   1.00
H510   H     0.79874   0.57861   0.29109   0.00000  Uiso   1.00
H511   H     0.74309   0.60817   0.29138   0.00000  Uiso   1.00
H512   H     0.75752   0.58733   0.23917   0.00000  Uiso   1.00
C513   C     0.76242   0.62509   0.09299   0.00000  Uiso   1.00
O514   O     0.74672   0.58956   0.09562   0.00000  Uiso   1.00
O515   O     0.74851   0.64675   0.05370   0.00000  Uiso   1.00
H516   H     0.72462   0.62988   0.03067   0.00000  Uiso   1.00
C517   C     0.90156   0.37546   0.23291   0.00000  Uiso   1.00
O518   O     0.92872   0.40340   0.22082   0.00000  Uiso   1.00
O519   O     0.90995   0.36209   0.27719   0.00000  Uiso   1.00
H520   H     0.93830   0.37882   0.29619   0.00000  Uiso   1.00
O521   O     0.89598   0.55505   0.05366   0.00000  Uiso   1.00
C522   C     0.87165   0.59291   0.04761   0.00000  Uiso   1.00
H523   H     0.83149   0.58994   0.05431   0.00000  Uiso   1.00
H524   H     0.87053   0.60397   0.01315   0.00000  Uiso   1.00
C525   C     0.90051   0.62633   0.07795   0.00000  Uiso   1.00
H526   H     0.90167   0.61816   0.11364   0.00000  Uiso   1.00
H527   H     0.94024   0.63052   0.07020   0.00000  Uiso   1.00
H528   H     0.88141   0.65591   0.07252   0.00000  Uiso   1.00
O529   O     0.76718   0.44787   0.27737   0.00000  Uiso   1.00
C530   C     0.77500   0.40606   0.28768   0.00000  Uiso   1.00
H531   H     0.79616   0.40058   0.32145   0.00000  Uiso   1.00
H532   H     0.79802   0.39344   0.26307   0.00000  Uiso   1.00
C533   C     0.72349   0.38195   0.28366   0.00000  Uiso   1.00
H534   H     0.70419   0.38202   0.24866   0.00000  Uiso   1.00
H535   H     0.72857   0.34982   0.29440   0.00000  Uiso   1.00
H536   H     0.69805   0.39525   0.30565   0.00000  Uiso   1.00
O537   O     0.91946   0.52829   0.30151   0.00000  Uiso   1.00
C538   C     0.92454   0.56766   0.28295   0.00000  Uiso   1.00
H539   H     0.89159   0.58550   0.28544   0.00000  Uiso   1.00
H540   H     0.92905   0.56498   0.24707   0.00000  Uiso   1.00
C541   C     0.97128   0.59216   0.30591   0.00000  Uiso   1.00
H542   H     0.67008   0.57193   0.31493   0.00000  Uiso   1.00
H543   H     0.98307   0.61646   0.28318   0.00000  Uiso   1.00
H544   H     0.96226   0.60772   0.00319   0.00000  Uiso   1.00
O545   O     0.76409   0.45064   0.03949   0.00000  Uiso   1.00
C546   C     0.71518   0.46592   0.02721   0.00000  Uiso   1.00
H547   H     0.70276   0.46113   0.32478   0.00000  Uiso   1.00
H548   H     0.71560   0.49934   0.03431   0.00000  Uiso   1.00
C549   C     0.67519   0.44291   0.05064   0.00000  Uiso   1.00
H550   H     0.68057   0.45062   0.08672   0.00000  Uiso   1.00
H551   H     0.96974   0.45190   0.03634   0.00000  Uiso   1.00
H552   H     0.67767   0.40930   0.04569   0.00000  Uiso   1.00
C553   C     0.16748   0.75369   0.16644   0.00000  Uiso   1.00
C554   C     0.16270   0.91316   0.16642   0.00000  Uiso   1.00
C555   C     0.06763   0.83580   0.15558   0.00000  Uiso   1.00
C556   C     0.26570   0.83409   0.17839   0.00000  Uiso   1.00
C557   C     0.01420   0.84480   0.15238   0.00000  Uiso   1.00
C558   C     0.32015   0.83437   0.18574   0.00000  Uiso   1.00
C559   C     0.12938   0.68851   0.13461   0.00000  Uiso   1.00
C560   C     0.18131   0.98047   0.20386   0.00000  Uiso   1.00
C561   C     0.12932   0.97895   0.13103   0.00000  Uiso   1.00
C562   C     0.19447   0.68840   0.19984   0.00000  Uiso   1.00
C563   C     0.15730   0.95776   0.16649   0.00000  Uiso   1.00
C564   C     0.16641   0.70956   0.16546   0.00000  Uiso   1.00
C565   C     0.19992   0.85854   0.02786   0.00000  Uiso   1.00
C566   C     0.13373   0.80734   0.30520   0.00000  Uiso   1.00
C567   C     0.20452   0.85427   0.31444   0.00000  Uiso   1.00
C568   C     0.13272   0.80829   0.02005   0.00000  Uiso   1.00
N569   N     0.16665   0.83332   0.28573   0.00000  Uiso   1.00
N570   N     0.16668   0.83334   0.04760   0.00000  Uiso   1.00
O571   O     0.16666   0.77225   0.20487   0.00000  Uiso   1.00
O572   O     0.16667   0.89442   0.12846   0.00000  Uiso   1.00
O573   O     0.16666   0.77226   0.12843   0.00000  Uiso   1.00
O574   O     0.16667   0.89441   0.20490   0.00000  Uiso   1.00
O575   O     0.09058   0.83333   0.19595   0.00000  Uiso   1.00
O576   O     0.24275   0.83334   0.13739   0.00000  Uiso   1.00
O577   O     0.09058   0.83334   0.11950   0.00000  Uiso   1.00
O578   O     0.24275   0.83333   0.21383   0.00000  Uiso   1.00
Zn579  Zn    0.16667   0.83333   0.21771   0.00000  Uiso   1.00
Zn580  Zn    0.16667   0.83334   0.11563   0.00000  Uiso   1.00
C581   C     0.32845   0.87551   0.11945   0.00000  Uiso   1.00
O582   O     0.31227   0.90743   0.13262   0.00000  Uiso   1.00
O583   O     0.33043   0.86895   0.07412   0.00000  Uiso   1.00
H584   H     0.32273   0.89445   0.05621   0.00000  Uiso   1.00
C585   C     0.00888   0.82708   0.23241   0.00000  Uiso   1.00
O586   O     0.33250   0.79463   0.25000   0.00000  Uiso   1.00
O587   O     0.03675   0.85916   0.25687   0.00000  Uiso   1.00
H588   H     0.04861   0.85224   0.28901   0.00000  Uiso   1.00
O589   O     0.08828   0.70916   0.11373   0.00000  Uiso   1.00
C590   C     0.05297   0.71476   0.14497   0.00000  Uiso   1.00
H591   H     0.04349   0.74750   0.14542   0.00000  Uiso   1.00
H592   H     0.06768   0.70778   0.18043   0.00000  Uiso   1.00
C593   C     0.00422   0.68834   0.13158   0.00000  Uiso   1.00
H594   H     0.01254   0.98863   0.13437   0.00000  Uiso   1.00
H595   H     0.30896   0.69521   0.15425   0.00000  Uiso   1.00
H596   H     0.32115   0.69467   0.09667   0.00000  Uiso   1.00
O597   O     0.18325   0.96441   0.24586   0.00000  Uiso   1.00
C598   C     0.13840   0.97348   0.26447   0.00000  Uiso   1.00
H599   H     0.11210   0.99335   0.24319   0.00000  Uiso   1.00
H600   H     0.14998   0.98935   0.29734   0.00000  Uiso   1.00
C601   C     0.10778   0.93425   0.27204   0.00000  Uiso   1.00
H602   H     0.13207   0.91195   0.29109   0.00000  Uiso   1.00
H603   H     0.07643   0.94150   0.29138   0.00000  Uiso   1.00
H604   H     0.09085   0.92066   0.23917   0.00000  Uiso   1.00
C605   C     0.09575   0.95842   0.09299   0.00000  Uiso   1.00
O606   O     0.08005   0.92290   0.09562   0.00000  Uiso   1.00
O607   O     0.08184   0.98009   0.05370   0.00000  Uiso   1.00
H608   H     0.05796   0.96321   0.03067   0.00000  Uiso   1.00
C609   C     0.23490   0.70880   0.23291   0.00000  Uiso   1.00
O610   O     0.26205   0.73673   0.22082   0.00000  Uiso   1.00
O611   O     0.24328   0.69542   0.27719   0.00000  Uiso   1.00
H612   H     0.27163   0.71215   0.29619   0.00000  Uiso   1.00
O613   O     0.22932   0.88838   0.05366   0.00000  Uiso   1.00
C614   C     0.20498   0.92624   0.04761   0.00000  Uiso   1.00
H615   H     0.16483   0.92327   0.05431   0.00000  Uiso   1.00
H616   H     0.20387   0.93731   0.01315   0.00000  Uiso   1.00
C617   C     0.23385   0.95966   0.07795   0.00000  Uiso   1.00
H618   H     0.23500   0.95149   0.11364   0.00000  Uiso   1.00
H619   H     0.27358   0.96385   0.07020   0.00000  Uiso   1.00
H620   H     0.21474   0.98924   0.07252   0.00000  Uiso   1.00
O621   O     0.10052   0.78120   0.27737   0.00000  Uiso   1.00
C622   C     0.10833   0.73939   0.28768   0.00000  Uiso   1.00
H623   H     0.12949   0.73391   0.32145   0.00000  Uiso   1.00
H624   H     0.13135   0.72677   0.26307   0.00000  Uiso   1.00
C625   C     0.05682   0.71528   0.28366   0.00000  Uiso   1.00
H626   H     0.03752   0.71535   0.24866   0.00000  Uiso   1.00
H627   H     0.06190   0.68315   0.29440   0.00000  Uiso   1.00
H628   H     0.03139   0.72858   0.30565   0.00000  Uiso   1.00
O629   O     0.25279   0.86163   0.30151   0.00000  Uiso   1.00
C630   C     0.25788   0.90100   0.28295   0.00000  Uiso   1.00
H631   H     0.22492   0.91883   0.28544   0.00000  Uiso   1.00
H632   H     0.26239   0.89832   0.24707   0.00000  Uiso   1.00
C633   C     0.30462   0.92549   0.30591   0.00000  Uiso   1.00
H634   H     0.00341   0.90526   0.31493   0.00000  Uiso   1.00
H635   H     0.31640   0.94979   0.28318   0.00000  Uiso   1.00
H636   H     0.29559   0.94105   0.00319   0.00000  Uiso   1.00
O637   O     0.09742   0.78397   0.03949   0.00000  Uiso   1.00
C638   C     0.04851   0.79926   0.02721   0.00000  Uiso   1.00
H639   H     0.03609   0.79447   0.32478   0.00000  Uiso   1.00
H640   H     0.04893   0.83268   0.03431   0.00000  Uiso   1.00
C641   C     0.00852   0.77625   0.05064   0.00000  Uiso   1.00
H642   H     0.01391   0.78396   0.08672   0.00000  Uiso   1.00
H643   H     0.30307   0.78523   0.03634   0.00000  Uiso   1.00
H644   H     0.01100   0.74263   0.04569   0.00000  Uiso   1.00
C645   C     0.50081   0.75369   0.16644   0.00000  Uiso   1.00
C646   C     0.49603   0.91316   0.16642   0.00000  Uiso   1.00
C647   C     0.40096   0.83580   0.15558   0.00000  Uiso   1.00
C648   C     0.59903   0.83409   0.17839   0.00000  Uiso   1.00
C649   C     0.34753   0.84480   0.15238   0.00000  Uiso   1.00
C650   C     0.65349   0.83437   0.18574   0.00000  Uiso   1.00
C651   C     0.46271   0.68851   0.13461   0.00000  Uiso   1.00
C652   C     0.51464   0.98047   0.20386   0.00000  Uiso   1.00
C653   C     0.46265   0.97895   0.13103   0.00000  Uiso   1.00
C654   C     0.52780   0.68840   0.19984   0.00000  Uiso   1.00
C655   C     0.49063   0.95776   0.16649   0.00000  Uiso   1.00
C656   C     0.49974   0.70956   0.16546   0.00000  Uiso   1.00
C657   C     0.53325   0.85854   0.02786   0.00000  Uiso   1.00
C658   C     0.46707   0.80734   0.30520   0.00000  Uiso   1.00
C659   C     0.53785   0.85427   0.31444   0.00000  Uiso   1.00
C660   C     0.46605   0.80829   0.02005   0.00000  Uiso   1.00
N661   N     0.49999   0.83332   0.28573   0.00000  Uiso   1.00
N662   N     0.50001   0.83334   0.04760   0.00000  Uiso   1.00
O663   O     0.50000   0.77225   0.20487   0.00000  Uiso   1.00
O664   O     0.50000   0.89442   0.12846   0.00000  Uiso   1.00
O665   O     0.50000   0.77226   0.12843   0.00000  Uiso   1.00
O666   O     0.50000   0.89441   0.20490   0.00000  Uiso   1.00
O667   O     0.42392   0.83333   0.19595   0.00000  Uiso   1.00
O668   O     0.57608   0.83334   0.13739   0.00000  Uiso   1.00
O669   O     0.42392   0.83334   0.11950   0.00000  Uiso   1.00
O670   O     0.57608   0.83333   0.21383   0.00000  Uiso   1.00
Zn671  Zn    0.50000   0.83333   0.21771   0.00000  Uiso   1.00
Zn672  Zn    0.50000   0.83334   0.11563   0.00000  Uiso   1.00
C673   C     0.66178   0.87551   0.11945   0.00000  Uiso   1.00
O674   O     0.64561   0.90743   0.13262   0.00000  Uiso   1.00
O675   O     0.66376   0.86895   0.07412   0.00000  Uiso   1.00
H676   H     0.65606   0.89445   0.05621   0.00000  Uiso   1.00
C677   C     0.34221   0.82708   0.23241   0.00000  Uiso   1.00
O678   O     0.66584   0.79463   0.25000   0.00000  Uiso   1.00
O679   O     0.37009   0.85916   0.25687   0.00000  Uiso   1.00
H680   H     0.38194   0.85224   0.28901   0.00000  Uiso   1.00
O681   O     0.42161   0.70916   0.11373   0.00000  Uiso   1.00
C682   C     0.38631   0.71476   0.14497   0.00000  Uiso   1.00
H683   H     0.37682   0.74750   0.14542   0.00000  Uiso   1.00
H684   H     0.40101   0.70778   0.18043   0.00000  Uiso   1.00
C685   C     0.33755   0.68834   0.13158   0.00000  Uiso   1.00
H686   H     0.34588   0.98863   0.13437   0.00000  Uiso   1.00
H687   H     0.64229   0.69521   0.15425   0.00000  Uiso   1.00
H688   H     0.65448   0.69467   0.09667   0.00000  Uiso   1.00
O689   O     0.51659   0.96441   0.24586   0.00000  Uiso   1.00
C690   C     0.47174   0.97348   0.26447   0.00000  Uiso   1.00
H691   H     0.44543   0.99335   0.24319   0.00000  Uiso   1.00
H692   H     0.48331   0.98935   0.29734   0.00000  Uiso   1.00
C693   C     0.44111   0.93425   0.27204   0.00000  Uiso   1.00
H694   H     0.46541   0.91195   0.29109   0.00000  Uiso   1.00
H695   H     0.40976   0.94150   0.29138   0.00000  Uiso   1.00
H696   H     0.42419   0.92066   0.23917   0.00000  Uiso   1.00
C697   C     0.42908   0.95842   0.09299   0.00000  Uiso   1.00
O698   O     0.41338   0.92290   0.09562   0.00000  Uiso   1.00
O699   O     0.41518   0.98009   0.05370   0.00000  Uiso   1.00
H700   H     0.39129   0.96321   0.03067   0.00000  Uiso   1.00
C701   C     0.56823   0.70880   0.23291   0.00000  Uiso   1.00
O702   O     0.59539   0.73673   0.22082   0.00000  Uiso   1.00
O703   O     0.57662   0.69542   0.27719   0.00000  Uiso   1.00
H704   H     0.60497   0.71215   0.29619   0.00000  Uiso   1.00
O705   O     0.56265   0.88838   0.05366   0.00000  Uiso   1.00
C706   C     0.53832   0.92624   0.04761   0.00000  Uiso   1.00
H707   H     0.49816   0.92327   0.05431   0.00000  Uiso   1.00
H708   H     0.53720   0.93731   0.01315   0.00000  Uiso   1.00
C709   C     0.56718   0.95966   0.07795   0.00000  Uiso   1.00
H710   H     0.56834   0.95149   0.11364   0.00000  Uiso   1.00
H711   H     0.60691   0.96385   0.07020   0.00000  Uiso   1.00
H712   H     0.54808   0.98924   0.07252   0.00000  Uiso   1.00
O713   O     0.43385   0.78120   0.27737   0.00000  Uiso   1.00
C714   C     0.44166   0.73939   0.28768   0.00000  Uiso   1.00
H715   H     0.46283   0.73391   0.32145   0.00000  Uiso   1.00
H716   H     0.46469   0.72677   0.26307   0.00000  Uiso   1.00
C717   C     0.39015   0.71528   0.28366   0.00000  Uiso   1.00
H718   H     0.37086   0.71535   0.24866   0.00000  Uiso   1.00
H719   H     0.39523   0.68315   0.29440   0.00000  Uiso   1.00
H720   H     0.36472   0.72858   0.30565   0.00000  Uiso   1.00
O721   O     0.58612   0.86163   0.30151   0.00000  Uiso   1.00
C722   C     0.59121   0.90100   0.28295   0.00000  Uiso   1.00
H723   H     0.55825   0.91883   0.28544   0.00000  Uiso   1.00
H724   H     0.59572   0.89832   0.24707   0.00000  Uiso   1.00
C725   C     0.63795   0.92549   0.30591   0.00000  Uiso   1.00
H726   H     0.33674   0.90526   0.31493   0.00000  Uiso   1.00
H727   H     0.64974   0.94979   0.28318   0.00000  Uiso   1.00
H728   H     0.62893   0.94105   0.00319   0.00000  Uiso   1.00
O729   O     0.43075   0.78397   0.03949   0.00000  Uiso   1.00
C730   C     0.38185   0.79926   0.02721   0.00000  Uiso   1.00
H731   H     0.36943   0.79447   0.32478   0.00000  Uiso   1.00
H732   H     0.38226   0.83268   0.03431   0.00000  Uiso   1.00
C733   C     0.34185   0.77625   0.05064   0.00000  Uiso   1.00
H734   H     0.34724   0.78396   0.08672   0.00000  Uiso   1.00
H735   H     0.63641   0.78523   0.03634   0.00000  Uiso   1.00
H736   H     0.34433   0.74263   0.04569   0.00000  Uiso   1.00
C737   C     0.83414   0.75369   0.16644   0.00000  Uiso   1.00
C738   C     0.82936   0.91316   0.16642   0.00000  Uiso   1.00
C739   C     0.73429   0.83580   0.15558   0.00000  Uiso   1.00
C740   C     0.93236   0.83409   0.17839   0.00000  Uiso   1.00
C741   C     0.68086   0.84480   0.15238   0.00000  Uiso   1.00
C742   C     0.98682   0.83437   0.18574   0.00000  Uiso   1.00
C743   C     0.79604   0.68851   0.13461   0.00000  Uiso   1.00
C744   C     0.84798   0.98047   0.20386   0.00000  Uiso   1.00
C745   C     0.79599   0.97895   0.13103   0.00000  Uiso   1.00
C746   C     0.86114   0.68840   0.19984   0.00000  Uiso   1.00
C747   C     0.82397   0.95776   0.16649   0.00000  Uiso   1.00
C748   C     0.83308   0.70956   0.16546   0.00000  Uiso   1.00
C749   C     0.86659   0.85854   0.02786   0.00000  Uiso   1.00
C750   C     0.80040   0.80734   0.30520   0.00000  Uiso   1.00
C751   C     0.87119   0.85427   0.31444   0.00000  Uiso   1.00
C752   C     0.79939   0.80829   0.02005   0.00000  Uiso   1.00
N753   N     0.83332   0.83332   0.28573   0.00000  Uiso   1.00
N754   N     0.83335   0.83334   0.04760   0.00000  Uiso   1.00
O755   O     0.83333   0.77225   0.20487   0.00000  Uiso   1.00
O756   O     0.83334   0.89442   0.12846   0.00000  Uiso   1.00
O757   O     0.83333   0.77226   0.12843   0.00000  Uiso   1.00
O758   O     0.83334   0.89441   0.20490   0.00000  Uiso   1.00
O759   O     0.75725   0.83333   0.19595   0.00000  Uiso   1.00
O760   O     0.90942   0.83334   0.13739   0.00000  Uiso   1.00
O761   O     0.75725   0.83334   0.11950   0.00000  Uiso   1.00
O762   O     0.90942   0.83333   0.21383   0.00000  Uiso   1.00
Zn763  Zn    0.83333   0.83333   0.21771   0.00000  Uiso   1.00
Zn764  Zn    0.83333   0.83334   0.11563   0.00000  Uiso   1.00
C765   C     0.99511   0.87551   0.11945   0.00000  Uiso   1.00
O766   O     0.97894   0.90743   0.13262   0.00000  Uiso   1.00
O767   O     0.99710   0.86895   0.07412   0.00000  Uiso   1.00
H768   H     0.98940   0.89445   0.05621   0.00000  Uiso   1.00
C769   C     0.67554   0.82708   0.23241   0.00000  Uiso   1.00
O770   O     0.99917   0.79463   0.25000   0.00000  Uiso   1.00
O771   O     0.70342   0.85916   0.25687   0.00000  Uiso   1.00
H772   H     0.71527   0.85224   0.28901   0.00000  Uiso   1.00
O773   O     0.75495   0.70916   0.11373   0.00000  Uiso   1.00
C774   C     0.71964   0.71476   0.14497   0.00000  Uiso   1.00
H775   H     0.71015   0.74750   0.14542   0.00000  Uiso   1.00
H776   H     0.73435   0.70778   0.18043   0.00000  Uiso   1.00
C777   C     0.67088   0.68834   0.13158   0.00000  Uiso   1.00
H778   H     0.67921   0.98863   0.13437   0.00000  Uiso   1.00
H779   H     0.97563   0.69521   0.15425   0.00000  Uiso   1.00
H780   H     0.98781   0.69467   0.09667   0.00000  Uiso   1.00
O781   O     0.84992   0.96441   0.24586   0.00000  Uiso   1.00
C782   C     0.80507   0.97348   0.26447   0.00000  Uiso   1.00
H783   H     0.77877   0.99335   0.24319   0.00000  Uiso   1.00
H784   H     0.81665   0.98935   0.29734   0.00000  Uiso   1.00
C785   C     0.77444   0.93425   0.27204   0.00000  Uiso   1.00
H786   H     0.79874   0.91195   0.29109   0.00000  Uiso   1.00
H787   H     0.74309   0.94150   0.29138   0.00000  Uiso   1.00
H788   H     0.75752   0.92066   0.23917   0.00000  Uiso   1.00
C789   C     0.76242   0.95842   0.09299   0.00000  Uiso   1.00
O790   O     0.74672   0.92290   0.09562   0.00000  Uiso   1.00
O791   O     0.74851   0.98009   0.05370   0.00000  Uiso   1.00
H792   H     0.72462   0.96321   0.03067   0.00000  Uiso   1.00
C793   C     0.90156   0.70880   0.23291   0.00000  Uiso   1.00
O794   O     0.92872   0.73673   0.22082   0.00000  Uiso   1.00
O795   O     0.90995   0.69542   0.27719   0.00000  Uiso   1.00
H796   H     0.93830   0.71215   0.29619   0.00000  Uiso   1.00
O797   O     0.89598   0.88838   0.05366   0.00000  Uiso   1.00
C798   C     0.87165   0.92624   0.04761   0.00000  Uiso   1.00
H799   H     0.83149   0.92327   0.05431   0.00000  Uiso   1.00
H800   H     0.87053   0.93731   0.01315   0.00000  Uiso   1.00
C801   C     0.90051   0.95966   0.07795   0.00000  Uiso   1.00
H802   H     0.90167   0.95149   0.11364   0.00000  Uiso   1.00
H803   H     0.94024   0.96385   0.07020   0.00000  Uiso   1.00
H804   H     0.88141   0.98924   0.07252   0.00000  Uiso   1.00
O805   O     0.76718   0.78120   0.27737   0.00000  Uiso   1.00
C806   C     0.77500   0.73939   0.28768   0.00000  Uiso   1.00
H807   H     0.79616   0.73391   0.32145   0.00000  Uiso   1.00
H808   H     0.79802   0.72677   0.26307   0.00000  Uiso   1.00
C809   C     0.72349   0.71528   0.28366   0.00000  Uiso   1.00
H810   H     0.70419   0.71535   0.24866   0.00000  Uiso   1.00
H811   H     0.72857   0.68315   0.29440   0.00000  Uiso   1.00
H812   H     0.69805   0.72858   0.30565   0.00000  Uiso   1.00
O813   O     0.91946   0.86163   0.30151   0.00000  Uiso   1.00
C814   C     0.92454   0.90100   0.28295   0.00000  Uiso   1.00
H815   H     0.89159   0.91883   0.28544   0.00000  Uiso   1.00
H816   H     0.92905   0.89832   0.24707   0.00000  Uiso   1.00
C817   C     0.97128   0.92549   0.30591   0.00000  Uiso   1.00
H818   H     0.67008   0.90526   0.31493   0.00000  Uiso   1.00
H819   H     0.98307   0.94979   0.28318   0.00000  Uiso   1.00
H820   H     0.96226   0.94105   0.00319   0.00000  Uiso   1.00
O821   O     0.76409   0.78397   0.03949   0.00000  Uiso   1.00
C822   C     0.71518   0.79926   0.02721   0.00000  Uiso   1.00
H823   H     0.70276   0.79447   0.32478   0.00000  Uiso   1.00
H824   H     0.71560   0.83268   0.03431   0.00000  Uiso   1.00
C825   C     0.67519   0.77625   0.05064   0.00000  Uiso   1.00
H826   H     0.68057   0.78396   0.08672   0.00000  Uiso   1.00
H827   H     0.96974   0.78523   0.03634   0.00000  Uiso   1.00
H828   H     0.67767   0.74263   0.04569   0.00000  Uiso   1.00
C829   C     0.16748   0.08702   0.49977   0.00000  Uiso   1.00
C830   C     0.16270   0.24649   0.49975   0.00000  Uiso   1.00
C831   C     0.06763   0.16913   0.48891   0.00000  Uiso   1.00
C832   C     0.26570   0.16742   0.51172   0.00000  Uiso   1.00
C833   C     0.01420   0.17814   0.48572   0.00000  Uiso   1.00
C834   C     0.32015   0.16770   0.51908   0.00000  Uiso   1.00
C835   C     0.12938   0.02185   0.46794   0.00000  Uiso   1.00
C836   C     0.18131   0.31380   0.53719   0.00000  Uiso   1.00
C837   C     0.12932   0.31228   0.46436   0.00000  Uiso   1.00
C838   C     0.19447   0.02174   0.53318   0.00000  Uiso   1.00
C839   C     0.15730   0.29110   0.49983   0.00000  Uiso   1.00
C840   C     0.16641   0.04289   0.49879   0.00000  Uiso   1.00
C841   C     0.19992   0.19188   0.36119   0.00000  Uiso   1.00
C842   C     0.13373   0.14067   0.63853   0.00000  Uiso   1.00
C843   C     0.20452   0.18761   0.64777   0.00000  Uiso   1.00
C844   C     0.13272   0.14162   0.35338   0.00000  Uiso   1.00
N845   N     0.16665   0.16666   0.61907   0.00000  Uiso   1.00
N846   N     0.16668   0.16668   0.38093   0.00000  Uiso   1.00
O847   O     0.16666   0.10558   0.53821   0.00000  Uiso   1.00
O848   O     0.16667   0.22775   0.46179   0.00000  Uiso   1.00
O849   O     0.16666   0.10559   0.46176   0.00000  Uiso   1.00
O850   O     0.16667   0.22774   0.53824   0.00000  Uiso   1.00
O851   O     0.09058   0.16666   0.52928   0.00000  Uiso   1.00
O852   O     0.24275   0.16667   0.47072   0.00000  Uiso   1.00
O853   O     0.09058   0.16667   0.45284   0.00000  Uiso   1.00
O854   O     0.24275   0.16666   0.54716   0.00000  Uiso   1.00
Zn855  Zn    0.16667   0.16666   0.55104   0.00000  Uiso   1.00
Zn856  Zn    0.16667   0.16667   0.44896   0.00000  Uiso   1.00
C857   C     0.32845   0.20885   0.45278   0.00000  Uiso   1.00
O858   O     0.31227   0.24077   0.46595   0.00000  Uiso   1.00
O859   O     0.33043   0.20229   0.40746   0.00000  Uiso   1.00
H860   H     0.32273   0.22778   0.38954   0.00000  Uiso   1.00
C861   C     0.00888   0.16041   0.56575   0.00000  Uiso   1.00
O862   O     0.33250   0.12796   0.58333   0.00000  Uiso   1.00
O863   O     0.03675   0.19250   0.59021   0.00000  Uiso   1.00
H864   H     0.04861   0.18558   0.62234   0.00000  Uiso   1.00
O865   O     0.08828   0.04250   0.44706   0.00000  Uiso   1.00
C866   C     0.05297   0.04809   0.47830   0.00000  Uiso   1.00
H867   H     0.04349   0.08083   0.47875   0.00000  Uiso   1.00
H868   H     0.06768   0.04112   0.51377   0.00000  Uiso   1.00
C869   C     0.00422   0.02168   0.46492   0.00000  Uiso   1.00
H870   H     0.01254   0.32196   0.46771   0.00000  Uiso   1.00
H871   H     0.30896   0.02854   0.48758   0.00000  Uiso   1.00
H872   H     0.32115   0.02800   0.43000   0.00000  Uiso   1.00
O873   O     0.18325   0.29774   0.57920   0.00000  Uiso   1.00
C874   C     0.13840   0.30681   0.59780   0.00000  Uiso   1.00
H875   H     0.11210   0.32668   0.57652   0.00000  Uiso   1.00
H876   H     0.14998   0.32268   0.63068   0.00000  Uiso   1.00
C877   C     0.10778   0.26759   0.60537   0.00000  Uiso   1.00
H878   H     0.13207   0.24528   0.62442   0.00000  Uiso   1.00
H879   H     0.07643   0.27484   0.62471   0.00000  Uiso   1.00
H880   H     0.09085   0.25400   0.57251   0.00000  Uiso   1.00
C881   C     0.09575   0.29176   0.42632   0.00000  Uiso   1.00
O882   O     0.08005   0.25623   0.42896   0.00000  Uiso   1.00
O883   O     0.08184   0.31342   0.38703   0.00000  Uiso   1.00
H884   H     0.05796   0.29655   0.36400   0.00000  Uiso   1.00
C885   C     0.23490   0.04213   0.56625   0.00000  Uiso   1.00
O886   O     0.26205   0.07007   0.55416   0.00000  Uiso   1.00
O887   O     0.24328   0.02876   0.61052   0.00000  Uiso   1.00
H888   H     0.27163   0.04549   0.62952   0.00000  Uiso   1.00
O889   O     0.22932   0.22171   0.38699   0.00000  Uiso   1.00
C890   C     0.20498   0.25957   0.38094   0.00000  Uiso   1.00
H891   H     0.16483   0.25660   0.38764   0.00000  Uiso   1.00
H892   H     0.20387   0.27064   0.34648   0.00000  Uiso   1.00
C893   C     0.23385   0.29299   0.41128   0.00000  Uiso   1.00
H894   H     0.23500   0.28483   0.44698   0.00000  Uiso   1.00
H895   H     0.27358   0.29719   0.40353   0.00000  Uiso   1.00
H896   H     0.21474   0.32257   0.40586   0.00000  Uiso   1.00
O897   O     0.10052   0.11453   0.61070   0.00000  Uiso   1.00
C898   C     0.10833   0.07272   0.62101   0.00000  Uiso   1.00
H899   H     0.12949   0.06724   0.65478   0.00000  Uiso   1.00
H900   H     0.13135   0.06010   0.59640   0.00000  Uiso   1.00
C901   C     0.05682   0.04862   0.61699   0.00000  Uiso   1.00
H902   H     0.03752   0.04869   0.58199   0.00000  Uiso   1.00
H903   H     0.06190   0.01648   0.62773   0.00000  Uiso   1.00
H904   H     0.03139   0.06191   0.63898   0.00000  Uiso   1.00
O905   O     0.25279   0.19496   0.63484   0.00000  Uiso   1.00
C906   C     0.25788   0.23433   0.61628   0.00000  Uiso   1.00
H907   H     0.22492   0.25217   0.61878   0.00000  Uiso   1.00
H908   H     0.26239   0.23165   0.58040   0.00000  Uiso   1.00
C909   C     0.30462   0.25883   0.63924   0.00000  Uiso   1.00
H910   H     0.00341   0.23859   0.64827   0.00000  Uiso   1.00
H911   H     0.31640   0.28313   0.61651   0.00000  Uiso   1.00
H912   H     0.29559   0.27439   0.33652   0.00000  Uiso   1.00
O913   O     0.09742   0.11731   0.37282   0.00000  Uiso   1.00
C914   C     0.04851   0.13259   0.36055   0.00000  Uiso   1.00
H915   H     0.03609   0.12780   0.65811   0.00000  Uiso   1.00
H916   H     0.04893   0.16601   0.36764   0.00000  Uiso   1.00
C917   C     0.00852   0.10958   0.38397   0.00000  Uiso   1.00
H918   H     0.01391   0.11729   0.42006   0.00000  Uiso   1.00
H919   H     0.30307   0.11856   0.36968   0.00000  Uiso   1.00
H920   H     0.01100   0.07596   0.37902   0.00000  Uiso   1.00
C921   C     0.50081   0.08702   0.49977   0.00000  Uiso   1.00
C922   C     0.49603   0.24649   0.49975   0.00000  Uiso   1.00
C923   C     0.40096   0.16913   0.48891   0.00000  Uiso   1.00
C924   C     0.59903   0.16742   0.51172   0.00000  Uiso   1.00
C925   C     0.34753   0.17814   0.48572   0.00000  Uiso   1.00
C926   C     0.65349   0.16770   0.51908   0.00000  Uiso   1.00
C927   C     0.46271   0.02185   0.46794   0.00000  Uiso   1.00
C928   C     0.51464   0.31380   0.53719   0.00000  Uiso   1.00
C929   C     0.46265   0.31228   0.46436   0.00000  Uiso   1.00
C930   C     0.52780   0.02174   0.53318   0.00000  Uiso   1.00
C931   C     0.49063   0.29110   0.49983   0.00000  Uiso   1.00
C932   C     0.49974   0.04289   0.49879   0.00000  Uiso   1.00
C933   C     0.53325   0.19188   0.36119   0.00000  Uiso   1.00
C934   C     0.46707   0.14067   0.63853   0.00000  Uiso   1.00
C935   C     0.53785   0.18761   0.64777   0.00000  Uiso   1.00
C936   C     0.46605   0.14162   0.35338   0.00000  Uiso   1.00
N937   N     0.49999   0.16666   0.61907   0.00000  Uiso   1.00
N938   N     0.50001   0.16668   0.38093   0.00000  Uiso   1.00
O939   O     0.50000   0.10558   0.53821   0.00000  Uiso   1.00
O940   O     0.50000   0.22775   0.46179   0.00000  Uiso   1.00
O941   O     0.50000   0.10559   0.46176   0.00000  Uiso   1.00
O942   O     0.50000   0.22774   0.53824   0.00000  Uiso   1.00
O943   O     0.42392   0.16666   0.52928   0.00000  Uiso   1.00
O944   O     0.57608   0.16667   0.47072   0.00000  Uiso   1.00
O945   O     0.42392   0.16667   0.45284   0.00000  Uiso   1.00
O946   O     0.57608   0.16666   0.54716   0.00000  Uiso   1.00
Zn947  Zn    0.50000   0.16666   0.55104   0.00000  Uiso   1.00
Zn948  Zn    0.50000   0.16667   0.44896   0.00000  Uiso   1.00
C949   C     0.66178   0.20885   0.45278   0.00000  Uiso   1.00
O950   O     0.64561   0.24077   0.46595   0.00000  Uiso   1.00
O951   O     0.66376   0.20229   0.40746   0.00000  Uiso   1.00
H952   H     0.65606   0.22778   0.38954   0.00000  Uiso   1.00
C953   C     0.34221   0.16041   0.56575   0.00000  Uiso   1.00
O954   O     0.66584   0.12796   0.58333   0.00000  Uiso   1.00
O955   O     0.37009   0.19250   0.59021   0.00000  Uiso   1.00
H956   H     0.38194   0.18558   0.62234   0.00000  Uiso   1.00
O957   O     0.42161   0.04250   0.44706   0.00000  Uiso   1.00
C958   C     0.38631   0.04809   0.47830   0.00000  Uiso   1.00
H959   H     0.37682   0.08083   0.47875   0.00000  Uiso   1.00
H960   H     0.40101   0.04112   0.51377   0.00000  Uiso   1.00
C961   C     0.33755   0.02168   0.46492   0.00000  Uiso   1.00
H962   H     0.34588   0.32196   0.46771   0.00000  Uiso   1.00
H963   H     0.64229   0.02854   0.48758   0.00000  Uiso   1.00
H964   H     0.65448   0.02800   0.43000   0.00000  Uiso   1.00
O965   O     0.51659   0.29774   0.57920   0.00000  Uiso   1.00
C966   C     0.47174   0.30681   0.59780   0.00000  Uiso   1.00
H967   H     0.44543   0.32668   0.57652   0.00000  Uiso   1.00
H968   H     0.48331   0.32268   0.63068   0.00000  Uiso   1.00
C969   C     0.44111   0.26759   0.60537   0.00000  Uiso   1.00
H970   H     0.46541   0.24528   0.62442   0.00000  Uiso   1.00
H971   H     0.40976   0.27484   0.62471   0.00000  Uiso   1.00
H972   H     0.42419   0.25400   0.57251   0.00000  Uiso   1.00
C973   C     0.42908   0.29176   0.42632   0.00000  Uiso   1.00
O974   O     0.41338   0.25623   0.42896   0.00000  Uiso   1.00
O975   O     0.41518   0.31342   0.38703   0.00000  Uiso   1.00
H976   H     0.39129   0.29655   0.36400   0.00000  Uiso   1.00
C977   C     0.56823   0.04213   0.56625   0.00000  Uiso   1.00
O978   O     0.59539   0.07007   0.55416   0.00000  Uiso   1.00
O979   O     0.57662   0.02876   0.61052   0.00000  Uiso   1.00
H980   H     0.60497   0.04549   0.62952   0.00000  Uiso   1.00
O981   O     0.56265   0.22171   0.38699   0.00000  Uiso   1.00
C982   C     0.53832   0.25957   0.38094   0.00000  Uiso   1.00
H983   H     0.49816   0.25660   0.38764   0.00000  Uiso   1.00
H984   H     0.53720   0.27064   0.34648   0.00000  Uiso   1.00
C985   C     0.56718   0.29299   0.41128   0.00000  Uiso   1.00
H986   H     0.56834   0.28483   0.44698   0.00000  Uiso   1.00
H987   H     0.60691   0.29719   0.40353   0.00000  Uiso   1.00
H988   H     0.54808   0.32257   0.40586   0.00000  Uiso   1.00
O989   O     0.43385   0.11453   0.61070   0.00000  Uiso   1.00
C990   C     0.44166   0.07272   0.62101   0.00000  Uiso   1.00
H991   H     0.46283   0.06724   0.65478   0.00000  Uiso   1.00
H992   H     0.46469   0.06010   0.59640   0.00000  Uiso   1.00
C993   C     0.39015   0.04862   0.61699   0.00000  Uiso   1.00
H994   H     0.37086   0.04869   0.58199   0.00000  Uiso   1.00
H995   H     0.39523   0.01648   0.62773   0.00000  Uiso   1.00
H996   H     0.36472   0.06191   0.63898   0.00000  Uiso   1.00
O997   O     0.58612   0.19496   0.63484   0.00000  Uiso   1.00
C998   C     0.59121   0.23433   0.61628   0.00000  Uiso   1.00
H999   H     0.55825   0.25217   0.61878   0.00000  Uiso   1.00
H1000  H     0.59572   0.23165   0.58040   0.00000  Uiso   1.00
C1001  C     0.63795   0.25883   0.63924   0.00000  Uiso   1.00
H1002  H     0.33674   0.23859   0.64827   0.00000  Uiso   1.00
H1003  H     0.64974   0.28313   0.61651   0.00000  Uiso   1.00
H1004  H     0.62893   0.27439   0.33652   0.00000  Uiso   1.00
O1005  O     0.43075   0.11731   0.37282   0.00000  Uiso   1.00
C1006  C     0.38185   0.13259   0.36055   0.00000  Uiso   1.00
H1007  H     0.36943   0.12780   0.65811   0.00000  Uiso   1.00
H1008  H     0.38226   0.16601   0.36764   0.00000  Uiso   1.00
C1009  C     0.34185   0.10958   0.38397   0.00000  Uiso   1.00
H1010  H     0.34724   0.11729   0.42006   0.00000  Uiso   1.00
H1011  H     0.63641   0.11856   0.36968   0.00000  Uiso   1.00
H1012  H     0.34433   0.07596   0.37902   0.00000  Uiso   1.00
C1013  C     0.83414   0.08702   0.49977   0.00000  Uiso   1.00
C1014  C     0.82936   0.24649   0.49975   0.00000  Uiso   1.00
C1015  C     0.73429   0.16913   0.48891   0.00000  Uiso   1.00
C1016  C     0.93236   0.16742   0.51172   0.00000  Uiso   1.00
C1017  C     0.68086   0.17814   0.48572   0.00000  Uiso   1.00
C1018  C     0.98682   0.16770   0.51908   0.00000  Uiso   1.00
C1019  C     0.79604   0.02185   0.46794   0.00000  Uiso   1.00
C1020  C     0.84798   0.31380   0.53719   0.00000  Uiso   1.00
C1021  C     0.79599   0.31228   0.46436   0.00000  Uiso   1.00
C1022  C     0.86114   0.02174   0.53318   0.00000  Uiso   1.00
C1023  C     0.82397   0.29110   0.49983   0.00000  Uiso   1.00
C1024  C     0.83308   0.04289   0.49879   0.00000  Uiso   1.00
C1025  C     0.86659   0.19188   0.36119   0.00000  Uiso   1.00
C1026  C     0.80040   0.14067   0.63853   0.00000  Uiso   1.00
C1027  C     0.87119   0.18761   0.64777   0.00000  Uiso   1.00
C1028  C     0.79939   0.14162   0.35338   0.00000  Uiso   1.00
N1029  N     0.83332   0.16666   0.61907   0.00000  Uiso   1.00
N1030  N     0.83335   0.16668   0.38093   0.00000  Uiso   1.00
O1031  O     0.83333   0.10558   0.53821   0.00000  Uiso   1.00
O1032  O     0.83334   0.22775   0.46179   0.00000  Uiso   1.00
O1033  O     0.83333   0.10559   0.46176   0.00000  Uiso   1.00
O1034  O     0.83334   0.22774   0.53824   0.00000  Uiso   1.00
O1035  O     0.75725   0.16666   0.52928   0.00000  Uiso   1.00
O1036  O     0.90942   0.16667   0.47072   0.00000  Uiso   1.00
O1037  O     0.75725   0.16667   0.45284   0.00000  Uiso   1.00
O1038  O     0.90942   0.16666   0.54716   0.00000  Uiso   1.00
Zn1039 Zn    0.83333   0.16666   0.55104   0.00000  Uiso   1.00
Zn1040 Zn    0.83333   0.16667   0.44896   0.00000  Uiso   1.00
C1041  C     0.99511   0.20885   0.45278   0.00000  Uiso   1.00
O1042  O     0.97894   0.24077   0.46595   0.00000  Uiso   1.00
O1043  O     0.99710   0.20229   0.40746   0.00000  Uiso   1.00
H1044  H     0.98940   0.22778   0.38954   0.00000  Uiso   1.00
C1045  C     0.67554   0.16041   0.56575   0.00000  Uiso   1.00
O1046  O     0.99917   0.12796   0.58333   0.00000  Uiso   1.00
O1047  O     0.70342   0.19250   0.59021   0.00000  Uiso   1.00
H1048  H     0.71527   0.18558   0.62234   0.00000  Uiso   1.00
O1049  O     0.75495   0.04250   0.44706   0.00000  Uiso   1.00
C1050  C     0.71964   0.04809   0.47830   0.00000  Uiso   1.00
H1051  H     0.71015   0.08083   0.47875   0.00000  Uiso   1.00
H1052  H     0.73435   0.04112   0.51377   0.00000  Uiso   1.00
C1053  C     0.67088   0.02168   0.46492   0.00000  Uiso   1.00
H1054  H     0.67921   0.32196   0.46771   0.00000  Uiso   1.00
H1055  H     0.97563   0.02854   0.48758   0.00000  Uiso   1.00
H1056  H     0.98781   0.02800   0.43000   0.00000  Uiso   1.00
O1057  O     0.84992   0.29774   0.57920   0.00000  Uiso   1.00
C1058  C     0.80507   0.30681   0.59780   0.00000  Uiso   1.00
H1059  H     0.77877   0.32668   0.57652   0.00000  Uiso   1.00
H1060  H     0.81665   0.32268   0.63068   0.00000  Uiso   1.00
C1061  C     0.77444   0.26759   0.60537   0.00000  Uiso   1.00
H1062  H     0.79874   0.24528   0.62442   0.00000  Uiso   1.00
H1063  H     0.74309   0.27484   0.62471   0.00000  Uiso   1.00
H1064  H     0.75752   0.25400   0.57251   0.00000  Uiso   1.00
C1065  C     0.76242   0.29176   0.42632   0.00000  Uiso   1.00
O1066  O     0.74672   0.25623   0.42896   0.00000  Uiso   1.00
O1067  O     0.74851   0.31342   0.38703   0.00000  Uiso   1.00
H1068  H     0.72462   0.29655   0.36400   0.00000  Uiso   1.00
C1069  C     0.90156   0.04213   0.56625   0.00000  Uiso   1.00
O1070  O     0.92872   0.07007   0.55416   0.00000  Uiso   1.00
O1071  O     0.90995   0.02876   0.61052   0.00000  Uiso   1.00
H1072  H     0.93830   0.04549   0.62952   0.00000  Uiso   1.00
O1073  O     0.89598   0.22171   0.38699   0.00000  Uiso   1.00
C1074  C     0.87165   0.25957   0.38094   0.00000  Uiso   1.00
H1075  H     0.83149   0.25660   0.38764   0.00000  Uiso   1.00
H1076  H     0.87053   0.27064   0.34648   0.00000  Uiso   1.00
C1077  C     0.90051   0.29299   0.41128   0.00000  Uiso   1.00
H1078  H     0.90167   0.28483   0.44698   0.00000  Uiso   1.00
H1079  H     0.94024   0.29719   0.40353   0.00000  Uiso   1.00
H1080  H     0.88141   0.32257   0.40586   0.00000  Uiso   1.00
O1081  O     0.76718   0.11453   0.61070   0.00000  Uiso   1.00
C1082  C     0.77500   0.07272   0.62101   0.00000  Uiso   1.00
H1083  H     0.79616   0.06724   0.65478   0.00000  Uiso   1.00
H1084  H     0.79802   0.06010   0.59640   0.00000  Uiso   1.00
C1085  C     0.72349   0.04862   0.61699   0.00000  Uiso   1.00
H1086  H     0.70419   0.04869   0.58199   0.00000  Uiso   1.00
H1087  H     0.72857   0.01648   0.62773   0.00000  Uiso   1.00
H1088  H     0.69805   0.06191   0.63898   0.00000  Uiso   1.00
O1089  O     0.91946   0.19496   0.63484   0.00000  Uiso   1.00
C1090  C     0.92454   0.23433   0.61628   0.00000  Uiso   1.00
H1091  H     0.89159   0.25217   0.61878   0.00000  Uiso   1.00
H1092  H     0.92905   0.23165   0.58040   0.00000  Uiso   1.00
C1093  C     0.97128   0.25883   0.63924   0.00000  Uiso   1.00
H1094  H     0.67008   0.23859   0.64827   0.00000  Uiso   1.00
H1095  H     0.98307   0.28313   0.61651   0.00000  Uiso   1.00
H1096  H     0.96226   0.27439   0.33652   0.00000  Uiso   1.00
O1097  O     0.76409   0.11731   0.37282   0.00000  Uiso   1.00
C1098  C     0.71518   0.13259   0.36055   0.00000  Uiso   1.00
H1099  H     0.70276   0.12780   0.65811   0.00000  Uiso   1.00
H1100  H     0.71560   0.16601   0.36764   0.00000  Uiso   1.00
C1101  C     0.67519   0.10958   0.38397   0.00000  Uiso   1.00
H1102  H     0.68057   0.11729   0.42006   0.00000  Uiso   1.00
H1103  H     0.96974   0.11856   0.36968   0.00000  Uiso   1.00
H1104  H     0.67767   0.07596   0.37902   0.00000  Uiso   1.00
C1105  C     0.16748   0.42035   0.49977   0.00000  Uiso   1.00
C1106  C     0.16270   0.57983   0.49975   0.00000  Uiso   1.00
C1107  C     0.06763   0.50246   0.48891   0.00000  Uiso   1.00
C1108  C     0.26570   0.50075   0.51172   0.00000  Uiso   1.00
C1109  C     0.01420   0.51147   0.48572   0.00000  Uiso   1.00
C1110  C     0.32015   0.50104   0.51908   0.00000  Uiso   1.00
C1111  C     0.12938   0.35518   0.46794   0.00000  Uiso   1.00
C1112  C     0.18131   0.64713   0.53719   0.00000  Uiso   1.00
C1113  C     0.12932   0.64562   0.46436   0.00000  Uiso   1.00
C1114  C     0.19447   0.35507   0.53318   0.00000  Uiso   1.00
C1115  C     0.15730   0.62443   0.49983   0.00000  Uiso   1.00
C1116  C     0.16641   0.37623   0.49879   0.00000  Uiso   1.00
C1117  C     0.19992   0.52521   0.36119   0.00000  Uiso   1.00
C1118  C     0.13373   0.47400   0.63853   0.00000  Uiso   1.00
C1119  C     0.20452   0.52094   0.64777   0.00000  Uiso   1.00
C1120  C     0.13272   0.47496   0.35338   0.00000  Uiso   1.00
N1121  N     0.16665   0.49999   0.61907   0.00000  Uiso   1.00
N1122  N     0.16668   0.50001   0.38093   0.00000  Uiso   1.00
O1123  O     0.16666   0.43892   0.53821   0.00000  Uiso   1.00
O1124  O     0.16667   0.56108   0.46179   0.00000  Uiso   1.00
O1125  O     0.16666   0.43893   0.46176   0.00000  Uiso   1.00
O1126  O     0.16667   0.56107   0.53824   0.00000  Uiso   1.00
O1127  O     0.09058   0.50000   0.52928   0.00000  Uiso   1.00
O1128  O     0.24275   0.50000   0.47072   0.00000  Uiso   1.00
O1129  O     0.09058   0.50000   0.45284   0.00000  Uiso   1.00
O1130  O     0.24275   0.50000   0.54716   0.00000  Uiso   1.00
Zn1131 Zn    0.16667   0.49999   0.55104   0.00000  Uiso   1.00
Zn1132 Zn    0.16667   0.50001   0.44896   0.00000  Uiso   1.00
C1133  C     0.32845   0.54218   0.45278   0.00000  Uiso   1.00
O1134  O     0.31227   0.57410   0.46595   0.00000  Uiso   1.00
O1135  O     0.33043   0.53562   0.40746   0.00000  Uiso   1.00
H1136  H     0.32273   0.56111   0.38954   0.00000  Uiso   1.00
C1137  C     0.00888   0.49374   0.56575   0.00000  Uiso   1.00
O1138  O     0.33250   0.46130   0.58333   0.00000  Uiso   1.00
O1139  O     0.03675   0.52583   0.59021   0.00000  Uiso   1.00
H1140  H     0.04861   0.51891   0.62234   0.00000  Uiso   1.00
O1141  O     0.08828   0.37583   0.44706   0.00000  Uiso   1.00
C1142  C     0.05297   0.38143   0.47830   0.00000  Uiso   1.00
H1143  H     0.04349   0.41417   0.47875   0.00000  Uiso   1.00
H1144  H     0.06768   0.37445   0.51377   0.00000  Uiso   1.00
C1145  C     0.00422   0.35501   0.46492   0.00000  Uiso   1.00
H1146  H     0.01254   0.65530   0.46771   0.00000  Uiso   1.00
H1147  H     0.30896   0.36188   0.48758   0.00000  Uiso   1.00
H1148  H     0.32115   0.36134   0.43000   0.00000  Uiso   1.00
O1149  O     0.18325   0.63107   0.57920   0.00000  Uiso   1.00
C1150  C     0.13840   0.64015   0.59780   0.00000  Uiso   1.00
H1151  H     0.11210   0.66001   0.57652   0.00000  Uiso   1.00
H1152  H     0.14998   0.65601   0.63068   0.00000  Uiso   1.00
C1153  C     0.10778   0.60092   0.60537   0.00000  Uiso   1.00
H1154  H     0.13207   0.57861   0.62442   0.00000  Uiso   1.00
H1155  H     0.07643   0.60817   0.62471   0.00000  Uiso   1.00
H1156  H     0.09085   0.58733   0.57251   0.00000  Uiso   1.00
C1157  C     0.09575   0.62509   0.42632   0.00000  Uiso   1.00
O1158  O     0.08005   0.58956   0.42896   0.00000  Uiso   1.00
O1159  O     0.08184   0.64675   0.38703   0.00000  Uiso   1.00
H1160  H     0.05796   0.62988   0.36400   0.00000  Uiso   1.00
C1161  C     0.23490   0.37546   0.56625   0.00000  Uiso   1.00
O1162  O     0.26205   0.40340   0.55416   0.00000  Uiso   1.00
O1163  O     0.24328   0.36209   0.61052   0.00000  Uiso   1.00
H1164  H     0.27163   0.37882   0.62952   0.00000  Uiso   1.00
O1165  O     0.22932   0.55505   0.38699   0.00000  Uiso   1.00
C1166  C     0.20498   0.59291   0.38094   0.00000  Uiso   1.00
H1167  H     0.16483   0.58994   0.38764   0.00000  Uiso   1.00
H1168  H     0.20387   0.60397   0.34648   0.00000  Uiso   1.00
C1169  C     0.23385   0.62633   0.41128   0.00000  Uiso   1.00
H1170  H     0.23500   0.61816   0.44698   0.00000  Uiso   1.00
H1171  H     0.27358   0.63052   0.40353   0.00000  Uiso   1.00
H1172  H     0.21474   0.65591   0.40586   0.00000  Uiso   1.00
O1173  O     0.10052   0.44787   0.61070   0.00000  Uiso   1.00
C1174  C     0.10833   0.40606   0.62101   0.00000  Uiso   1.00
H1175  H     0.12949   0.40058   0.65478   0.00000  Uiso   1.00
H1176  H     0.13135   0.39344   0.59640   0.00000  Uiso   1.00
C1177  C     0.05682   0.38195   0.61699   0.00000  Uiso   1.00
H1178  H     0.03752   0.38202   0.58199   0.00000  Uiso   1.00
H1179  H     0.06190   0.34982   0.62773   0.00000  Uiso   1.00
H1180  H     0.03139   0.39525   0.63898   0.00000  Uiso   1.00
O1181  O     0.25279   0.52829   0.63484   0.00000  Uiso   1.00
C1182  C     0.25788   0.56766   0.61628   0.00000  Uiso   1.00
H1183  H     0.22492   0.58550   0.61878   0.00000  Uiso   1.00
H1184  H     0.26239   0.56498   0.58040   0.00000  Uiso   1.00
C1185  C     0.30462   0.59216   0.63924   0.00000  Uiso   1.00
H1186  H     0.00341   0.57193   0.64827   0.00000  Uiso   1.00
H1187  H     0.31640   0.61646   0.61651   0.00000  Uiso   1.00
H1188  H     0.29559   0.60772   0.33652   0.00000  Uiso   1.00
O1189  O     0.09742   0.45064   0.37282   0.00000  Uiso   1.00
C1190  C     0.04851   0.46592   0.36055   0.00000  Uiso   1.00
H1191  H     0.03609   0.46113   0.65811   0.00000  Uiso   1.00
H1192  H     0.04893   0.49934   0.36764   0.00000  Uiso   1.00
C1193  C     0.00852   0.44291   0.38397   0.00000  Uiso   1.00
H1194  H     0.01391   0.45062   0.42006   0.00000  Uiso   1.00
H1195  H     0.30307   0.45190   0.36968   0.00000  Uiso   1.00
H1196  H     0.01100   0.40930   0.37902   0.00000  Uiso   1.00
C1197  C     0.50081   0.42035   0.49977   0.00000  Uiso   1.00
C1198  C     0.49603   0.57983   0.49975   0.00000  Uiso   1.00
C1199  C     0.40096   0.50246   0.48891   0.00000  Uiso   1.00
C1200  C     0.59903   0.50075   0.51172   0.00000  Uiso   1.00
C1201  C     0.34753   0.51147   0.48572   0.00000  Uiso   1.00
C1202  C     0.65349   0.50104   0.51908   0.00000  Uiso   1.00
C1203  C     0.46271   0.35518   0.46794   0.00000  Uiso   1.00
C1204  C     0.51464   0.64713   0.53719   0.00000  Uiso   1.00
C1205  C     0.46265   0.64562   0.46436   0.00000  Uiso   1.00
C1206  C     0.52780   0.35507   0.53318   0.00000  Uiso   1.00
C1207  C     0.49063   0.62443   0.49983   0.00000  Uiso   1.00
C1208  C     0.49974   0.37623   0.49879   0.00000  Uiso   1.00
C1209  C     0.53325   0.52521   0.36119   0.00000  Uiso   1.00
C1210  C     0.46707   0.47400   0.63853   0.00000  Uiso   1.00
C1211  C     0.53785   0.52094   0.64777   0.00000  Uiso   1.00
C1212  C     0.46605   0.47496   0.35338   0.00000  Uiso   1.00
N1213  N     0.49999   0.49999   0.61907   0.00000  Uiso   1.00
N1214  N     0.50001   0.50001   0.38093   0.00000  Uiso   1.00
O1215  O     0.50000   0.43892   0.53821   0.00000  Uiso   1.00
O1216  O     0.50000   0.56108   0.46179   0.00000  Uiso   1.00
O1217  O     0.50000   0.43893   0.46176   0.00000  Uiso   1.00
O1218  O     0.50000   0.56107   0.53824   0.00000  Uiso   1.00
O1219  O     0.42392   0.50000   0.52928   0.00000  Uiso   1.00
O1220  O     0.57608   0.50000   0.47072   0.00000  Uiso   1.00
O1221  O     0.42392   0.50000   0.45284   0.00000  Uiso   1.00
O1222  O     0.57608   0.50000   0.54716   0.00000  Uiso   1.00
Zn1223 Zn    0.50000   0.49999   0.55104   0.00000  Uiso   1.00
Zn1224 Zn    0.50000   0.50001   0.44896   0.00000  Uiso   1.00
C1225  C     0.66178   0.54218   0.45278   0.00000  Uiso   1.00
O1226  O     0.64561   0.57410   0.46595   0.00000  Uiso   1.00
O1227  O     0.66376   0.53562   0.40746   0.00000  Uiso   1.00
H1228  H     0.65606   0.56111   0.38954   0.00000  Uiso   1.00
C1229  C     0.34221   0.49374   0.56575   0.00000  Uiso   1.00
O1230  O     0.66584   0.46130   0.58333   0.00000  Uiso   1.00
O1231  O     0.37009   0.52583   0.59021   0.00000  Uiso   1.00
H1232  H     0.38194   0.51891   0.62234   0.00000  Uiso   1.00
O1233  O     0.42161   0.37583   0.44706   0.00000  Uiso   1.00
C1234  C     0.38631   0.38143   0.47830   0.00000  Uiso   1.00
H1235  H     0.37682   0.41417   0.47875   0.00000  Uiso   1.00
H1236  H     0.40101   0.37445   0.51377   0.00000  Uiso   1.00
C1237  C     0.33755   0.35501   0.46492   0.00000  Uiso   1.00
H1238  H     0.34588   0.65530   0.46771   0.00000  Uiso   1.00
H1239  H     0.64229   0.36188   0.48758   0.00000  Uiso   1.00
H1240  H     0.65448   0.36134   0.43000   0.00000  Uiso   1.00
O1241  O     0.51659   0.63107   0.57920   0.00000  Uiso   1.00
C1242  C     0.47174   0.64015   0.59780   0.00000  Uiso   1.00
H1243  H     0.44543   0.66001   0.57652   0.00000  Uiso   1.00
H1244  H     0.48331   0.65601   0.63068   0.00000  Uiso   1.00
C1245  C     0.44111   0.60092   0.60537   0.00000  Uiso   1.00
H1246  H     0.46541   0.57861   0.62442   0.00000  Uiso   1.00
H1247  H     0.40976   0.60817   0.62471   0.00000  Uiso   1.00
H1248  H     0.42419   0.58733   0.57251   0.00000  Uiso   1.00
C1249  C     0.42908   0.62509   0.42632   0.00000  Uiso   1.00
O1250  O     0.41338   0.58956   0.42896   0.00000  Uiso   1.00
O1251  O     0.41518   0.64675   0.38703   0.00000  Uiso   1.00
H1252  H     0.39129   0.62988   0.36400   0.00000  Uiso   1.00
C1253  C     0.56823   0.37546   0.56625   0.00000  Uiso   1.00
O1254  O     0.59539   0.40340   0.55416   0.00000  Uiso   1.00
O1255  O     0.57662   0.36209   0.61052   0.00000  Uiso   1.00
H1256  H     0.60497   0.37882   0.62952   0.00000  Uiso   1.00
O1257  O     0.56265   0.55505   0.38699   0.00000  Uiso   1.00
C1258  C     0.53832   0.59291   0.38094   0.00000  Uiso   1.00
H1259  H     0.49816   0.58994   0.38764   0.00000  Uiso   1.00
H1260  H     0.53720   0.60397   0.34648   0.00000  Uiso   1.00
C1261  C     0.56718   0.62633   0.41128   0.00000  Uiso   1.00
H1262  H     0.56834   0.61816   0.44698   0.00000  Uiso   1.00
H1263  H     0.60691   0.63052   0.40353   0.00000  Uiso   1.00
H1264  H     0.54808   0.65591   0.40586   0.00000  Uiso   1.00
O1265  O     0.43385   0.44787   0.61070   0.00000  Uiso   1.00
C1266  C     0.44166   0.40606   0.62101   0.00000  Uiso   1.00
H1267  H     0.46283   0.40058   0.65478   0.00000  Uiso   1.00
H1268  H     0.46469   0.39344   0.59640   0.00000  Uiso   1.00
C1269  C     0.39015   0.38195   0.61699   0.00000  Uiso   1.00
H1270  H     0.37086   0.38202   0.58199   0.00000  Uiso   1.00
H1271  H     0.39523   0.34982   0.62773   0.00000  Uiso   1.00
H1272  H     0.36472   0.39525   0.63898   0.00000  Uiso   1.00
O1273  O     0.58612   0.52829   0.63484   0.00000  Uiso   1.00
C1274  C     0.59121   0.56766   0.61628   0.00000  Uiso   1.00
H1275  H     0.55825   0.58550   0.61878   0.00000  Uiso   1.00
H1276  H     0.59572   0.56498   0.58040   0.00000  Uiso   1.00
C1277  C     0.63795   0.59216   0.63924   0.00000  Uiso   1.00
H1278  H     0.33674   0.57193   0.64827   0.00000  Uiso   1.00
H1279  H     0.64974   0.61646   0.61651   0.00000  Uiso   1.00
H1280  H     0.62893   0.60772   0.33652   0.00000  Uiso   1.00
O1281  O     0.43075   0.45064   0.37282   0.00000  Uiso   1.00
C1282  C     0.38185   0.46592   0.36055   0.00000  Uiso   1.00
H1283  H     0.36943   0.46113   0.65811   0.00000  Uiso   1.00
H1284  H     0.38226   0.49934   0.36764   0.00000  Uiso   1.00
C1285  C     0.34185   0.44291   0.38397   0.00000  Uiso   1.00
H1286  H     0.34724   0.45062   0.42006   0.00000  Uiso   1.00
H1287  H     0.63641   0.45190   0.36968   0.00000  Uiso   1.00
H1288  H     0.34433   0.40930   0.37902   0.00000  Uiso   1.00
C1289  C     0.83414   0.42035   0.49977   0.00000  Uiso   1.00
C1290  C     0.82936   0.57983   0.49975   0.00000  Uiso   1.00
C1291  C     0.73429   0.50246   0.48891   0.00000  Uiso   1.00
C1292  C     0.93236   0.50075   0.51172   0.00000  Uiso   1.00
C1293  C     0.68086   0.51147   0.48572   0.00000  Uiso   1.00
C1294  C     0.98682   0.50104   0.51908   0.00000  Uiso   1.00
C1295  C     0.79604   0.35518   0.46794   0.00000  Uiso   1.00
C1296  C     0.84798   0.64713   0.53719   0.00000  Uiso   1.00
C1297  C     0.79599   0.64562   0.46436   0.00000  Uiso   1.00
C1298  C     0.86114   0.35507   0.53318   0.00000  Uiso   1.00
C1299  C     0.82397   0.62443   0.49983   0.00000  Uiso   1.00
C1300  C     0.83308   0.37623   0.49879   0.00000  Uiso   1.00
C1301  C     0.86659   0.52521   0.36119   0.00000  Uiso   1.00
C1302  C     0.80040   0.47400   0.63853   0.00000  Uiso   1.00
C1303  C     0.87119   0.52094   0.64777   0.00000  Uiso   1.00
C1304  C     0.79939   0.47496   0.35338   0.00000  Uiso   1.00
N1305  N     0.83332   0.49999   0.61907   0.00000  Uiso   1.00
N1306  N     0.83335   0.50001   0.38093   0.00000  Uiso   1.00
O1307  O     0.83333   0.43892   0.53821   0.00000  Uiso   1.00
O1308  O     0.83334   0.56108   0.46179   0.00000  Uiso   1.00
O1309  O     0.83333   0.43893   0.46176   0.00000  Uiso   1.00
O1310  O     0.83334   0.56107   0.53824   0.00000  Uiso   1.00
O1311  O     0.75725   0.50000   0.52928   0.00000  Uiso   1.00
O1312  O     0.90942   0.50000   0.47072   0.00000  Uiso   1.00
O1313  O     0.75725   0.50000   0.45284   0.00000  Uiso   1.00
O1314  O     0.90942   0.50000   0.54716   0.00000  Uiso   1.00
Zn1315 Zn    0.83333   0.49999   0.55104   0.00000  Uiso   1.00
Zn1316 Zn    0.83333   0.50001   0.44896   0.00000  Uiso   1.00
C1317  C     0.99511   0.54218   0.45278   0.00000  Uiso   1.00
O1318  O     0.97894   0.57410   0.46595   0.00000  Uiso   1.00
O1319  O     0.99710   0.53562   0.40746   0.00000  Uiso   1.00
H1320  H     0.98940   0.56111   0.38954   0.00000  Uiso   1.00
C1321  C     0.67554   0.49374   0.56575   0.00000  Uiso   1.00
O1322  O     0.99917   0.46130   0.58333   0.00000  Uiso   1.00
O1323  O     0.70342   0.52583   0.59021   0.00000  Uiso   1.00
H1324  H     0.71527   0.51891   0.62234   0.00000  Uiso   1.00
O1325  O     0.75495   0.37583   0.44706   0.00000  Uiso   1.00
C1326  C     0.71964   0.38143   0.47830   0.00000  Uiso   1.00
H1327  H     0.71015   0.41417   0.47875   0.00000  Uiso   1.00
H1328  H     0.73435   0.37445   0.51377   0.00000  Uiso   1.00
C1329  C     0.67088   0.35501   0.46492   0.00000  Uiso   1.00
H1330  H     0.67921   0.65530   0.46771   0.00000  Uiso   1.00
H1331  H     0.97563   0.36188   0.48758   0.00000  Uiso   1.00
H1332  H     0.98781   0.36134   0.43000   0.00000  Uiso   1.00
O1333  O     0.84992   0.63107   0.57920   0.00000  Uiso   1.00
C1334  C     0.80507   0.64015   0.59780   0.00000  Uiso   1.00
H1335  H     0.77877   0.66001   0.57652   0.00000  Uiso   1.00
H1336  H     0.81665   0.65601   0.63068   0.00000  Uiso   1.00
C1337  C     0.77444   0.60092   0.60537   0.00000  Uiso   1.00
H1338  H     0.79874   0.57861   0.62442   0.00000  Uiso   1.00
H1339  H     0.74309   0.60817   0.62471   0.00000  Uiso   1.00
H1340  H     0.75752   0.58733   0.57251   0.00000  Uiso   1.00
C1341  C     0.76242   0.62509   0.42632   0.00000  Uiso   1.00
O1342  O     0.74672   0.58956   0.42896   0.00000  Uiso   1.00
O1343  O     0.74851   0.64675   0.38703   0.00000  Uiso   1.00
H1344  H     0.72462   0.62988   0.36400   0.00000  Uiso   1.00
C1345  C     0.90156   0.37546   0.56625   0.00000  Uiso   1.00
O1346  O     0.92872   0.40340   0.55416   0.00000  Uiso   1.00
O1347  O     0.90995   0.36209   0.61052   0.00000  Uiso   1.00
H1348  H     0.93830   0.37882   0.62952   0.00000  Uiso   1.00
O1349  O     0.89598   0.55505   0.38699   0.00000  Uiso   1.00
C1350  C     0.87165   0.59291   0.38094   0.00000  Uiso   1.00
H1351  H     0.83149   0.58994   0.38764   0.00000  Uiso   1.00
H1352  H     0.87053   0.60397   0.34648   0.00000  Uiso   1.00
C1353  C     0.90051   0.62633   0.41128   0.00000  Uiso   1.00
H1354  H     0.90167   0.61816   0.44698   0.00000  Uiso   1.00
H1355  H     0.94024   0.63052   0.40353   0.00000  Uiso   1.00
H1356  H     0.88141   0.65591   0.40586   0.00000  Uiso   1.00
O1357  O     0.76718   0.44787   0.61070   0.00000  Uiso   1.00
C1358  C     0.77500   0.40606   0.62101   0.00000  Uiso   1.00
H1359  H     0.79616   0.40058   0.65478   0.00000  Uiso   1.00
H1360  H     0.79802   0.39344   0.59640   0.00000  Uiso   1.00
C1361  C     0.72349   0.38195   0.61699   0.00000  Uiso   1.00
H1362  H     0.70419   0.38202   0.58199   0.00000  Uiso   1.00
H1363  H     0.72857   0.34982   0.62773   0.00000  Uiso   1.00
H1364  H     0.69805   0.39525   0.63898   0.00000  Uiso   1.00
O1365  O     0.91946   0.52829   0.63484   0.00000  Uiso   1.00
C1366  C     0.92454   0.56766   0.61628   0.00000  Uiso   1.00
H1367  H     0.89159   0.58550   0.61878   0.00000  Uiso   1.00
H1368  H     0.92905   0.56498   0.58040   0.00000  Uiso   1.00
C1369  C     0.97128   0.59216   0.63924   0.00000  Uiso   1.00
H1370  H     0.67008   0.57193   0.64827   0.00000  Uiso   1.00
H1371  H     0.98307   0.61646   0.61651   0.00000  Uiso   1.00
H1372  H     0.96226   0.60772   0.33652   0.00000  Uiso   1.00
O1373  O     0.76409   0.45064   0.37282   0.00000  Uiso   1.00
C1374  C     0.71518   0.46592   0.36055   0.00000  Uiso   1.00
H1375  H     0.70276   0.46113   0.65811   0.00000  Uiso   1.00
H1376  H     0.71560   0.49934   0.36764   0.00000  Uiso   1.00
C1377  C     0.67519   0.44291   0.38397   0.00000  Uiso   1.00
H1378  H     0.68057   0.45062   0.42006   0.00000  Uiso   1.00
H1379  H     0.96974   0.45190   0.36968   0.00000  Uiso   1.00
H1380  H     0.67767   0.40930   0.37902   0.00000  Uiso   1.00
C1381  C     0.16748   0.75369   0.49977   0.00000  Uiso   1.00
C1382  C     0.16270   0.91316   0.49975   0.00000  Uiso   1.00
C1383  C     0.06763   0.83580   0.48891   0.00000  Uiso   1.00
C1384  C     0.26570   0.83409   0.51172   0.00000  Uiso   1.00
C1385  C     0.01420   0.84480   0.48572   0.00000  Uiso   1.00
C1386  C     0.32015   0.83437   0.51908   0.00000  Uiso   1.00
C1387  C     0.12938   0.68851   0.46794   0.00000  Uiso   1.00
C1388  C     0.18131   0.98047   0.53719   0.00000  Uiso   1.00
C1389  C     0.12932   0.97895   0.46436   0.00000  Uiso   1.00
C1390  C     0.19447   0.68840   0.53318   0.00000  Uiso   1.00
C1391  C     0.15730   0.95776   0.49983   0.00000  Uiso   1.00
C1392  C     0.16641   0.70956   0.49879   0.00000  Uiso   1.00
C1393  C     0.19992   0.85854   0.36119   0.00000  Uiso   1.00
C1394  C     0.13373   0.80734   0.63853   0.00000  Uiso   1.00
C1395  C     0.20452   0.85427   0.64777   0.00000  Uiso   1.00
C1396  C     0.13272   0.80829   0.35338   0.00000  Uiso   1.00
N1397  N     0.16665   0.83332   0.61907   0.00000  Uiso   1.00
N1398  N     0.16668   0.83334   0.38093   0.00000  Uiso   1.00
O1399  O     0.16666   0.77225   0.53821   0.00000  Uiso   1.00
O1400  O     0.16667   0.89442   0.46179   0.00000  Uiso   1.00
O1401  O     0.16666   0.77226   0.46176   0.00000  Uiso   1.00
O1402  O     0.16667   0.89441   0.53824   0.00000  Uiso   1.00
O1403  O     0.09058   0.83333   0.52928   0.00000  Uiso   1.00
O1404  O     0.24275   0.83334   0.47072   0.00000  Uiso   1.00
O1405  O     0.09058   0.83334   0.45284   0.00000  Uiso   1.00
O1406  O     0.24275   0.83333   0.54716   0.00000  Uiso   1.00
Zn1407 Zn    0.16667   0.83333   0.55104   0.00000  Uiso   1.00
Zn1408 Zn    0.16667   0.83334   0.44896   0.00000  Uiso   1.00
C1409  C     0.32845   0.87551   0.45278   0.00000  Uiso   1.00
O1410  O     0.31227   0.90743   0.46595   0.00000  Uiso   1.00
O1411  O     0.33043   0.86895   0.40746   0.00000  Uiso   1.00
H1412  H     0.32273   0.89445   0.38954   0.00000  Uiso   1.00
C1413  C     0.00888   0.82708   0.56575   0.00000  Uiso   1.00
O1414  O     0.33250   0.79463   0.58333   0.00000  Uiso   1.00
O1415  O     0.03675   0.85916   0.59021   0.00000  Uiso   1.00
H1416  H     0.04861   0.85224   0.62234   0.00000  Uiso   1.00
O1417  O     0.08828   0.70916   0.44706   0.00000  Uiso   1.00
C1418  C     0.05297   0.71476   0.47830   0.00000  Uiso   1.00
H1419  H     0.04349   0.74750   0.47875   0.00000  Uiso   1.00
H1420  H     0.06768   0.70778   0.51377   0.00000  Uiso   1.00
C1421  C     0.00422   0.68834   0.46492   0.00000  Uiso   1.00
H1422  H     0.01254   0.98863   0.46771   0.00000  Uiso   1.00
H1423  H     0.30896   0.69521   0.48758   0.00000  Uiso   1.00
H1424  H     0.32115   0.69467   0.43000   0.00000  Uiso   1.00
O1425  O     0.18325   0.96441   0.57920   0.00000  Uiso   1.00
C1426  C     0.13840   0.97348   0.59780   0.00000  Uiso   1.00
H1427  H     0.11210   0.99335   0.57652   0.00000  Uiso   1.00
H1428  H     0.14998   0.98935   0.63068   0.00000  Uiso   1.00
C1429  C     0.10778   0.93425   0.60537   0.00000  Uiso   1.00
H1430  H     0.13207   0.91195   0.62442   0.00000  Uiso   1.00
H1431  H     0.07643   0.94150   0.62471   0.00000  Uiso   1.00
H1432  H     0.09085   0.92066   0.57251   0.00000  Uiso   1.00
C1433  C     0.09575   0.95842   0.42632   0.00000  Uiso   1.00
O1434  O     0.08005   0.92290   0.42896   0.00000  Uiso   1.00
O1435  O     0.08184   0.98009   0.38703   0.00000  Uiso   1.00
H1436  H     0.05796   0.96321   0.36400   0.00000  Uiso   1.00
C1437  C     0.23490   0.70880   0.56625   0.00000  Uiso   1.00
O1438  O     0.26205   0.73673   0.55416   0.00000  Uiso   1.00
O1439  O     0.24328   0.69542   0.61052   0.00000  Uiso   1.00
H1440  H     0.27163   0.71215   0.62952   0.00000  Uiso   1.00
O1441  O     0.22932   0.88838   0.38699   0.00000  Uiso   1.00
C1442  C     0.20498   0.92624   0.38094   0.00000  Uiso   1.00
H1443  H     0.16483   0.92327   0.38764   0.00000  Uiso   1.00
H1444  H     0.20387   0.93731   0.34648   0.00000  Uiso   1.00
C1445  C     0.23385   0.95966   0.41128   0.00000  Uiso   1.00
H1446  H     0.23500   0.95149   0.44698   0.00000  Uiso   1.00
H1447  H     0.27358   0.96385   0.40353   0.00000  Uiso   1.00
H1448  H     0.21474   0.98924   0.40586   0.00000  Uiso   1.00
O1449  O     0.10052   0.78120   0.61070   0.00000  Uiso   1.00
C1450  C     0.10833   0.73939   0.62101   0.00000  Uiso   1.00
H1451  H     0.12949   0.73391   0.65478   0.00000  Uiso   1.00
H1452  H     0.13135   0.72677   0.59640   0.00000  Uiso   1.00
C1453  C     0.05682   0.71528   0.61699   0.00000  Uiso   1.00
H1454  H     0.03752   0.71535   0.58199   0.00000  Uiso   1.00
H1455  H     0.06190   0.68315   0.62773   0.00000  Uiso   1.00
H1456  H     0.03139   0.72858   0.63898   0.00000  Uiso   1.00
O1457  O     0.25279   0.86163   0.63484   0.00000  Uiso   1.00
C1458  C     0.25788   0.90100   0.61628   0.00000  Uiso   1.00
H1459  H     0.22492   0.91883   0.61878   0.00000  Uiso   1.00
H1460  H     0.26239   0.89832   0.58040   0.00000  Uiso   1.00
C1461  C     0.30462   0.92549   0.63924   0.00000  Uiso   1.00
H1462  H     0.00341   0.90526   0.64827   0.00000  Uiso   1.00
H1463  H     0.31640   0.94979   0.61651   0.00000  Uiso   1.00
H1464  H     0.29559   0.94105   0.33652   0.00000  Uiso   1.00
O1465  O     0.09742   0.78397   0.37282   0.00000  Uiso   1.00
C1466  C     0.04851   0.79926   0.36055   0.00000  Uiso   1.00
H1467  H     0.03609   0.79447   0.65811   0.00000  Uiso   1.00
H1468  H     0.04893   0.83268   0.36764   0.00000  Uiso   1.00
C1469  C     0.00852   0.77625   0.38397   0.00000  Uiso   1.00
H1470  H     0.01391   0.78396   0.42006   0.00000  Uiso   1.00
H1471  H     0.30307   0.78523   0.36968   0.00000  Uiso   1.00
H1472  H     0.01100   0.74263   0.37902   0.00000  Uiso   1.00
C1473  C     0.50081   0.75369   0.49977   0.00000  Uiso   1.00
C1474  C     0.49603   0.91316   0.49975   0.00000  Uiso   1.00
C1475  C     0.40096   0.83580   0.48891   0.00000  Uiso   1.00
C1476  C     0.59903   0.83409   0.51172   0.00000  Uiso   1.00
C1477  C     0.34753   0.84480   0.48572   0.00000  Uiso   1.00
C1478  C     0.65349   0.83437   0.51908   0.00000  Uiso   1.00
C1479  C     0.46271   0.68851   0.46794   0.00000  Uiso   1.00
C1480  C     0.51464   0.98047   0.53719   0.00000  Uiso   1.00
C1481  C     0.46265   0.97895   0.46436   0.00000  Uiso   1.00
C1482  C     0.52780   0.68840   0.53318   0.00000  Uiso   1.00
C1483  C     0.49063   0.95776   0.49983   0.00000  Uiso   1.00
C1484  C     0.49974   0.70956   0.49879   0.00000  Uiso   1.00
C1485  C     0.53325   0.85854   0.36119   0.00000  Uiso   1.00
C1486  C     0.46707   0.80734   0.63853   0.00000  Uiso   1.00
C1487  C     0.53785   0.85427   0.64777   0.00000  Uiso   1.00
C1488  C     0.46605   0.80829   0.35338   0.00000  Uiso   1.00
N1489  N     0.49999   0.83332   0.61907   0.00000  Uiso   1.00
N1490  N     0.50001   0.83334   0.38093   0.00000  Uiso   1.00
O1491  O     0.50000   0.77225   0.53821   0.00000  Uiso   1.00
O1492  O     0.50000   0.89442   0.46179   0.00000  Uiso   1.00
O1493  O     0.50000   0.77226   0.46176   0.00000  Uiso   1.00
O1494  O     0.50000   0.89441   0.53824   0.00000  Uiso   1.00
O1495  O     0.42392   0.83333   0.52928   0.00000  Uiso   1.00
O1496  O     0.57608   0.83334   0.47072   0.00000  Uiso   1.00
O1497  O     0.42392   0.83334   0.45284   0.00000  Uiso   1.00
O1498  O     0.57608   0.83333   0.54716   0.00000  Uiso   1.00
Zn1499 Zn    0.50000   0.83333   0.55104   0.00000  Uiso   1.00
Zn1500 Zn    0.50000   0.83334   0.44896   0.00000  Uiso   1.00
C1501  C     0.66178   0.87551   0.45278   0.00000  Uiso   1.00
O1502  O     0.64561   0.90743   0.46595   0.00000  Uiso   1.00
O1503  O     0.66376   0.86895   0.40746   0.00000  Uiso   1.00
H1504  H     0.65606   0.89445   0.38954   0.00000  Uiso   1.00
C1505  C     0.34221   0.82708   0.56575   0.00000  Uiso   1.00
O1506  O     0.66584   0.79463   0.58333   0.00000  Uiso   1.00
O1507  O     0.37009   0.85916   0.59021   0.00000  Uiso   1.00
H1508  H     0.38194   0.85224   0.62234   0.00000  Uiso   1.00
O1509  O     0.42161   0.70916   0.44706   0.00000  Uiso   1.00
C1510  C     0.38631   0.71476   0.47830   0.00000  Uiso   1.00
H1511  H     0.37682   0.74750   0.47875   0.00000  Uiso   1.00
H1512  H     0.40101   0.70778   0.51377   0.00000  Uiso   1.00
C1513  C     0.33755   0.68834   0.46492   0.00000  Uiso   1.00
H1514  H     0.34588   0.98863   0.46771   0.00000  Uiso   1.00
H1515  H     0.64229   0.69521   0.48758   0.00000  Uiso   1.00
H1516  H     0.65448   0.69467   0.43000   0.00000  Uiso   1.00
O1517  O     0.51659   0.96441   0.57920   0.00000  Uiso   1.00
C1518  C     0.47174   0.97348   0.59780   0.00000  Uiso   1.00
H1519  H     0.44543   0.99335   0.57652   0.00000  Uiso   1.00
H1520  H     0.48331   0.98935   0.63068   0.00000  Uiso   1.00
C1521  C     0.44111   0.93425   0.60537   0.00000  Uiso   1.00
H1522  H     0.46541   0.91195   0.62442   0.00000  Uiso   1.00
H1523  H     0.40976   0.94150   0.62471   0.00000  Uiso   1.00
H1524  H     0.42419   0.92066   0.57251   0.00000  Uiso   1.00
C1525  C     0.42908   0.95842   0.42632   0.00000  Uiso   1.00
O1526  O     0.41338   0.92290   0.42896   0.00000  Uiso   1.00
O1527  O     0.41518   0.98009   0.38703   0.00000  Uiso   1.00
H1528  H     0.39129   0.96321   0.36400   0.00000  Uiso   1.00
C1529  C     0.56823   0.70880   0.56625   0.00000  Uiso   1.00
O1530  O     0.59539   0.73673   0.55416   0.00000  Uiso   1.00
O1531  O     0.57662   0.69542   0.61052   0.00000  Uiso   1.00
H1532  H     0.60497   0.71215   0.62952   0.00000  Uiso   1.00
O1533  O     0.56265   0.88838   0.38699   0.00000  Uiso   1.00
C1534  C     0.53832   0.92624   0.38094   0.00000  Uiso   1.00
H1535  H     0.49816   0.92327   0.38764   0.00000  Uiso   1.00
H1536  H     0.53720   0.93731   0.34648   0.00000  Uiso   1.00
C1537  C     0.56718   0.95966   0.41128   0.00000  Uiso   1.00
H1538  H     0.56834   0.95149   0.44698   0.00000  Uiso   1.00
H1539  H     0.60691   0.96385   0.40353   0.00000  Uiso   1.00
H1540  H     0.54808   0.98924   0.40586   0.00000  Uiso   1.00
O1541  O     0.43385   0.78120   0.61070   0.00000  Uiso   1.00
C1542  C     0.44166   0.73939   0.62101   0.00000  Uiso   1.00
H1543  H     0.46283   0.73391   0.65478   0.00000  Uiso   1.00
H1544  H     0.46469   0.72677   0.59640   0.00000  Uiso   1.00
C1545  C     0.39015   0.71528   0.61699   0.00000  Uiso   1.00
H1546  H     0.37086   0.71535   0.58199   0.00000  Uiso   1.00
H1547  H     0.39523   0.68315   0.62773   0.00000  Uiso   1.00
H1548  H     0.36472   0.72858   0.63898   0.00000  Uiso   1.00
O1549  O     0.58612   0.86163   0.63484   0.00000  Uiso   1.00
C1550  C     0.59121   0.90100   0.61628   0.00000  Uiso   1.00
H1551  H     0.55825   0.91883   0.61878   0.00000  Uiso   1.00
H1552  H     0.59572   0.89832   0.58040   0.00000  Uiso   1.00
C1553  C     0.63795   0.92549   0.63924   0.00000  Uiso   1.00
H1554  H     0.33674   0.90526   0.64827   0.00000  Uiso   1.00
H1555  H     0.64974   0.94979   0.61651   0.00000  Uiso   1.00
H1556  H     0.62893   0.94105   0.33652   0.00000  Uiso   1.00
O1557  O     0.43075   0.78397   0.37282   0.00000  Uiso   1.00
C1558  C     0.38185   0.79926   0.36055   0.00000  Uiso   1.00
H1559  H     0.36943   0.79447   0.65811   0.00000  Uiso   1.00
H1560  H     0.38226   0.83268   0.36764   0.00000  Uiso   1.00
C1561  C     0.34185   0.77625   0.38397   0.00000  Uiso   1.00
H1562  H     0.34724   0.78396   0.42006   0.00000  Uiso   1.00
H1563  H     0.63641   0.78523   0.36968   0.00000  Uiso   1.00
H1564  H     0.34433   0.74263   0.37902   0.00000  Uiso   1.00
C1565  C     0.83414   0.75369   0.49977   0.00000  Uiso   1.00
C1566  C     0.82936   0.91316   0.49975   0.00000  Uiso   1.00
C1567  C     0.73429   0.83580   0.48891   0.00000  Uiso   1.00
C1568  C     0.93236   0.83409   0.51172   0.00000  Uiso   1.00
C1569  C     0.68086   0.84480   0.48572   0.00000  Uiso   1.00
C1570  C     0.98682   0.83437   0.51908   0.00000  Uiso   1.00
C1571  C     0.79604   0.68851   0.46794   0.00000  Uiso   1.00
C1572  C     0.84798   0.98047   0.53719   0.00000  Uiso   1.00
C1573  C     0.79599   0.97895   0.46436   0.00000  Uiso   1.00
C1574  C     0.86114   0.68840   0.53318   0.00000  Uiso   1.00
C1575  C     0.82397   0.95776   0.49983   0.00000  Uiso   1.00
C1576  C     0.83308   0.70956   0.49879   0.00000  Uiso   1.00
C1577  C     0.86659   0.85854   0.36119   0.00000  Uiso   1.00
C1578  C     0.80040   0.80734   0.63853   0.00000  Uiso   1.00
C1579  C     0.87119   0.85427   0.64777   0.00000  Uiso   1.00
C1580  C     0.79939   0.80829   0.35338   0.00000  Uiso   1.00
N1581  N     0.83332   0.83332   0.61907   0.00000  Uiso   1.00
N1582  N     0.83335   0.83334   0.38093   0.00000  Uiso   1.00
O1583  O     0.83333   0.77225   0.53821   0.00000  Uiso   1.00
O1584  O     0.83334   0.89442   0.46179   0.00000  Uiso   1.00
O1585  O     0.83333   0.77226   0.46176   0.00000  Uiso   1.00
O1586  O     0.83334   0.89441   0.53824   0.00000  Uiso   1.00
O1587  O     0.75725   0.83333   0.52928   0.00000  Uiso   1.00
O1588  O     0.90942   0.83334   0.47072   0.00000  Uiso   1.00
O1589  O     0.75725   0.83334   0.45284   0.00000  Uiso   1.00
O1590  O     0.90942   0.83333   0.54716   0.00000  Uiso   1.00
Zn1591 Zn    0.83333   0.83333   0.55104   0.00000  Uiso   1.00
Zn1592 Zn    0.83333   0.83334   0.44896   0.00000  Uiso   1.00
C1593  C     0.99511   0.87551   0.45278   0.00000  Uiso   1.00
O1594  O     0.97894   0.90743   0.46595   0.00000  Uiso   1.00
O1595  O     0.99710   0.86895   0.40746   0.00000  Uiso   1.00
H1596  H     0.98940   0.89445   0.38954   0.00000  Uiso   1.00
C1597  C     0.67554   0.82708   0.56575   0.00000  Uiso   1.00
O1598  O     0.99917   0.79463   0.58333   0.00000  Uiso   1.00
O1599  O     0.70342   0.85916   0.59021   0.00000  Uiso   1.00
H1600  H     0.71527   0.85224   0.62234   0.00000  Uiso   1.00
O1601  O     0.75495   0.70916   0.44706   0.00000  Uiso   1.00
C1602  C     0.71964   0.71476   0.47830   0.00000  Uiso   1.00
H1603  H     0.71015   0.74750   0.47875   0.00000  Uiso   1.00
H1604  H     0.73435   0.70778   0.51377   0.00000  Uiso   1.00
C1605  C     0.67088   0.68834   0.46492   0.00000  Uiso   1.00
H1606  H     0.67921   0.98863   0.46771   0.00000  Uiso   1.00
H1607  H     0.97563   0.69521   0.48758   0.00000  Uiso   1.00
H1608  H     0.98781   0.69467   0.43000   0.00000  Uiso   1.00
O1609  O     0.84992   0.96441   0.57920   0.00000  Uiso   1.00
C1610  C     0.80507   0.97348   0.59780   0.00000  Uiso   1.00
H1611  H     0.77877   0.99335   0.57652   0.00000  Uiso   1.00
H1612  H     0.81665   0.98935   0.63068   0.00000  Uiso   1.00
C1613  C     0.77444   0.93425   0.60537   0.00000  Uiso   1.00
H1614  H     0.79874   0.91195   0.62442   0.00000  Uiso   1.00
H1615  H     0.74309   0.94150   0.62471   0.00000  Uiso   1.00
H1616  H     0.75752   0.92066   0.57251   0.00000  Uiso   1.00
C1617  C     0.76242   0.95842   0.42632   0.00000  Uiso   1.00
O1618  O     0.74672   0.92290   0.42896   0.00000  Uiso   1.00
O1619  O     0.74851   0.98009   0.38703   0.00000  Uiso   1.00
H1620  H     0.72462   0.96321   0.36400   0.00000  Uiso   1.00
C1621  C     0.90156   0.70880   0.56625   0.00000  Uiso   1.00
O1622  O     0.92872   0.73673   0.55416   0.00000  Uiso   1.00
O1623  O     0.90995   0.69542   0.61052   0.00000  Uiso   1.00
H1624  H     0.93830   0.71215   0.62952   0.00000  Uiso   1.00
O1625  O     0.89598   0.88838   0.38699   0.00000  Uiso   1.00
C1626  C     0.87165   0.92624   0.38094   0.00000  Uiso   1.00
H1627  H     0.83149   0.92327   0.38764   0.00000  Uiso   1.00
H1628  H     0.87053   0.93731   0.34648   0.00000  Uiso   1.00
C1629  C     0.90051   0.95966   0.41128   0.00000  Uiso   1.00
H1630  H     0.90167   0.95149   0.44698   0.00000  Uiso   1.00
H1631  H     0.94024   0.96385   0.40353   0.00000  Uiso   1.00
H1632  H     0.88141   0.98924   0.40586   0.00000  Uiso   1.00
O1633  O     0.76718   0.78120   0.61070   0.00000  Uiso   1.00
C1634  C     0.77500   0.73939   0.62101   0.00000  Uiso   1.00
H1635  H     0.79616   0.73391   0.65478   0.00000  Uiso   1.00
H1636  H     0.79802   0.72677   0.59640   0.00000  Uiso   1.00
C1637  C     0.72349   0.71528   0.61699   0.00000  Uiso   1.00
H1638  H     0.70419   0.71535   0.58199   0.00000  Uiso   1.00
H1639  H     0.72857   0.68315   0.62773   0.00000  Uiso   1.00
H1640  H     0.69805   0.72858   0.63898   0.00000  Uiso   1.00
O1641  O     0.91946   0.86163   0.63484   0.00000  Uiso   1.00
C1642  C     0.92454   0.90100   0.61628   0.00000  Uiso   1.00
H1643  H     0.89159   0.91883   0.61878   0.00000  Uiso   1.00
H1644  H     0.92905   0.89832   0.58040   0.00000  Uiso   1.00
C1645  C     0.97128   0.92549   0.63924   0.00000  Uiso   1.00
H1646  H     0.67008   0.90526   0.64827   0.00000  Uiso   1.00
H1647  H     0.98307   0.94979   0.61651   0.00000  Uiso   1.00
H1648  H     0.96226   0.94105   0.33652   0.00000  Uiso   1.00
O1649  O     0.76409   0.78397   0.37282   0.00000  Uiso   1.00
C1650  C     0.71518   0.79926   0.36055   0.00000  Uiso   1.00
H1651  H     0.70276   0.79447   0.65811   0.00000  Uiso   1.00
H1652  H     0.71560   0.83268   0.36764   0.00000  Uiso   1.00
C1653  C     0.67519   0.77625   0.38397   0.00000  Uiso   1.00
H1654  H     0.68057   0.78396   0.42006   0.00000  Uiso   1.00
H1655  H     0.96974   0.78523   0.36968   0.00000  Uiso   1.00
H1656  H     0.67767   0.74263   0.37902   0.00000  Uiso   1.00
C1657  C     0.16748   0.08702   0.83311   0.00000  Uiso   1.00
C1658  C     0.16270   0.24649   0.83308   0.00000  Uiso   1.00
C1659  C     0.06763   0.16913   0.82225   0.00000  Uiso   1.00
C1660  C     0.26570   0.16742   0.84505   0.00000  Uiso   1.00
C1661  C     0.01420   0.17814   0.81905   0.00000  Uiso   1.00
C1662  C     0.32015   0.16770   0.85241   0.00000  Uiso   1.00
C1663  C     0.12938   0.02185   0.80127   0.00000  Uiso   1.00
C1664  C     0.18131   0.31380   0.87053   0.00000  Uiso   1.00
C1665  C     0.12932   0.31228   0.79769   0.00000  Uiso   1.00
C1666  C     0.19447   0.02174   0.86651   0.00000  Uiso   1.00
C1667  C     0.15730   0.29110   0.83316   0.00000  Uiso   1.00
C1668  C     0.16641   0.04289   0.83213   0.00000  Uiso   1.00
C1669  C     0.19992   0.19188   0.69453   0.00000  Uiso   1.00
C1670  C     0.13373   0.14067   0.97186   0.00000  Uiso   1.00
C1671  C     0.20452   0.18761   0.98110   0.00000  Uiso   1.00
C1672  C     0.13272   0.14162   0.68671   0.00000  Uiso   1.00
N1673  N     0.16665   0.16666   0.95240   0.00000  Uiso   1.00
N1674  N     0.16668   0.16668   0.71427   0.00000  Uiso   1.00
O1675  O     0.16666   0.10558   0.87154   0.00000  Uiso   1.00
O1676  O     0.16667   0.22775   0.79513   0.00000  Uiso   1.00
O1677  O     0.16666   0.10559   0.79510   0.00000  Uiso   1.00
O1678  O     0.16667   0.22774   0.87157   0.00000  Uiso   1.00
O1679  O     0.09058   0.16666   0.86261   0.00000  Uiso   1.00
O1680  O     0.24275   0.16667   0.80405   0.00000  Uiso   1.00
O1681  O     0.09058   0.16667   0.78617   0.00000  Uiso   1.00
O1682  O     0.24275   0.16666   0.88050   0.00000  Uiso   1.00
Zn1683 Zn    0.16667   0.16666   0.88437   0.00000  Uiso   1.00
Zn1684 Zn    0.16667   0.16667   0.78229   0.00000  Uiso   1.00
C1685  C     0.32845   0.20885   0.78612   0.00000  Uiso   1.00
O1686  O     0.31227   0.24077   0.79928   0.00000  Uiso   1.00
O1687  O     0.33043   0.20229   0.74079   0.00000  Uiso   1.00
H1688  H     0.32273   0.22778   0.72288   0.00000  Uiso   1.00
C1689  C     0.00888   0.16041   0.89908   0.00000  Uiso   1.00
O1690  O     0.33250   0.12796   0.91666   0.00000  Uiso   1.00
O1691  O     0.03675   0.19250   0.92354   0.00000  Uiso   1.00
H1692  H     0.04861   0.18558   0.95567   0.00000  Uiso   1.00
O1693  O     0.08828   0.04250   0.78040   0.00000  Uiso   1.00
C1694  C     0.05297   0.04809   0.81163   0.00000  Uiso   1.00
H1695  H     0.04349   0.08083   0.81209   0.00000  Uiso   1.00
H1696  H     0.06768   0.04112   0.84710   0.00000  Uiso   1.00
C1697  C     0.00422   0.02168   0.79825   0.00000  Uiso   1.00
H1698  H     0.01254   0.32196   0.80104   0.00000  Uiso   1.00
H1699  H     0.30896   0.02854   0.82092   0.00000  Uiso   1.00
H1700  H     0.32115   0.02800   0.76334   0.00000  Uiso   1.00
O1701  O     0.18325   0.29774   0.91253   0.00000  Uiso   1.00
C1702  C     0.13840   0.30681   0.93113   0.00000  Uiso   1.00
H1703  H     0.11210   0.32668   0.90985   0.00000  Uiso   1.00
H1704  H     0.14998   0.32268   0.96401   0.00000  Uiso   1.00
C1705  C     0.10778   0.26759   0.93870   0.00000  Uiso   1.00
H1706  H     0.13207   0.24528   0.95776   0.00000  Uiso   1.00
H1707  H     0.07643   0.27484   0.95804   0.00000  Uiso   1.00
H1708  H     0.09085   0.25400   0.90584   0.00000  Uiso   1.00
C1709  C     0.09575   0.29176   0.75966   0.00000  Uiso   1.00
O1710  O     0.08005   0.25623   0.76229   0.00000  Uiso   1.00
O1711  O     0.08184   0.31342   0.72036   0.00000  Uiso   1.00
H1712  H     0.05796   0.29655   0.69733   0.00000  Uiso   1.00
C1713  C     0.23490   0.04213   0.89958   0.00000  Uiso   1.00
O1714  O     0.26205   0.07007   0.88749   0.00000  Uiso   1.00
O1715  O     0.24328   0.02876   0.94386   0.00000  Uiso   1.00
H1716  H     0.27163   0.04549   0.96285   0.00000  Uiso   1.00
O1717  O     0.22932   0.22171   0.72032   0.00000  Uiso   1.00
C1718  C     0.20498   0.25957   0.71428   0.00000  Uiso   1.00
H1719  H     0.16483   0.25660   0.72097   0.00000  Uiso   1.00
H1720  H     0.20387   0.27064   0.67981   0.00000  Uiso   1.00
C1721  C     0.23385   0.29299   0.74462   0.00000  Uiso   1.00
H1722  H     0.23500   0.28483   0.78031   0.00000  Uiso   1.00
H1723  H     0.27358   0.29719   0.73687   0.00000  Uiso   1.00
H1724  H     0.21474   0.32257   0.73919   0.00000  Uiso   1.00
O1725  O     0.10052   0.11453   0.94403   0.00000  Uiso   1.00
C1726  C     0.10833   0.07272   0.95434   0.00000  Uiso   1.00
H1727  H     0.12949   0.06724   0.98812   0.00000  Uiso   1.00
H1728  H     0.13135   0.06010   0.92973   0.00000  Uiso   1.00
C1729  C     0.05682   0.04862   0.95032   0.00000  Uiso   1.00
H1730  H     0.03752   0.04869   0.91532   0.00000  Uiso   1.00
H1731  H     0.06190   0.01648   0.96106   0.00000  Uiso   1.00
H1732  H     0.03139   0.06191   0.97232   0.00000  Uiso   1.00
O1733  O     0.25279   0.19496   0.96818   0.00000  Uiso   1.00
C1734  C     0.25788   0.23433   0.94961   0.00000  Uiso   1.00
H1735  H     0.22492   0.25217   0.95211   0.00000  Uiso   1.00
H1736  H     0.26239   0.23165   0.91374   0.00000  Uiso   1.00
C1737  C     0.30462   0.25883   0.97258   0.00000  Uiso   1.00
H1738  H     0.00341   0.23859   0.98160   0.00000  Uiso   1.00
H1739  H     0.31640   0.28313   0.94984   0.00000  Uiso   1.00
H1740  H     0.29559   0.27439   0.66985   0.00000  Uiso   1.00
O1741  O     0.09742   0.11731   0.70615   0.00000  Uiso   1.00
C1742  C     0.04851   0.13259   0.69388   0.00000  Uiso   1.00
H1743  H     0.03609   0.12780   0.99144   0.00000  Uiso   1.00
H1744  H     0.04893   0.16601   0.70097   0.00000  Uiso   1.00
C1745  C     0.00852   0.10958   0.71731   0.00000  Uiso   1.00
H1746  H     0.01391   0.11729   0.75339   0.00000  Uiso   1.00
H1747  H     0.30307   0.11856   0.70301   0.00000  Uiso   1.00
H1748  H     0.01100   0.07596   0.71235   0.00000  Uiso   1.00
C1749  C     0.50081   0.08702   0.83311   0.00000  Uiso   1.00
C1750  C     0.49603   0.24649   0.83308   0.00000  Uiso   1.00
C1751  C     0.40096   0.16913   0.82225   0.00000  Uiso   1.00
C1752  C     0.59903   0.16742   0.84505   0.00000  Uiso   1.00
C1753  C     0.34753   0.17814   0.81905   0.00000  Uiso   1.00
C1754  C     0.65349   0.16770   0.85241   0.00000  Uiso   1.00
C1755  C     0.46271   0.02185   0.80127   0.00000  Uiso   1.00
C1756  C     0.51464   0.31380   0.87053   0.00000  Uiso   1.00
C1757  C     0.46265   0.31228   0.79769   0.00000  Uiso   1.00
C1758  C     0.52780   0.02174   0.86651   0.00000  Uiso   1.00
C1759  C     0.49063   0.29110   0.83316   0.00000  Uiso   1.00
C1760  C     0.49974   0.04289   0.83213   0.00000  Uiso   1.00
C1761  C     0.53325   0.19188   0.69453   0.00000  Uiso   1.00
C1762  C     0.46707   0.14067   0.97186   0.00000  Uiso   1.00
C1763  C     0.53785   0.18761   0.98110   0.00000  Uiso   1.00
C1764  C     0.46605   0.14162   0.68671   0.00000  Uiso   1.00
N1765  N     0.49999   0.16666   0.95240   0.00000  Uiso   1.00
N1766  N     0.50001   0.16668   0.71427   0.00000  Uiso   1.00
O1767  O     0.50000   0.10558   0.87154   0.00000  Uiso   1.00
O1768  O     0.50000   0.22775   0.79513   0.00000  Uiso   1.00
O1769  O     0.50000   0.10559   0.79510   0.00000  Uiso   1.00
O1770  O     0.50000   0.22774   0.87157   0.00000  Uiso   1.00
O1771  O     0.42392   0.16666   0.86261   0.00000  Uiso   1.00
O1772  O     0.57608   0.16667   0.80405   0.00000  Uiso   1.00
O1773  O     0.42392   0.16667   0.78617   0.00000  Uiso   1.00
O1774  O     0.57608   0.16666   0.88050   0.00000  Uiso   1.00
Zn1775 Zn    0.50000   0.16666   0.88437   0.00000  Uiso   1.00
Zn1776 Zn    0.50000   0.16667   0.78229   0.00000  Uiso   1.00
C1777  C     0.66178   0.20885   0.78612   0.00000  Uiso   1.00
O1778  O     0.64561   0.24077   0.79928   0.00000  Uiso   1.00
O1779  O     0.66376   0.20229   0.74079   0.00000  Uiso   1.00
H1780  H     0.65606   0.22778   0.72288   0.00000  Uiso   1.00
C1781  C     0.34221   0.16041   0.89908   0.00000  Uiso   1.00
O1782  O     0.66584   0.12796   0.91666   0.00000  Uiso   1.00
O1783  O     0.37009   0.19250   0.92354   0.00000  Uiso   1.00
H1784  H     0.38194   0.18558   0.95567   0.00000  Uiso   1.00
O1785  O     0.42161   0.04250   0.78040   0.00000  Uiso   1.00
C1786  C     0.38631   0.04809   0.81163   0.00000  Uiso   1.00
H1787  H     0.37682   0.08083   0.81209   0.00000  Uiso   1.00
H1788  H     0.40101   0.04112   0.84710   0.00000  Uiso   1.00
C1789  C     0.33755   0.02168   0.79825   0.00000  Uiso   1.00
H1790  H     0.34588   0.32196   0.80104   0.00000  Uiso   1.00
H1791  H     0.64229   0.02854   0.82092   0.00000  Uiso   1.00
H1792  H     0.65448   0.02800   0.76334   0.00000  Uiso   1.00
O1793  O     0.51659   0.29774   0.91253   0.00000  Uiso   1.00
C1794  C     0.47174   0.30681   0.93113   0.00000  Uiso   1.00
H1795  H     0.44543   0.32668   0.90985   0.00000  Uiso   1.00
H1796  H     0.48331   0.32268   0.96401   0.00000  Uiso   1.00
C1797  C     0.44111   0.26759   0.93870   0.00000  Uiso   1.00
H1798  H     0.46541   0.24528   0.95776   0.00000  Uiso   1.00
H1799  H     0.40976   0.27484   0.95804   0.00000  Uiso   1.00
H1800  H     0.42419   0.25400   0.90584   0.00000  Uiso   1.00
C1801  C     0.42908   0.29176   0.75966   0.00000  Uiso   1.00
O1802  O     0.41338   0.25623   0.76229   0.00000  Uiso   1.00
O1803  O     0.41518   0.31342   0.72036   0.00000  Uiso   1.00
H1804  H     0.39129   0.29655   0.69733   0.00000  Uiso   1.00
C1805  C     0.56823   0.04213   0.89958   0.00000  Uiso   1.00
O1806  O     0.59539   0.07007   0.88749   0.00000  Uiso   1.00
O1807  O     0.57662   0.02876   0.94386   0.00000  Uiso   1.00
H1808  H     0.60497   0.04549   0.96285   0.00000  Uiso   1.00
O1809  O     0.56265   0.22171   0.72032   0.00000  Uiso   1.00
C1810  C     0.53832   0.25957   0.71428   0.00000  Uiso   1.00
H1811  H     0.49816   0.25660   0.72097   0.00000  Uiso   1.00
H1812  H     0.53720   0.27064   0.67981   0.00000  Uiso   1.00
C1813  C     0.56718   0.29299   0.74462   0.00000  Uiso   1.00
H1814  H     0.56834   0.28483   0.78031   0.00000  Uiso   1.00
H1815  H     0.60691   0.29719   0.73687   0.00000  Uiso   1.00
H1816  H     0.54808   0.32257   0.73919   0.00000  Uiso   1.00
O1817  O     0.43385   0.11453   0.94403   0.00000  Uiso   1.00
C1818  C     0.44166   0.07272   0.95434   0.00000  Uiso   1.00
H1819  H     0.46283   0.06724   0.98812   0.00000  Uiso   1.00
H1820  H     0.46469   0.06010   0.92973   0.00000  Uiso   1.00
C1821  C     0.39015   0.04862   0.95032   0.00000  Uiso   1.00
H1822  H     0.37086   0.04869   0.91532   0.00000  Uiso   1.00
H1823  H     0.39523   0.01648   0.96106   0.00000  Uiso   1.00
H1824  H     0.36472   0.06191   0.97232   0.00000  Uiso   1.00
O1825  O     0.58612   0.19496   0.96818   0.00000  Uiso   1.00
C1826  C     0.59121   0.23433   0.94961   0.00000  Uiso   1.00
H1827  H     0.55825   0.25217   0.95211   0.00000  Uiso   1.00
H1828  H     0.59572   0.23165   0.91374   0.00000  Uiso   1.00
C1829  C     0.63795   0.25883   0.97258   0.00000  Uiso   1.00
H1830  H     0.33674   0.23859   0.98160   0.00000  Uiso   1.00
H1831  H     0.64974   0.28313   0.94984   0.00000  Uiso   1.00
H1832  H     0.62893   0.27439   0.66985   0.00000  Uiso   1.00
O1833  O     0.43075   0.11731   0.70615   0.00000  Uiso   1.00
C1834  C     0.38185   0.13259   0.69388   0.00000  Uiso   1.00
H1835  H     0.36943   0.12780   0.99144   0.00000  Uiso   1.00
H1836  H     0.38226   0.16601   0.70097   0.00000  Uiso   1.00
C1837  C     0.34185   0.10958   0.71731   0.00000  Uiso   1.00
H1838  H     0.34724   0.11729   0.75339   0.00000  Uiso   1.00
H1839  H     0.63641   0.11856   0.70301   0.00000  Uiso   1.00
H1840  H     0.34433   0.07596   0.71235   0.00000  Uiso   1.00
C1841  C     0.83414   0.08702   0.83311   0.00000  Uiso   1.00
C1842  C     0.82936   0.24649   0.83308   0.00000  Uiso   1.00
C1843  C     0.73429   0.16913   0.82225   0.00000  Uiso   1.00
C1844  C     0.93236   0.16742   0.84505   0.00000  Uiso   1.00
C1845  C     0.68086   0.17814   0.81905   0.00000  Uiso   1.00
C1846  C     0.98682   0.16770   0.85241   0.00000  Uiso   1.00
C1847  C     0.79604   0.02185   0.80127   0.00000  Uiso   1.00
C1848  C     0.84798   0.31380   0.87053   0.00000  Uiso   1.00
C1849  C     0.79599   0.31228   0.79769   0.00000  Uiso   1.00
C1850  C     0.86114   0.02174   0.86651   0.00000  Uiso   1.00
C1851  C     0.82397   0.29110   0.83316   0.00000  Uiso   1.00
C1852  C     0.83308   0.04289   0.83213   0.00000  Uiso   1.00
C1853  C     0.86659   0.19188   0.69453   0.00000  Uiso   1.00
C1854  C     0.80040   0.14067   0.97186   0.00000  Uiso   1.00
C1855  C     0.87119   0.18761   0.98110   0.00000  Uiso   1.00
C1856  C     0.79939   0.14162   0.68671   0.00000  Uiso   1.00
N1857  N     0.83332   0.16666   0.95240   0.00000  Uiso   1.00
N1858  N     0.83335   0.16668   0.71427   0.00000  Uiso   1.00
O1859  O     0.83333   0.10558   0.87154   0.00000  Uiso   1.00
O1860  O     0.83334   0.22775   0.79513   0.00000  Uiso   1.00
O1861  O     0.83333   0.10559   0.79510   0.00000  Uiso   1.00
O1862  O     0.83334   0.22774   0.87157   0.00000  Uiso   1.00
O1863  O     0.75725   0.16666   0.86261   0.00000  Uiso   1.00
O1864  O     0.90942   0.16667   0.80405   0.00000  Uiso   1.00
O1865  O     0.75725   0.16667   0.78617   0.00000  Uiso   1.00
O1866  O     0.90942   0.16666   0.88050   0.00000  Uiso   1.00
Zn1867 Zn    0.83333   0.16666   0.88437   0.00000  Uiso   1.00
Zn1868 Zn    0.83333   0.16667   0.78229   0.00000  Uiso   1.00
C1869  C     0.99511   0.20885   0.78612   0.00000  Uiso   1.00
O1870  O     0.97894   0.24077   0.79928   0.00000  Uiso   1.00
O1871  O     0.99710   0.20229   0.74079   0.00000  Uiso   1.00
H1872  H     0.98940   0.22778   0.72288   0.00000  Uiso   1.00
C1873  C     0.67554   0.16041   0.89908   0.00000  Uiso   1.00
O1874  O     0.99917   0.12796   0.91666   0.00000  Uiso   1.00
O1875  O     0.70342   0.19250   0.92354   0.00000  Uiso   1.00
H1876  H     0.71527   0.18558   0.95567   0.00000  Uiso   1.00
O1877  O     0.75495   0.04250   0.78040   0.00000  Uiso   1.00
C1878  C     0.71964   0.04809   0.81163   0.00000  Uiso   1.00
H1879  H     0.71015   0.08083   0.81209   0.00000  Uiso   1.00
H1880  H     0.73435   0.04112   0.84710   0.00000  Uiso   1.00
C1881  C     0.67088   0.02168   0.79825   0.00000  Uiso   1.00
H1882  H     0.67921   0.32196   0.80104   0.00000  Uiso   1.00
H1883  H     0.97563   0.02854   0.82092   0.00000  Uiso   1.00
H1884  H     0.98781   0.02800   0.76334   0.00000  Uiso   1.00
O1885  O     0.84992   0.29774   0.91253   0.00000  Uiso   1.00
C1886  C     0.80507   0.30681   0.93113   0.00000  Uiso   1.00
H1887  H     0.77877   0.32668   0.90985   0.00000  Uiso   1.00
H1888  H     0.81665   0.32268   0.96401   0.00000  Uiso   1.00
C1889  C     0.77444   0.26759   0.93870   0.00000  Uiso   1.00
H1890  H     0.79874   0.24528   0.95776   0.00000  Uiso   1.00
H1891  H     0.74309   0.27484   0.95804   0.00000  Uiso   1.00
H1892  H     0.75752   0.25400   0.90584   0.00000  Uiso   1.00
C1893  C     0.76242   0.29176   0.75966   0.00000  Uiso   1.00
O1894  O     0.74672   0.25623   0.76229   0.00000  Uiso   1.00
O1895  O     0.74851   0.31342   0.72036   0.00000  Uiso   1.00
H1896  H     0.72462   0.29655   0.69733   0.00000  Uiso   1.00
C1897  C     0.90156   0.04213   0.89958   0.00000  Uiso   1.00
O1898  O     0.92872   0.07007   0.88749   0.00000  Uiso   1.00
O1899  O     0.90995   0.02876   0.94386   0.00000  Uiso   1.00
H1900  H     0.93830   0.04549   0.96285   0.00000  Uiso   1.00
O1901  O     0.89598   0.22171   0.72032   0.00000  Uiso   1.00
C1902  C     0.87165   0.25957   0.71428   0.00000  Uiso   1.00
H1903  H     0.83149   0.25660   0.72097   0.00000  Uiso   1.00
H1904  H     0.87053   0.27064   0.67981   0.00000  Uiso   1.00
C1905  C     0.90051   0.29299   0.74462   0.00000  Uiso   1.00
H1906  H     0.90167   0.28483   0.78031   0.00000  Uiso   1.00
H1907  H     0.94024   0.29719   0.73687   0.00000  Uiso   1.00
H1908  H     0.88141   0.32257   0.73919   0.00000  Uiso   1.00
O1909  O     0.76718   0.11453   0.94403   0.00000  Uiso   1.00
C1910  C     0.77500   0.07272   0.95434   0.00000  Uiso   1.00
H1911  H     0.79616   0.06724   0.98812   0.00000  Uiso   1.00
H1912  H     0.79802   0.06010   0.92973   0.00000  Uiso   1.00
C1913  C     0.72349   0.04862   0.95032   0.00000  Uiso   1.00
H1914  H     0.70419   0.04869   0.91532   0.00000  Uiso   1.00
H1915  H     0.72857   0.01648   0.96106   0.00000  Uiso   1.00
H1916  H     0.69805   0.06191   0.97232   0.00000  Uiso   1.00
O1917  O     0.91946   0.19496   0.96818   0.00000  Uiso   1.00
C1918  C     0.92454   0.23433   0.94961   0.00000  Uiso   1.00
H1919  H     0.89159   0.25217   0.95211   0.00000  Uiso   1.00
H1920  H     0.92905   0.23165   0.91374   0.00000  Uiso   1.00
C1921  C     0.97128   0.25883   0.97258   0.00000  Uiso   1.00
H1922  H     0.67008   0.23859   0.98160   0.00000  Uiso   1.00
H1923  H     0.98307   0.28313   0.94984   0.00000  Uiso   1.00
H1924  H     0.96226   0.27439   0.66985   0.00000  Uiso   1.00
O1925  O     0.76409   0.11731   0.70615   0.00000  Uiso   1.00
C1926  C     0.71518   0.13259   0.69388   0.00000  Uiso   1.00
H1927  H     0.70276   0.12780   0.99144   0.00000  Uiso   1.00
H1928  H     0.71560   0.16601   0.70097   0.00000  Uiso   1.00
C1929  C     0.67519   0.10958   0.71731   0.00000  Uiso   1.00
H1930  H     0.68057   0.11729   0.75339   0.00000  Uiso   1.00
H1931  H     0.96974   0.11856   0.70301   0.00000  Uiso   1.00
H1932  H     0.67767   0.07596   0.71235   0.00000  Uiso   1.00
C1933  C     0.16748   0.42035   0.83311   0.00000  Uiso   1.00
C1934  C     0.16270   0.57983   0.83308   0.00000  Uiso   1.00
C1935  C     0.06763   0.50246   0.82225   0.00000  Uiso   1.00
C1936  C     0.26570   0.50075   0.84505   0.00000  Uiso   1.00
C1937  C     0.01420   0.51147   0.81905   0.00000  Uiso   1.00
C1938  C     0.32015   0.50104   0.85241   0.00000  Uiso   1.00
C1939  C     0.12938   0.35518   0.80127   0.00000  Uiso   1.00
C1940  C     0.18131   0.64713   0.87053   0.00000  Uiso   1.00
C1941  C     0.12932   0.64562   0.79769   0.00000  Uiso   1.00
C1942  C     0.19447   0.35507   0.86651   0.00000  Uiso   1.00
C1943  C     0.15730   0.62443   0.83316   0.00000  Uiso   1.00
C1944  C     0.16641   0.37623   0.83213   0.00000  Uiso   1.00
C1945  C     0.19992   0.52521   0.69453   0.00000  Uiso   1.00
C1946  C     0.13373   0.47400   0.97186   0.00000  Uiso   1.00
C1947  C     0.20452   0.52094   0.98110   0.00000  Uiso   1.00
C1948  C     0.13272   0.47496   0.68671   0.00000  Uiso   1.00
N1949  N     0.16665   0.49999   0.95240   0.00000  Uiso   1.00
N1950  N     0.16668   0.50001   0.71427   0.00000  Uiso   1.00
O1951  O     0.16666   0.43892   0.87154   0.00000  Uiso   1.00
O1952  O     0.16667   0.56108   0.79513   0.00000  Uiso   1.00
O1953  O     0.16666   0.43893   0.79510   0.00000  Uiso   1.00
O1954  O     0.16667   0.56107   0.87157   0.00000  Uiso   1.00
O1955  O     0.09058   0.50000   0.86261   0.00000  Uiso   1.00
O1956  O     0.24275   0.50000   0.80405   0.00000  Uiso   1.00
O1957  O     0.09058   0.50000   0.78617   0.00000  Uiso   1.00
O1958  O     0.24275   0.50000   0.88050   0.00000  Uiso   1.00
Zn1959 Zn    0.16667   0.49999   0.88437   0.00000  Uiso   1.00
Zn1960 Zn    0.16667   0.50001   0.78229   0.00000  Uiso   1.00
C1961  C     0.32845   0.54218   0.78612   0.00000  Uiso   1.00
O1962  O     0.31227   0.57410   0.79928   0.00000  Uiso   1.00
O1963  O     0.33043   0.53562   0.74079   0.00000  Uiso   1.00
H1964  H     0.32273   0.56111   0.72288   0.00000  Uiso   1.00
C1965  C     0.00888   0.49374   0.89908   0.00000  Uiso   1.00
O1966  O     0.33250   0.46130   0.91666   0.00000  Uiso   1.00
O1967  O     0.03675   0.52583   0.92354   0.00000  Uiso   1.00
H1968  H     0.04861   0.51891   0.95567   0.00000  Uiso   1.00
O1969  O     0.08828   0.37583   0.78040   0.00000  Uiso   1.00
C1970  C     0.05297   0.38143   0.81163   0.00000  Uiso   1.00
H1971  H     0.04349   0.41417   0.81209   0.00000  Uiso   1.00
H1972  H     0.06768   0.37445   0.84710   0.00000  Uiso   1.00
C1973  C     0.00422   0.35501   0.79825   0.00000  Uiso   1.00
H1974  H     0.01254   0.65530   0.80104   0.00000  Uiso   1.00
H1975  H     0.30896   0.36188   0.82092   0.00000  Uiso   1.00
H1976  H     0.32115   0.36134   0.76334   0.00000  Uiso   1.00
O1977  O     0.18325   0.63107   0.91253   0.00000  Uiso   1.00
C1978  C     0.13840   0.64015   0.93113   0.00000  Uiso   1.00
H1979  H     0.11210   0.66001   0.90985   0.00000  Uiso   1.00
H1980  H     0.14998   0.65601   0.96401   0.00000  Uiso   1.00
C1981  C     0.10778   0.60092   0.93870   0.00000  Uiso   1.00
H1982  H     0.13207   0.57861   0.95776   0.00000  Uiso   1.00
H1983  H     0.07643   0.60817   0.95804   0.00000  Uiso   1.00
H1984  H     0.09085   0.58733   0.90584   0.00000  Uiso   1.00
C1985  C     0.09575   0.62509   0.75966   0.00000  Uiso   1.00
O1986  O     0.08005   0.58956   0.76229   0.00000  Uiso   1.00
O1987  O     0.08184   0.64675   0.72036   0.00000  Uiso   1.00
H1988  H     0.05796   0.62988   0.69733   0.00000  Uiso   1.00
C1989  C     0.23490   0.37546   0.89958   0.00000  Uiso   1.00
O1990  O     0.26205   0.40340   0.88749   0.00000  Uiso   1.00
O1991  O     0.24328   0.36209   0.94386   0.00000  Uiso   1.00
H1992  H     0.27163   0.37882   0.96285   0.00000  Uiso   1.00
O1993  O     0.22932   0.55505   0.72032   0.00000  Uiso   1.00
C1994  C     0.20498   0.59291   0.71428   0.00000  Uiso   1.00
H1995  H     0.16483   0.58994   0.72097   0.00000  Uiso   1.00
H1996  H     0.20387   0.60397   0.67981   0.00000  Uiso   1.00
C1997  C     0.23385   0.62633   0.74462   0.00000  Uiso   1.00
H1998  H     0.23500   0.61816   0.78031   0.00000  Uiso   1.00
H1999  H     0.27358   0.63052   0.73687   0.00000  Uiso   1.00
H2000  H     0.21474   0.65591   0.73919   0.00000  Uiso   1.00
O2001  O     0.10052   0.44787   0.94403   0.00000  Uiso   1.00
C2002  C     0.10833   0.40606   0.95434   0.00000  Uiso   1.00
H2003  H     0.12949   0.40058   0.98812   0.00000  Uiso   1.00
H2004  H     0.13135   0.39344   0.92973   0.00000  Uiso   1.00
C2005  C     0.05682   0.38195   0.95032   0.00000  Uiso   1.00
H2006  H     0.03752   0.38202   0.91532   0.00000  Uiso   1.00
H2007  H     0.06190   0.34982   0.96106   0.00000  Uiso   1.00
H2008  H     0.03139   0.39525   0.97232   0.00000  Uiso   1.00
O2009  O     0.25279   0.52829   0.96818   0.00000  Uiso   1.00
C2010  C     0.25788   0.56766   0.94961   0.00000  Uiso   1.00
H2011  H     0.22492   0.58550   0.95211   0.00000  Uiso   1.00
H2012  H     0.26239   0.56498   0.91374   0.00000  Uiso   1.00
C2013  C     0.30462   0.59216   0.97258   0.00000  Uiso   1.00
H2014  H     0.00341   0.57193   0.98160   0.00000  Uiso   1.00
H2015  H     0.31640   0.61646   0.94984   0.00000  Uiso   1.00
H2016  H     0.29559   0.60772   0.66985   0.00000  Uiso   1.00
O2017  O     0.09742   0.45064   0.70615   0.00000  Uiso   1.00
C2018  C     0.04851   0.46592   0.69388   0.00000  Uiso   1.00
H2019  H     0.03609   0.46113   0.99144   0.00000  Uiso   1.00
H2020  H     0.04893   0.49934   0.70097   0.00000  Uiso   1.00
C2021  C     0.00852   0.44291   0.71731   0.00000  Uiso   1.00
H2022  H     0.01391   0.45062   0.75339   0.00000  Uiso   1.00
H2023  H     0.30307   0.45190   0.70301   0.00000  Uiso   1.00
H2024  H     0.01100   0.40930   0.71235   0.00000  Uiso   1.00
C2025  C     0.50081   0.42035   0.83311   0.00000  Uiso   1.00
C2026  C     0.49603   0.57983   0.83308   0.00000  Uiso   1.00
C2027  C     0.40096   0.50246   0.82225   0.00000  Uiso   1.00
C2028  C     0.59903   0.50075   0.84505   0.00000  Uiso   1.00
C2029  C     0.34753   0.51147   0.81905   0.00000  Uiso   1.00
C2030  C     0.65349   0.50104   0.85241   0.00000  Uiso   1.00
C2031  C     0.46271   0.35518   0.80127   0.00000  Uiso   1.00
C2032  C     0.51464   0.64713   0.87053   0.00000  Uiso   1.00
C2033  C     0.46265   0.64562   0.79769   0.00000  Uiso   1.00
C2034  C     0.52780   0.35507   0.86651   0.00000  Uiso   1.00
C2035  C     0.49063   0.62443   0.83316   0.00000  Uiso   1.00
C2036  C     0.49974   0.37623   0.83213   0.00000  Uiso   1.00
C2037  C     0.53325   0.52521   0.69453   0.00000  Uiso   1.00
C2038  C     0.46707   0.47400   0.97186   0.00000  Uiso   1.00
C2039  C     0.53785   0.52094   0.98110   0.00000  Uiso   1.00
C2040  C     0.46605   0.47496   0.68671   0.00000  Uiso   1.00
N2041  N     0.49999   0.49999   0.95240   0.00000  Uiso   1.00
N2042  N     0.50001   0.50001   0.71427   0.00000  Uiso   1.00
O2043  O     0.50000   0.43892   0.87154   0.00000  Uiso   1.00
O2044  O     0.50000   0.56108   0.79513   0.00000  Uiso   1.00
O2045  O     0.50000   0.43893   0.79510   0.00000  Uiso   1.00
O2046  O     0.50000   0.56107   0.87157   0.00000  Uiso   1.00
O2047  O     0.42392   0.50000   0.86261   0.00000  Uiso   1.00
O2048  O     0.57608   0.50000   0.80405   0.00000  Uiso   1.00
O2049  O     0.42392   0.50000   0.78617   0.00000  Uiso   1.00
O2050  O     0.57608   0.50000   0.88050   0.00000  Uiso   1.00
Zn2051 Zn    0.50000   0.49999   0.88437   0.00000  Uiso   1.00
Zn2052 Zn    0.50000   0.50001   0.78229   0.00000  Uiso   1.00
C2053  C     0.66178   0.54218   0.78612   0.00000  Uiso   1.00
O2054  O     0.64561   0.57410   0.79928   0.00000  Uiso   1.00
O2055  O     0.66376   0.53562   0.74079   0.00000  Uiso   1.00
H2056  H     0.65606   0.56111   0.72288   0.00000  Uiso   1.00
C2057  C     0.34221   0.49374   0.89908   0.00000  Uiso   1.00
O2058  O     0.66584   0.46130   0.91666   0.00000  Uiso   1.00
O2059  O     0.37009   0.52583   0.92354   0.00000  Uiso   1.00
H2060  H     0.38194   0.51891   0.95567   0.00000  Uiso   1.00
O2061  O     0.42161   0.37583   0.78040   0.00000  Uiso   1.00
C2062  C     0.38631   0.38143   0.81163   0.00000  Uiso   1.00
H2063  H     0.37682   0.41417   0.81209   0.00000  Uiso   1.00
H2064  H     0.40101   0.37445   0.84710   0.00000  Uiso   1.00
C2065  C     0.33755   0.35501   0.79825   0.00000  Uiso   1.00
H2066  H     0.34588   0.65530   0.80104   0.00000  Uiso   1.00
H2067  H     0.64229   0.36188   0.82092   0.00000  Uiso   1.00
H2068  H     0.65448   0.36134   0.76334   0.00000  Uiso   1.00
O2069  O     0.51659   0.63107   0.91253   0.00000  Uiso   1.00
C2070  C     0.47174   0.64015   0.93113   0.00000  Uiso   1.00
H2071  H     0.44543   0.66001   0.90985   0.00000  Uiso   1.00
H2072  H     0.48331   0.65601   0.96401   0.00000  Uiso   1.00
C2073  C     0.44111   0.60092   0.93870   0.00000  Uiso   1.00
H2074  H     0.46541   0.57861   0.95776   0.00000  Uiso   1.00
H2075  H     0.40976   0.60817   0.95804   0.00000  Uiso   1.00
H2076  H     0.42419   0.58733   0.90584   0.00000  Uiso   1.00
C2077  C     0.42908   0.62509   0.75966   0.00000  Uiso   1.00
O2078  O     0.41338   0.58956   0.76229   0.00000  Uiso   1.00
O2079  O     0.41518   0.64675   0.72036   0.00000  Uiso   1.00
H2080  H     0.39129   0.62988   0.69733   0.00000  Uiso   1.00
C2081  C     0.56823   0.37546   0.89958   0.00000  Uiso   1.00
O2082  O     0.59539   0.40340   0.88749   0.00000  Uiso   1.00
O2083  O     0.57662   0.36209   0.94386   0.00000  Uiso   1.00
H2084  H     0.60497   0.37882   0.96285   0.00000  Uiso   1.00
O2085  O     0.56265   0.55505   0.72032   0.00000  Uiso   1.00
C2086  C     0.53832   0.59291   0.71428   0.00000  Uiso   1.00
H2087  H     0.49816   0.58994   0.72097   0.00000  Uiso   1.00
H2088  H     0.53720   0.60397   0.67981   0.00000  Uiso   1.00
C2089  C     0.56718   0.62633   0.74462   0.00000  Uiso   1.00
H2090  H     0.56834   0.61816   0.78031   0.00000  Uiso   1.00
H2091  H     0.60691   0.63052   0.73687   0.00000  Uiso   1.00
H2092  H     0.54808   0.65591   0.73919   0.00000  Uiso   1.00
O2093  O     0.43385   0.44787   0.94403   0.00000  Uiso   1.00
C2094  C     0.44166   0.40606   0.95434   0.00000  Uiso   1.00
H2095  H     0.46283   0.40058   0.98812   0.00000  Uiso   1.00
H2096  H     0.46469   0.39344   0.92973   0.00000  Uiso   1.00
C2097  C     0.39015   0.38195   0.95032   0.00000  Uiso   1.00
H2098  H     0.37086   0.38202   0.91532   0.00000  Uiso   1.00
H2099  H     0.39523   0.34982   0.96106   0.00000  Uiso   1.00
H2100  H     0.36472   0.39525   0.97232   0.00000  Uiso   1.00
O2101  O     0.58612   0.52829   0.96818   0.00000  Uiso   1.00
C2102  C     0.59121   0.56766   0.94961   0.00000  Uiso   1.00
H2103  H     0.55825   0.58550   0.95211   0.00000  Uiso   1.00
H2104  H     0.59572   0.56498   0.91374   0.00000  Uiso   1.00
C2105  C     0.63795   0.59216   0.97258   0.00000  Uiso   1.00
H2106  H     0.33674   0.57193   0.98160   0.00000  Uiso   1.00
H2107  H     0.64974   0.61646   0.94984   0.00000  Uiso   1.00
H2108  H     0.62893   0.60772   0.66985   0.00000  Uiso   1.00
O2109  O     0.43075   0.45064   0.70615   0.00000  Uiso   1.00
C2110  C     0.38185   0.46592   0.69388   0.00000  Uiso   1.00
H2111  H     0.36943   0.46113   0.99144   0.00000  Uiso   1.00
H2112  H     0.38226   0.49934   0.70097   0.00000  Uiso   1.00
C2113  C     0.34185   0.44291   0.71731   0.00000  Uiso   1.00
H2114  H     0.34724   0.45062   0.75339   0.00000  Uiso   1.00
H2115  H     0.63641   0.45190   0.70301   0.00000  Uiso   1.00
H2116  H     0.34433   0.40930   0.71235   0.00000  Uiso   1.00
C2117  C     0.83414   0.42035   0.83311   0.00000  Uiso   1.00
C2118  C     0.82936   0.57983   0.83308   0.00000  Uiso   1.00
C2119  C     0.73429   0.50246   0.82225   0.00000  Uiso   1.00
C2120  C     0.93236   0.50075   0.84505   0.00000  Uiso   1.00
C2121  C     0.68086   0.51147   0.81905   0.00000  Uiso   1.00
C2122  C     0.98682   0.50104   0.85241   0.00000  Uiso   1.00
C2123  C     0.79604   0.35518   0.80127   0.00000  Uiso   1.00
C2124  C     0.84798   0.64713   0.87053   0.00000  Uiso   1.00
C2125  C     0.79599   0.64562   0.79769   0.00000  Uiso   1.00
C2126  C     0.86114   0.35507   0.86651   0.00000  Uiso   1.00
C2127  C     0.82397   0.62443   0.83316   0.00000  Uiso   1.00
C2128  C     0.83308   0.37623   0.83213   0.00000  Uiso   1.00
C2129  C     0.86659   0.52521   0.69453   0.00000  Uiso   1.00
C2130  C     0.80040   0.47400   0.97186   0.00000  Uiso   1.00
C2131  C     0.87119   0.52094   0.98110   0.00000  Uiso   1.00
C2132  C     0.79939   0.47496   0.68671   0.00000  Uiso   1.00
N2133  N     0.83332   0.49999   0.95240   0.00000  Uiso   1.00
N2134  N     0.83335   0.50001   0.71427   0.00000  Uiso   1.00
O2135  O     0.83333   0.43892   0.87154   0.00000  Uiso   1.00
O2136  O     0.83334   0.56108   0.79513   0.00000  Uiso   1.00
O2137  O     0.83333   0.43893   0.79510   0.00000  Uiso   1.00
O2138  O     0.83334   0.56107   0.87157   0.00000  Uiso   1.00
O2139  O     0.75725   0.50000   0.86261   0.00000  Uiso   1.00
O2140  O     0.90942   0.50000   0.80405   0.00000  Uiso   1.00
O2141  O     0.75725   0.50000   0.78617   0.00000  Uiso   1.00
O2142  O     0.90942   0.50000   0.88050   0.00000  Uiso   1.00
Zn2143 Zn    0.83333   0.49999   0.88437   0.00000  Uiso   1.00
Zn2144 Zn    0.83333   0.50001   0.78229   0.00000  Uiso   1.00
C2145  C     0.99511   0.54218   0.78612   0.00000  Uiso   1.00
O2146  O     0.97894   0.57410   0.79928   0.00000  Uiso   1.00
O2147  O     0.99710   0.53562   0.74079   0.00000  Uiso   1.00
H2148  H     0.98940   0.56111   0.72288   0.00000  Uiso   1.00
C2149  C     0.67554   0.49374   0.89908   0.00000  Uiso   1.00
O2150  O     0.99917   0.46130   0.91666   0.00000  Uiso   1.00
O2151  O     0.70342   0.52583   0.92354   0.00000  Uiso   1.00
H2152  H     0.71527   0.51891   0.95567   0.00000  Uiso   1.00
O2153  O     0.75495   0.37583   0.78040   0.00000  Uiso   1.00
C2154  C     0.71964   0.38143   0.81163   0.00000  Uiso   1.00
H2155  H     0.71015   0.41417   0.81209   0.00000  Uiso   1.00
H2156  H     0.73435   0.37445   0.84710   0.00000  Uiso   1.00
C2157  C     0.67088   0.35501   0.79825   0.00000  Uiso   1.00
H2158  H     0.67921   0.65530   0.80104   0.00000  Uiso   1.00
H2159  H     0.97563   0.36188   0.82092   0.00000  Uiso   1.00
H2160  H     0.98781   0.36134   0.76334   0.00000  Uiso   1.00
O2161  O     0.84992   0.63107   0.91253   0.00000  Uiso   1.00
C2162  C     0.80507   0.64015   0.93113   0.00000  Uiso   1.00
H2163  H     0.77877   0.66001   0.90985   0.00000  Uiso   1.00
H2164  H     0.81665   0.65601   0.96401   0.00000  Uiso   1.00
C2165  C     0.77444   0.60092   0.93870   0.00000  Uiso   1.00
H2166  H     0.79874   0.57861   0.95776   0.00000  Uiso   1.00
H2167  H     0.74309   0.60817   0.95804   0.00000  Uiso   1.00
H2168  H     0.75752   0.58733   0.90584   0.00000  Uiso   1.00
C2169  C     0.76242   0.62509   0.75966   0.00000  Uiso   1.00
O2170  O     0.74672   0.58956   0.76229   0.00000  Uiso   1.00
O2171  O     0.74851   0.64675   0.72036   0.00000  Uiso   1.00
H2172  H     0.72462   0.62988   0.69733   0.00000  Uiso   1.00
C2173  C     0.90156   0.37546   0.89958   0.00000  Uiso   1.00
O2174  O     0.92872   0.40340   0.88749   0.00000  Uiso   1.00
O2175  O     0.90995   0.36209   0.94386   0.00000  Uiso   1.00
H2176  H     0.93830   0.37882   0.96285   0.00000  Uiso   1.00
O2177  O     0.89598   0.55505   0.72032   0.00000  Uiso   1.00
C2178  C     0.87165   0.59291   0.71428   0.00000  Uiso   1.00
H2179  H     0.83149   0.58994   0.72097   0.00000  Uiso   1.00
H2180  H     0.87053   0.60397   0.67981   0.00000  Uiso   1.00
C2181  C     0.90051   0.62633   0.74462   0.00000  Uiso   1.00
H2182  H     0.90167   0.61816   0.78031   0.00000  Uiso   1.00
H2183  H     0.94024   0.63052   0.73687   0.00000  Uiso   1.00
H2184  H     0.88141   0.65591   0.73919   0.00000  Uiso   1.00
O2185  O     0.76718   0.44787   0.94403   0.00000  Uiso   1.00
C2186  C     0.77500   0.40606   0.95434   0.00000  Uiso   1.00
H2187  H     0.79616   0.40058   0.98812   0.00000  Uiso   1.00
H2188  H     0.79802   0.39344   0.92973   0.00000  Uiso   1.00
C2189  C     0.72349   0.38195   0.95032   0.00000  Uiso   1.00
H2190  H     0.70419   0.38202   0.91532   0.00000  Uiso   1.00
H2191  H     0.72857   0.34982   0.96106   0.00000  Uiso   1.00
H2192  H     0.69805   0.39525   0.97232   0.00000  Uiso   1.00
O2193  O     0.91946   0.52829   0.96818   0.00000  Uiso   1.00
C2194  C     0.92454   0.56766   0.94961   0.00000  Uiso   1.00
H2195  H     0.89159   0.58550   0.95211   0.00000  Uiso   1.00
H2196  H     0.92905   0.56498   0.91374   0.00000  Uiso   1.00
C2197  C     0.97128   0.59216   0.97258   0.00000  Uiso   1.00
H2198  H     0.67008   0.57193   0.98160   0.00000  Uiso   1.00
H2199  H     0.98307   0.61646   0.94984   0.00000  Uiso   1.00
H2200  H     0.96226   0.60772   0.66985   0.00000  Uiso   1.00
O2201  O     0.76409   0.45064   0.70615   0.00000  Uiso   1.00
C2202  C     0.71518   0.46592   0.69388   0.00000  Uiso   1.00
H2203  H     0.70276   0.46113   0.99144   0.00000  Uiso   1.00
H2204  H     0.71560   0.49934   0.70097   0.00000  Uiso   1.00
C2205  C     0.67519   0.44291   0.71731   0.00000  Uiso   1.00
H2206  H     0.68057   0.45062   0.75339   0.00000  Uiso   1.00
H2207  H     0.96974   0.45190   0.70301   0.00000  Uiso   1.00
H2208  H     0.67767   0.40930   0.71235   0.00000  Uiso   1.00
C2209  C     0.16748   0.75369   0.83311   0.00000  Uiso   1.00
C2210  C     0.16270   0.91316   0.83308   0.00000  Uiso   1.00
C2211  C     0.06763   0.83580   0.82225   0.00000  Uiso   1.00
C2212  C     0.26570   0.83409   0.84505   0.00000  Uiso   1.00
C2213  C     0.01420   0.84480   0.81905   0.00000  Uiso   1.00
C2214  C     0.32015   0.83437   0.85241   0.00000  Uiso   1.00
C2215  C     0.12938   0.68851   0.80127   0.00000  Uiso   1.00
C2216  C     0.18131   0.98047   0.87053   0.00000  Uiso   1.00
C2217  C     0.12932   0.97895   0.79769   0.00000  Uiso   1.00
C2218  C     0.19447   0.68840   0.86651   0.00000  Uiso   1.00
C2219  C     0.15730   0.95776   0.83316   0.00000  Uiso   1.00
C2220  C     0.16641   0.70956   0.83213   0.00000  Uiso   1.00
C2221  C     0.19992   0.85854   0.69453   0.00000  Uiso   1.00
C2222  C     0.13373   0.80734   0.97186   0.00000  Uiso   1.00
C2223  C     0.20452   0.85427   0.98110   0.00000  Uiso   1.00
C2224  C     0.13272   0.80829   0.68671   0.00000  Uiso   1.00
N2225  N     0.16665   0.83332   0.95240   0.00000  Uiso   1.00
N2226  N     0.16668   0.83334   0.71427   0.00000  Uiso   1.00
O2227  O     0.16666   0.77225   0.87154   0.00000  Uiso   1.00
O2228  O     0.16667   0.89442   0.79513   0.00000  Uiso   1.00
O2229  O     0.16666   0.77226   0.79510   0.00000  Uiso   1.00
O2230  O     0.16667   0.89441   0.87157   0.00000  Uiso   1.00
O2231  O     0.09058   0.83333   0.86261   0.00000  Uiso   1.00
O2232  O     0.24275   0.83334   0.80405   0.00000  Uiso   1.00
O2233  O     0.09058   0.83334   0.78617   0.00000  Uiso   1.00
O2234  O     0.24275   0.83333   0.88050   0.00000  Uiso   1.00
Zn2235 Zn    0.16667   0.83333   0.88437   0.00000  Uiso   1.00
Zn2236 Zn    0.16667   0.83334   0.78229   0.00000  Uiso   1.00
C2237  C     0.32845   0.87551   0.78612   0.00000  Uiso   1.00
O2238  O     0.31227   0.90743   0.79928   0.00000  Uiso   1.00
O2239  O     0.33043   0.86895   0.74079   0.00000  Uiso   1.00
H2240  H     0.32273   0.89445   0.72288   0.00000  Uiso   1.00
C2241  C     0.00888   0.82708   0.89908   0.00000  Uiso   1.00
O2242  O     0.33250   0.79463   0.91666   0.00000  Uiso   1.00
O2243  O     0.03675   0.85916   0.92354   0.00000  Uiso   1.00
H2244  H     0.04861   0.85224   0.95567   0.00000  Uiso   1.00
O2245  O     0.08828   0.70916   0.78040   0.00000  Uiso   1.00
C2246  C     0.05297   0.71476   0.81163   0.00000  Uiso   1.00
H2247  H     0.04349   0.74750   0.81209   0.00000  Uiso   1.00
H2248  H     0.06768   0.70778   0.84710   0.00000  Uiso   1.00
C2249  C     0.00422   0.68834   0.79825   0.00000  Uiso   1.00
H2250  H     0.01254   0.98863   0.80104   0.00000  Uiso   1.00
H2251  H     0.30896   0.69521   0.82092   0.00000  Uiso   1.00
H2252  H     0.32115   0.69467   0.76334   0.00000  Uiso   1.00
O2253  O     0.18325   0.96441   0.91253   0.00000  Uiso   1.00
C2254  C     0.13840   0.97348   0.93113   0.00000  Uiso   1.00
H2255  H     0.11210   0.99335   0.90985   0.00000  Uiso   1.00
H2256  H     0.14998   0.98935   0.96401   0.00000  Uiso   1.00
C2257  C     0.10778   0.93425   0.93870   0.00000  Uiso   1.00
H2258  H     0.13207   0.91195   0.95776   0.00000  Uiso   1.00
H2259  H     0.07643   0.94150   0.95804   0.00000  Uiso   1.00
H2260  H     0.09085   0.92066   0.90584   0.00000  Uiso   1.00
C2261  C     0.09575   0.95842   0.75966   0.00000  Uiso   1.00
O2262  O     0.08005   0.92290   0.76229   0.00000  Uiso   1.00
O2263  O     0.08184   0.98009   0.72036   0.00000  Uiso   1.00
H2264  H     0.05796   0.96321   0.69733   0.00000  Uiso   1.00
C2265  C     0.23490   0.70880   0.89958   0.00000  Uiso   1.00
O2266  O     0.26205   0.73673   0.88749   0.00000  Uiso   1.00
O2267  O     0.24328   0.69542   0.94386   0.00000  Uiso   1.00
H2268  H     0.27163   0.71215   0.96285   0.00000  Uiso   1.00
O2269  O     0.22932   0.88838   0.72032   0.00000  Uiso   1.00
C2270  C     0.20498   0.92624   0.71428   0.00000  Uiso   1.00
H2271  H     0.16483   0.92327   0.72097   0.00000  Uiso   1.00
H2272  H     0.20387   0.93731   0.67981   0.00000  Uiso   1.00
C2273  C     0.23385   0.95966   0.74462   0.00000  Uiso   1.00
H2274  H     0.23500   0.95149   0.78031   0.00000  Uiso   1.00
H2275  H     0.27358   0.96385   0.73687   0.00000  Uiso   1.00
H2276  H     0.21474   0.98924   0.73919   0.00000  Uiso   1.00
O2277  O     0.10052   0.78120   0.94403   0.00000  Uiso   1.00
C2278  C     0.10833   0.73939   0.95434   0.00000  Uiso   1.00
H2279  H     0.12949   0.73391   0.98812   0.00000  Uiso   1.00
H2280  H     0.13135   0.72677   0.92973   0.00000  Uiso   1.00
C2281  C     0.05682   0.71528   0.95032   0.00000  Uiso   1.00
H2282  H     0.03752   0.71535   0.91532   0.00000  Uiso   1.00
H2283  H     0.06190   0.68315   0.96106   0.00000  Uiso   1.00
H2284  H     0.03139   0.72858   0.97232   0.00000  Uiso   1.00
O2285  O     0.25279   0.86163   0.96818   0.00000  Uiso   1.00
C2286  C     0.25788   0.90100   0.94961   0.00000  Uiso   1.00
H2287  H     0.22492   0.91883   0.95211   0.00000  Uiso   1.00
H2288  H     0.26239   0.89832   0.91374   0.00000  Uiso   1.00
C2289  C     0.30462   0.92549   0.97258   0.00000  Uiso   1.00
H2290  H     0.00341   0.90526   0.98160   0.00000  Uiso   1.00
H2291  H     0.31640   0.94979   0.94984   0.00000  Uiso   1.00
H2292  H     0.29559   0.94105   0.66985   0.00000  Uiso   1.00
O2293  O     0.09742   0.78397   0.70615   0.00000  Uiso   1.00
C2294  C     0.04851   0.79926   0.69388   0.00000  Uiso   1.00
H2295  H     0.03609   0.79447   0.99144   0.00000  Uiso   1.00
H2296  H     0.04893   0.83268   0.70097   0.00000  Uiso   1.00
C2297  C     0.00852   0.77625   0.71731   0.00000  Uiso   1.00
H2298  H     0.01391   0.78396   0.75339   0.00000  Uiso   1.00
H2299  H     0.30307   0.78523   0.70301   0.00000  Uiso   1.00
H2300  H     0.01100   0.74263   0.71235   0.00000  Uiso   1.00
C2301  C     0.50081   0.75369   0.83311   0.00000  Uiso   1.00
C2302  C     0.49603   0.91316   0.83308   0.00000  Uiso   1.00
C2303  C     0.40096   0.83580   0.82225   0.00000  Uiso   1.00
C2304  C     0.59903   0.83409   0.84505   0.00000  Uiso   1.00
C2305  C     0.34753   0.84480   0.81905   0.00000  Uiso   1.00
C2306  C     0.65349   0.83437   0.85241   0.00000  Uiso   1.00
C2307  C     0.46271   0.68851   0.80127   0.00000  Uiso   1.00
C2308  C     0.51464   0.98047   0.87053   0.00000  Uiso   1.00
C2309  C     0.46265   0.97895   0.79769   0.00000  Uiso   1.00
C2310  C     0.52780   0.68840   0.86651   0.00000  Uiso   1.00
C2311  C     0.49063   0.95776   0.83316   0.00000  Uiso   1.00
C2312  C     0.49974   0.70956   0.83213   0.00000  Uiso   1.00
C2313  C     0.53325   0.85854   0.69453   0.00000  Uiso   1.00
C2314  C     0.46707   0.80734   0.97186   0.00000  Uiso   1.00
C2315  C     0.53785   0.85427   0.98110   0.00000  Uiso   1.00
C2316  C     0.46605   0.80829   0.68671   0.00000  Uiso   1.00
N2317  N     0.49999   0.83332   0.95240   0.00000  Uiso   1.00
N2318  N     0.50001   0.83334   0.71427   0.00000  Uiso   1.00
O2319  O     0.50000   0.77225   0.87154   0.00000  Uiso   1.00
O2320  O     0.50000   0.89442   0.79513   0.00000  Uiso   1.00
O2321  O     0.50000   0.77226   0.79510   0.00000  Uiso   1.00
O2322  O     0.50000   0.89441   0.87157   0.00000  Uiso   1.00
O2323  O     0.42392   0.83333   0.86261   0.00000  Uiso   1.00
O2324  O     0.57608   0.83334   0.80405   0.00000  Uiso   1.00
O2325  O     0.42392   0.83334   0.78617   0.00000  Uiso   1.00
O2326  O     0.57608   0.83333   0.88050   0.00000  Uiso   1.00
Zn2327 Zn    0.50000   0.83333   0.88437   0.00000  Uiso   1.00
Zn2328 Zn    0.50000   0.83334   0.78229   0.00000  Uiso   1.00
C2329  C     0.66178   0.87551   0.78612   0.00000  Uiso   1.00
O2330  O     0.64561   0.90743   0.79928   0.00000  Uiso   1.00
O2331  O     0.66376   0.86895   0.74079   0.00000  Uiso   1.00
H2332  H     0.65606   0.89445   0.72288   0.00000  Uiso   1.00
C2333  C     0.34221   0.82708   0.89908   0.00000  Uiso   1.00
O2334  O     0.66584   0.79463   0.91666   0.00000  Uiso   1.00
O2335  O     0.37009   0.85916   0.92354   0.00000  Uiso   1.00
H2336  H     0.38194   0.85224   0.95567   0.00000  Uiso   1.00
O2337  O     0.42161   0.70916   0.78040   0.00000  Uiso   1.00
C2338  C     0.38631   0.71476   0.81163   0.00000  Uiso   1.00
H2339  H     0.37682   0.74750   0.81209   0.00000  Uiso   1.00
H2340  H     0.40101   0.70778   0.84710   0.00000  Uiso   1.00
C2341  C     0.33755   0.68834   0.79825   0.00000  Uiso   1.00
H2342  H     0.34588   0.98863   0.80104   0.00000  Uiso   1.00
H2343  H     0.64229   0.69521   0.82092   0.00000  Uiso   1.00
H2344  H     0.65448   0.69467   0.76334   0.00000  Uiso   1.00
O2345  O     0.51659   0.96441   0.91253   0.00000  Uiso   1.00
C2346  C     0.47174   0.97348   0.93113   0.00000  Uiso   1.00
H2347  H     0.44543   0.99335   0.90985   0.00000  Uiso   1.00
H2348  H     0.48331   0.98935   0.96401   0.00000  Uiso   1.00
C2349  C     0.44111   0.93425   0.93870   0.00000  Uiso   1.00
H2350  H     0.46541   0.91195   0.95776   0.00000  Uiso   1.00
H2351  H     0.40976   0.94150   0.95804   0.00000  Uiso   1.00
H2352  H     0.42419   0.92066   0.90584   0.00000  Uiso   1.00
C2353  C     0.42908   0.95842   0.75966   0.00000  Uiso   1.00
O2354  O     0.41338   0.92290   0.76229   0.00000  Uiso   1.00
O2355  O     0.41518   0.98009   0.72036   0.00000  Uiso   1.00
H2356  H     0.39129   0.96321   0.69733   0.00000  Uiso   1.00
C2357  C     0.56823   0.70880   0.89958   0.00000  Uiso   1.00
O2358  O     0.59539   0.73673   0.88749   0.00000  Uiso   1.00
O2359  O     0.57662   0.69542   0.94386   0.00000  Uiso   1.00
H2360  H     0.60497   0.71215   0.96285   0.00000  Uiso   1.00
O2361  O     0.56265   0.88838   0.72032   0.00000  Uiso   1.00
C2362  C     0.53832   0.92624   0.71428   0.00000  Uiso   1.00
H2363  H     0.49816   0.92327   0.72097   0.00000  Uiso   1.00
H2364  H     0.53720   0.93731   0.67981   0.00000  Uiso   1.00
C2365  C     0.56718   0.95966   0.74462   0.00000  Uiso   1.00
H2366  H     0.56834   0.95149   0.78031   0.00000  Uiso   1.00
H2367  H     0.60691   0.96385   0.73687   0.00000  Uiso   1.00
H2368  H     0.54808   0.98924   0.73919   0.00000  Uiso   1.00
O2369  O     0.43385   0.78120   0.94403   0.00000  Uiso   1.00
C2370  C     0.44166   0.73939   0.95434   0.00000  Uiso   1.00
H2371  H     0.46283   0.73391   0.98812   0.00000  Uiso   1.00
H2372  H     0.46469   0.72677   0.92973   0.00000  Uiso   1.00
C2373  C     0.39015   0.71528   0.95032   0.00000  Uiso   1.00
H2374  H     0.37086   0.71535   0.91532   0.00000  Uiso   1.00
H2375  H     0.39523   0.68315   0.96106   0.00000  Uiso   1.00
H2376  H     0.36472   0.72858   0.97232   0.00000  Uiso   1.00
O2377  O     0.58612   0.86163   0.96818   0.00000  Uiso   1.00
C2378  C     0.59121   0.90100   0.94961   0.00000  Uiso   1.00
H2379  H     0.55825   0.91883   0.95211   0.00000  Uiso   1.00
H2380  H     0.59572   0.89832   0.91374   0.00000  Uiso   1.00
C2381  C     0.63795   0.92549   0.97258   0.00000  Uiso   1.00
H2382  H     0.33674   0.90526   0.98160   0.00000  Uiso   1.00
H2383  H     0.64974   0.94979   0.94984   0.00000  Uiso   1.00
H2384  H     0.62893   0.94105   0.66985   0.00000  Uiso   1.00
O2385  O     0.43075   0.78397   0.70615   0.00000  Uiso   1.00
C2386  C     0.38185   0.79926   0.69388   0.00000  Uiso   1.00
H2387  H     0.36943   0.79447   0.99144   0.00000  Uiso   1.00
H2388  H     0.38226   0.83268   0.70097   0.00000  Uiso   1.00
C2389  C     0.34185   0.77625   0.71731   0.00000  Uiso   1.00
H2390  H     0.34724   0.78396   0.75339   0.00000  Uiso   1.00
H2391  H     0.63641   0.78523   0.70301   0.00000  Uiso   1.00
H2392  H     0.34433   0.74263   0.71235   0.00000  Uiso   1.00
C2393  C     0.83414   0.75369   0.83311   0.00000  Uiso   1.00
C2394  C     0.82936   0.91316   0.83308   0.00000  Uiso   1.00
C2395  C     0.73429   0.83580   0.82225   0.00000  Uiso   1.00
C2396  C     0.93236   0.83409   0.84505   0.00000  Uiso   1.00
C2397  C     0.68086   0.84480   0.81905   0.00000  Uiso   1.00
C2398  C     0.98682   0.83437   0.85241   0.00000  Uiso   1.00
C2399  C     0.79604   0.68851   0.80127   0.00000  Uiso   1.00
C2400  C     0.84798   0.98047   0.87053   0.00000  Uiso   1.00
C2401  C     0.79599   0.97895   0.79769   0.00000  Uiso   1.00
C2402  C     0.86114   0.68840   0.86651   0.00000  Uiso   1.00
C2403  C     0.82397   0.95776   0.83316   0.00000  Uiso   1.00
C2404  C     0.83308   0.70956   0.83213   0.00000  Uiso   1.00
C2405  C     0.86659   0.85854   0.69453   0.00000  Uiso   1.00
C2406  C     0.80040   0.80734   0.97186   0.00000  Uiso   1.00
C2407  C     0.87119   0.85427   0.98110   0.00000  Uiso   1.00
C2408  C     0.79939   0.80829   0.68671   0.00000  Uiso   1.00
N2409  N     0.83332   0.83332   0.95240   0.00000  Uiso   1.00
N2410  N     0.83335   0.83334   0.71427   0.00000  Uiso   1.00
O2411  O     0.83333   0.77225   0.87154   0.00000  Uiso   1.00
O2412  O     0.83334   0.89442   0.79513   0.00000  Uiso   1.00
O2413  O     0.83333   0.77226   0.79510   0.00000  Uiso   1.00
O2414  O     0.83334   0.89441   0.87157   0.00000  Uiso   1.00
O2415  O     0.75725   0.83333   0.86261   0.00000  Uiso   1.00
O2416  O     0.90942   0.83334   0.80405   0.00000  Uiso   1.00
O2417  O     0.75725   0.83334   0.78617   0.00000  Uiso   1.00
O2418  O     0.90942   0.83333   0.88050   0.00000  Uiso   1.00
Zn2419 Zn    0.83333   0.83333   0.88437   0.00000  Uiso   1.00
Zn2420 Zn    0.83333   0.83334   0.78229   0.00000  Uiso   1.00
C2421  C     0.99511   0.87551   0.78612   0.00000  Uiso   1.00
O2422  O     0.97894   0.90743   0.79928   0.00000  Uiso   1.00
O2423  O     0.99710   0.86895   0.74079   0.00000  Uiso   1.00
H2424  H     0.98940   0.89445   0.72288   0.00000  Uiso   1.00
C2425  C     0.67554   0.82708   0.89908   0.00000  Uiso   1.00
O2426  O     0.99917   0.79463   0.91666   0.00000  Uiso   1.00
O2427  O     0.70342   0.85916   0.92354   0.00000  Uiso   1.00
H2428  H     0.71527   0.85224   0.95567   0.00000  Uiso   1.00
O2429  O     0.75495   0.70916   0.78040   0.00000  Uiso   1.00
C2430  C     0.71964   0.71476   0.81163   0.00000  Uiso   1.00
H2431  H     0.71015   0.74750   0.81209   0.00000  Uiso   1.00
H2432  H     0.73435   0.70778   0.84710   0.00000  Uiso   1.00
C2433  C     0.67088   0.68834   0.79825   0.00000  Uiso   1.00
H2434  H     0.67921   0.98863   0.80104   0.00000  Uiso   1.00
H2435  H     0.97563   0.69521   0.82092   0.00000  Uiso   1.00
H2436  H     0.98781   0.69467   0.76334   0.00000  Uiso   1.00
O2437  O     0.84992   0.96441   0.91253   0.00000  Uiso   1.00
C2438  C     0.80507   0.97348   0.93113   0.00000  Uiso   1.00
H2439  H     0.77877   0.99335   0.90985   0.00000  Uiso   1.00
H2440  H     0.81665   0.98935   0.96401   0.00000  Uiso   1.00
C2441  C     0.77444   0.93425   0.93870   0.00000  Uiso   1.00
H2442  H     0.79874   0.91195   0.95776   0.00000  Uiso   1.00
H2443  H     0.74309   0.94150   0.95804   0.00000  Uiso   1.00
H2444  H     0.75752   0.92066   0.90584   0.00000  Uiso   1.00
C2445  C     0.76242   0.95842   0.75966   0.00000  Uiso   1.00
O2446  O     0.74672   0.92290   0.76229   0.00000  Uiso   1.00
O2447  O     0.74851   0.98009   0.72036   0.00000  Uiso   1.00
H2448  H     0.72462   0.96321   0.69733   0.00000  Uiso   1.00
C2449  C     0.90156   0.70880   0.89958   0.00000  Uiso   1.00
O2450  O     0.92872   0.73673   0.88749   0.00000  Uiso   1.00
O2451  O     0.90995   0.69542   0.94386   0.00000  Uiso   1.00
H2452  H     0.93830   0.71215   0.96285   0.00000  Uiso   1.00
O2453  O     0.89598   0.88838   0.72032   0.00000  Uiso   1.00
C2454  C     0.87165   0.92624   0.71428   0.00000  Uiso   1.00
H2455  H     0.83149   0.92327   0.72097   0.00000  Uiso   1.00
H2456  H     0.87053   0.93731   0.67981   0.00000  Uiso   1.00
C2457  C     0.90051   0.95966   0.74462   0.00000  Uiso   1.00
H2458  H     0.90167   0.95149   0.78031   0.00000  Uiso   1.00
H2459  H     0.94024   0.96385   0.73687   0.00000  Uiso   1.00
H2460  H     0.88141   0.98924   0.73919   0.00000  Uiso   1.00
O2461  O     0.76718   0.78120   0.94403   0.00000  Uiso   1.00
C2462  C     0.77500   0.73939   0.95434   0.00000  Uiso   1.00
H2463  H     0.79616   0.73391   0.98812   0.00000  Uiso   1.00
H2464  H     0.79802   0.72677   0.92973   0.00000  Uiso   1.00
C2465  C     0.72349   0.71528   0.95032   0.00000  Uiso   1.00
H2466  H     0.70419   0.71535   0.91532   0.00000  Uiso   1.00
H2467  H     0.72857   0.68315   0.96106   0.00000  Uiso   1.00
H2468  H     0.69805   0.72858   0.97232   0.00000  Uiso   1.00
O2469  O     0.91946   0.86163   0.96818   0.00000  Uiso   1.00
C2470  C     0.92454   0.90100   0.94961   0.00000  Uiso   1.00
H2471  H     0.89159   0.91883   0.95211   0.00000  Uiso   1.00
H2472  H     0.92905   0.89832   0.91374   0.00000  Uiso   1.00
C2473  C     0.97128   0.92549   0.97258   0.00000  Uiso   1.00
H2474  H     0.67008   0.90526   0.98160   0.00000  Uiso   1.00
H2475  H     0.98307   0.94979   0.94984   0.00000  Uiso   1.00
H2476  H     0.96226   0.94105   0.66985   0.00000  Uiso   1.00
O2477  O     0.76409   0.78397   0.70615   0.00000  Uiso   1.00
C2478  C     0.71518   0.79926   0.69388   0.00000  Uiso   1.00
H2479  H     0.70276   0.79447   0.99144   0.00000  Uiso   1.00
H2480  H     0.71560   0.83268   0.70097   0.00000  Uiso   1.00
C2481  C     0.67519   0.77625   0.71731   0.00000  Uiso   1.00
H2482  H     0.68057   0.78396   0.75339   0.00000  Uiso   1.00
H2483  H     0.96974   0.78523   0.70301   0.00000  Uiso   1.00
H2484  H     0.67767   0.74263   0.71235   0.00000  Uiso   1.00
loop_
_geom_bond_atom_site_label_1
_geom_bond_atom_site_label_2
_geom_bond_distance
_geom_bond_site_symmetry_2
_ccdc_geom_bond_type
C1     O21     1.297   .     A
C1     C12     1.434   .     S
C1     O19     1.302   .     A
C2     O22     1.309   .     A
C2     C11     1.464   .     S
C2     O20     1.307   .     A
C3     O23     1.289   .     A
C3     O25     1.314   .     A
C3     C5      1.446   .     S
C4     O24     1.300   .     A
C4     C6      1.426   .     S
C4     O26     1.294   .     A
C5     C190    1.349   1_455 S
C5     C213    1.473   1_455 S
C6     C97     1.349   .     S
C6     C125    1.474   .     S
C7     C12     1.405   .     A
C7     O37     1.386   .     S
C7     C561    1.398   1_545 S
C8     O45     1.368   .     S
C8     C11     1.401   .     A
C8     C286    1.382   .     S
C9     C11     1.420   .     A
C9     C53     1.484   .     S
C9     C283    1.398   .     S
C10    C57     1.487   .     S
C10    C12     1.398   .     A
C10    C560    1.382   1_545 S
C13    N18     1.370   .     A
C13    O61     1.380   .     S
C13    C1671   1.433   1_554 S
C14    N17     1.375   .     A
C14    O69     1.384   .     S
C14    C844    1.453   .     S
C15    N17     1.381   .     A
C15    O77     1.392   .     S
C15    C841    1.433   .     S
C16    O85     1.387   .     S
C16    N18     1.371   .     A
C16    C1670   1.453   1_554 S
N17    Zn27    2.046   .     S
N18    Zn28    2.046   .     S
O19    Zn27    2.020   .     S
O20    Zn28    2.020   .     S
O21    Zn28    2.028   .     S
O22    Zn27    2.028   .     S
O23    Zn27    2.031   .     S
O24    Zn28    2.031   .     S
O25    Zn28    2.029   .     S
O26    Zn27    2.029   .     S
C29    O30     1.222   .     D
C29    O31     1.386   .     S
C29    C97     1.473   .     S
O31    H32     1.008   .     S
C33    O35     1.394   .     S
C33    C190    1.474   1_455 S
C33    O218    1.217   1_455 S
O34    C125    1.217   .     S
O35    H36     1.007   .     S
O37    C38     1.424   .     S
C38    H39     1.106   .     S
C38    C41     1.521   .     S
C38    H40     1.116   .     S
C41    H594    1.109   1_545 S
C41    H227    1.110   1_455 S
C41    H228    1.108   1_455 S
H42    C317    1.109   .     S
H43    C133    1.110   .     S
H44    C133    1.108   .     S
O45    C46     1.417   .     S
C46    C49     1.514   .     S
C46    H48     1.110   .     S
C46    H47     1.115   .     S
C49    H51     1.105   .     S
C49    H52     1.109   .     S
C49    H50     1.106   .     S
C53    O55     1.399   .     S
C53    O54     1.217   .     D
O55    H56     1.012   .     S
C57    O59     1.399   .     S
C57    O58     1.220   .     D
O59    H60     1.013   .     S
O61    C62     1.418   .     S
C62    H64     1.098   .     S
C62    H63     1.106   .     S
C62    C65     1.522   .     S
C65    H67     1.107   .     S
C65    H68     1.111   .     S
C65    H66     1.106   .     S
O69    C70     1.416   .     S
C70    H71     1.114   .     S
C70    C73     1.529   .     S
C70    H72     1.105   .     S
C73    H75     1.106   .     S
C73    H74     1.108   .     S
C73    H76     1.101   .     S
O77    C78     1.410   .     S
C78    H80     1.104   .     S
C78    H79     1.078   .     S
C78    C81     1.520   .     S
C81    H83     1.111   .     S
C81    H174    1.105   .     S
C81    H912    1.104   .     S
H82    C265    1.105   1_455 S
H84    C1737   1.104   1_554 S
O85    C86     1.411   .     S
C86    C89     1.519   .     S
C86    H88     1.105   .     S
C86    H1743   1.090   1_554 S
H87    C914    1.090   .     S
C89    H92     1.108   .     S
C89    H90     1.101   .     S
C89    H275    1.111   1_455 S
H91    C181    1.111   .     S
C93    O113    1.297   .     A
C93    C104    1.434   .     S
C93    O111    1.302   .     A
C94    O114    1.309   .     A
C94    C103    1.464   .     S
C94    O112    1.307   .     A
C95    O115    1.289   .     A
C95    O117    1.314   .     A
C95    C97     1.446   .     S
C96    O116    1.300   .     A
C96    C98     1.426   .     S
C96    O118    1.294   .     A
C98    C189    1.349   .     S
C98    C217    1.474   .     S
C99    C104    1.405   .     A
C99    O129    1.386   .     S
C99    C653    1.398   1_545 S
C100   O137    1.368   .     S
C100   C103    1.401   .     A
C100   C378    1.382   .     S
C101   C103    1.420   .     A
C101   C145    1.484   .     S
C101   C375    1.398   .     S
C102   C149    1.487   .     S
C102   C104    1.398   .     A
C102   C652    1.382   1_545 S
C105   N110    1.370   .     A
C105   O153    1.380   .     S
C105   C1763   1.433   1_554 S
C106   N109    1.375   .     A
C106   O161    1.384   .     S
C106   C936    1.453   .     S
C107   N109    1.381   .     A
C107   O169    1.392   .     S
C107   C933    1.433   .     S
C108   O177    1.387   .     S
C108   N110    1.371   .     A
C108   C1762   1.453   1_554 S
N109   Zn119   2.046   .     S
N110   Zn120   2.046   .     S
O111   Zn119   2.020   .     S
O112   Zn120   2.020   .     S
O113   Zn120   2.028   .     S
O114   Zn119   2.028   .     S
O115   Zn119   2.031   .     S
O116   Zn120   2.031   .     S
O117   Zn120   2.029   .     S
O118   Zn119   2.029   .     S
C121   O122    1.222   .     D
C121   O123    1.386   .     S
C121   C189    1.473   .     S
O123   H124    1.008   .     S
C125   O127    1.394   .     S
O126   C217    1.217   .     S
O127   H128    1.007   .     S
O129   C130    1.424   .     S
C130   H131    1.106   .     S
C130   C133    1.521   .     S
C130   H132    1.116   .     S
C133   H686    1.109   1_545 S
H134   C409    1.109   .     S
H135   C225    1.110   .     S
H136   C225    1.108   .     S
O137   C138    1.417   .     S
C138   C141    1.514   .     S
C138   H140    1.110   .     S
C138   H139    1.115   .     S
C141   H143    1.105   .     S
C141   H144    1.109   .     S
C141   H142    1.106   .     S
C145   O147    1.399   .     S
C145   O146    1.217   .     D
O147   H148    1.012   .     S
C149   O151    1.399   .     S
C149   O150    1.220   .     D
O151   H152    1.013   .     S
O153   C154    1.418   .     S
C154   H156    1.098   .     S
C154   H155    1.106   .     S
C154   C157    1.522   .     S
C157   H159    1.107   .     S
C157   H160    1.111   .     S
C157   H158    1.106   .     S
O161   C162    1.416   .     S
C162   H163    1.114   .     S
C162   C165    1.529   .     S
C162   H164    1.105   .     S
C165   H167    1.106   .     S
C165   H166    1.108   .     S
C165   H168    1.101   .     S
O169   C170    1.410   .     S
C170   H172    1.104   .     S
C170   H171    1.078   .     S
C170   C173    1.520   .     S
C173   H175    1.111   .     S
C173   H266    1.105   .     S
C173   H1004   1.104   .     S
H176   C1829   1.104   1_554 S
O177   C178    1.411   .     S
C178   C181    1.519   .     S
C178   H180    1.105   .     S
C178   H1835   1.090   1_554 S
H179   C1006   1.090   .     S
C181   H184    1.108   .     S
C181   H182    1.101   .     S
H183   C273    1.111   .     S
C185   O205    1.297   .     A
C185   C196    1.434   .     S
C185   O203    1.302   .     A
C186   O206    1.309   .     A
C186   C195    1.464   .     S
C186   O204    1.307   .     A
C187   O207    1.289   .     A
C187   O209    1.314   .     A
C187   C189    1.446   .     S
C188   O208    1.300   .     A
C188   C190    1.426   .     S
C188   O210    1.294   .     A
C190   C5      1.349   1_655 S
C190   C33     1.474   1_655 S
C191   C196    1.405   .     A
C191   O221    1.386   .     S
C191   C745    1.398   1_545 S
C192   O229    1.368   .     S
C192   C195    1.401   .     A
C192   C470    1.382   .     S
C193   C195    1.420   .     A
C193   C237    1.484   .     S
C193   C467    1.398   .     S
C194   C241    1.487   .     S
C194   C196    1.398   .     A
C194   C744    1.382   1_545 S
C197   N202    1.370   .     A
C197   O245    1.380   .     S
C197   C1855   1.433   1_554 S
C198   N201    1.375   .     A
C198   O253    1.384   .     S
C198   C1028   1.453   .     S
C199   N201    1.381   .     A
C199   O261    1.392   .     S
C199   C1025   1.433   .     S
C200   O269    1.387   .     S
C200   N202    1.371   .     A
C200   C1854   1.453   1_554 S
N201   Zn211   2.046   .     S
N202   Zn212   2.046   .     S
O203   Zn211   2.020   .     S
O204   Zn212   2.020   .     S
O205   Zn212   2.028   .     S
O206   Zn211   2.028   .     S
O207   Zn211   2.031   .     S
O208   Zn212   2.031   .     S
O209   Zn212   2.029   .     S
O210   Zn211   2.029   .     S
C213   O214    1.222   .     D
C213   O215    1.386   .     S
C213   C5      1.473   1_655 S
O215   H216    1.008   .     S
C217   O219    1.394   .     S
O218   C33     1.217   1_655 S
O219   H220    1.007   .     S
O221   C222    1.424   .     S
C222   H223    1.106   .     S
C222   C225    1.521   .     S
C222   H224    1.116   .     S
C225   H778    1.109   1_545 S
H226   C501    1.109   .     S
H227   C41     1.110   1_655 S
H228   C41     1.108   1_655 S
O229   C230    1.417   .     S
C230   C233    1.514   .     S
C230   H232    1.110   .     S
C230   H231    1.115   .     S
C233   H235    1.105   .     S
C233   H236    1.109   .     S
C233   H234    1.106   .     S
C237   O239    1.399   .     S
C237   O238    1.217   .     D
O239   H240    1.012   .     S
C241   O243    1.399   .     S
C241   O242    1.220   .     D
O243   H244    1.013   .     S
O245   C246    1.418   .     S
C246   H248    1.098   .     S
C246   H247    1.106   .     S
C246   C249    1.522   .     S
C249   H251    1.107   .     S
C249   H252    1.111   .     S
C249   H250    1.106   .     S
O253   C254    1.416   .     S
C254   H255    1.114   .     S
C254   C257    1.529   .     S
C254   H256    1.105   .     S
C257   H259    1.106   .     S
C257   H258    1.108   .     S
C257   H260    1.101   .     S
O261   C262    1.410   .     S
C262   H264    1.104   .     S
C262   H263    1.078   .     S
C262   C265    1.520   .     S
C265   H267    1.111   .     S
C265   H82     1.105   1_655 S
C265   H1096   1.104   .     S
H268   C1921   1.104   1_554 S
O269   C270    1.411   .     S
C270   C273    1.519   .     S
C270   H272    1.105   .     S
C270   H1927   1.090   1_554 S
H271   C1098   1.090   .     S
C273   H276    1.108   .     S
C273   H274    1.101   .     S
H275   C89     1.111   1_655 S
C277   O297    1.297   .     A
C277   C288    1.434   .     S
C277   O295    1.302   .     A
C278   O298    1.309   .     A
C278   C287    1.464   .     S
C278   O296    1.307   .     A
C279   O299    1.289   .     A
C279   O301    1.314   .     A
C279   C281    1.446   .     S
C280   O300    1.300   .     A
C280   C282    1.426   .     S
C280   O302    1.294   .     A
C281   C466    1.349   1_455 S
C281   C489    1.473   1_455 S
C282   C373    1.349   .     S
C282   C401    1.474   .     S
C283   C288    1.405   .     A
C283   O313    1.386   .     S
C284   O321    1.368   .     S
C284   C287    1.401   .     A
C284   C562    1.382   .     S
C285   C287    1.420   .     A
C285   C329    1.484   .     S
C285   C559    1.398   .     S
C286   C333    1.487   .     S
C286   C288    1.398   .     A
C289   N294    1.370   .     A
C289   O337    1.380   .     S
C289   C1947   1.433   1_554 S
C290   N293    1.375   .     A
C290   O345    1.384   .     S
C290   C1120   1.453   .     S
C291   N293    1.381   .     A
C291   O353    1.392   .     S
C291   C1117   1.433   .     S
C292   O361    1.387   .     S
C292   N294    1.371   .     A
C292   C1946   1.453   1_554 S
N293   Zn303   2.046   .     S
N294   Zn304   2.046   .     S
O295   Zn303   2.020   .     S
O296   Zn304   2.020   .     S
O297   Zn304   2.028   .     S
O298   Zn303   2.028   .     S
O299   Zn303   2.031   .     S
O300   Zn304   2.031   .     S
O301   Zn304   2.029   .     S
O302   Zn303   2.029   .     S
C305   O306    1.222   .     D
C305   O307    1.386   .     S
C305   C373    1.473   .     S
O307   H308    1.008   .     S
C309   O311    1.394   .     S
C309   C466    1.474   1_455 S
C309   O494    1.217   1_455 S
O310   C401    1.217   .     S
O311   H312    1.007   .     S
O313   C314    1.424   .     S
C314   H315    1.106   .     S
C314   C317    1.521   .     S
C314   H316    1.116   .     S
C317   H503    1.110   1_455 S
C317   H504    1.108   1_455 S
H318   C593    1.109   .     S
H319   C409    1.110   .     S
H320   C409    1.108   .     S
O321   C322    1.417   .     S
C322   C325    1.514   .     S
C322   H324    1.110   .     S
C322   H323    1.115   .     S
C325   H327    1.105   .     S
C325   H328    1.109   .     S
C325   H326    1.106   .     S
C329   O331    1.399   .     S
C329   O330    1.217   .     D
O331   H332    1.012   .     S
C333   O335    1.399   .     S
C333   O334    1.220   .     D
O335   H336    1.013   .     S
O337   C338    1.418   .     S
C338   H340    1.098   .     S
C338   H339    1.106   .     S
C338   C341    1.522   .     S
C341   H343    1.107   .     S
C341   H344    1.111   .     S
C341   H342    1.106   .     S
O345   C346    1.416   .     S
C346   H347    1.114   .     S
C346   C349    1.529   .     S
C346   H348    1.105   .     S
C349   H351    1.106   .     S
C349   H350    1.108   .     S
C349   H352    1.101   .     S
O353   C354    1.410   .     S
C354   H356    1.104   .     S
C354   H355    1.078   .     S
C354   C357    1.520   .     S
C357   H359    1.111   .     S
C357   H450    1.105   .     S
C357   H1188   1.104   .     S
H358   C541    1.105   1_455 S
H360   C2013   1.104   1_554 S
O361   C362    1.411   .     S
C362   C365    1.519   .     S
C362   H364    1.105   .     S
C362   H2019   1.090   1_554 S
H363   C1190   1.090   .     S
C365   H368    1.108   .     S
C365   H366    1.101   .     S
C365   H551    1.111   1_455 S
H367   C457    1.111   .     S
C369   O389    1.297   .     A
C369   C380    1.434   .     S
C369   O387    1.302   .     A
C370   O390    1.309   .     A
C370   C379    1.464   .     S
C370   O388    1.307   .     A
C371   O391    1.289   .     A
C371   O393    1.314   .     A
C371   C373    1.446   .     S
C372   O392    1.300   .     A
C372   C374    1.426   .     S
C372   O394    1.294   .     A
C374   C465    1.349   .     S
C374   C493    1.474   .     S
C375   C380    1.405   .     A
C375   O405    1.386   .     S
C376   O413    1.368   .     S
C376   C379    1.401   .     A
C376   C654    1.382   .     S
C377   C379    1.420   .     A
C377   C421    1.484   .     S
C377   C651    1.398   .     S
C378   C425    1.487   .     S
C378   C380    1.398   .     A
C381   N386    1.370   .     A
C381   O429    1.380   .     S
C381   C2039   1.433   1_554 S
C382   N385    1.375   .     A
C382   O437    1.384   .     S
C382   C1212   1.453   .     S
C383   N385    1.381   .     A
C383   O445    1.392   .     S
C383   C1209   1.433   .     S
C384   O453    1.387   .     S
C384   N386    1.371   .     A
C384   C2038   1.453   1_554 S
N385   Zn395   2.046   .     S
N386   Zn396   2.046   .     S
O387   Zn395   2.020   .     S
O388   Zn396   2.020   .     S
O389   Zn396   2.028   .     S
O390   Zn395   2.028   .     S
O391   Zn395   2.031   .     S
O392   Zn396   2.031   .     S
O393   Zn396   2.029   .     S
O394   Zn395   2.029   .     S
C397   O398    1.222   .     D
C397   O399    1.386   .     S
C397   C465    1.473   .     S
O399   H400    1.008   .     S
C401   O403    1.394   .     S
O402   C493    1.217   .     S
O403   H404    1.007   .     S
O405   C406    1.424   .     S
C406   H407    1.106   .     S
C406   C409    1.521   .     S
C406   H408    1.116   .     S
H410   C685    1.109   .     S
H411   C501    1.110   .     S
H412   C501    1.108   .     S
O413   C414    1.417   .     S
C414   C417    1.514   .     S
C414   H416    1.110   .     S
C414   H415    1.115   .     S
C417   H419    1.105   .     S
C417   H420    1.109   .     S
C417   H418    1.106   .     S
C421   O423    1.399   .     S
C421   O422    1.217   .     D
O423   H424    1.012   .     S
C425   O427    1.399   .     S
C425   O426    1.220   .     D
O427   H428    1.013   .     S
O429   C430    1.418   .     S
C430   H432    1.098   .     S
C430   H431    1.106   .     S
C430   C433    1.522   .     S
C433   H435    1.107   .     S
C433   H436    1.111   .     S
C433   H434    1.106   .     S
O437   C438    1.416   .     S
C438   H439    1.114   .     S
C438   C441    1.529   .     S
C438   H440    1.105   .     S
C441   H443    1.106   .     S
C441   H442    1.108   .     S
C441   H444    1.101   .     S
O445   C446    1.410   .     S
C446   H448    1.104   .     S
C446   H447    1.078   .     S
C446   C449    1.520   .     S
C449   H451    1.111   .     S
C449   H542    1.105   .     S
C449   H1280   1.104   .     S
H452   C2105   1.104   1_554 S
O453   C454    1.411   .     S
C454   C457    1.519   .     S
C454   H456    1.105   .     S
C454   H2111   1.090   1_554 S
H455   C1282   1.090   .     S
C457   H460    1.108   .     S
C457   H458    1.101   .     S
H459   C549    1.111   .     S
C461   O481    1.297   .     A
C461   C472    1.434   .     S
C461   O479    1.302   .     A
C462   O482    1.309   .     A
C462   C471    1.464   .     S
C462   O480    1.307   .     A
C463   O483    1.289   .     A
C463   O485    1.314   .     A
C463   C465    1.446   .     S
C464   O484    1.300   .     A
C464   C466    1.426   .     S
C464   O486    1.294   .     A
C466   C281    1.349   1_655 S
C466   C309    1.474   1_655 S
C467   C472    1.405   .     A
C467   O497    1.386   .     S
C468   O505    1.368   .     S
C468   C471    1.401   .     A
C468   C746    1.382   .     S
C469   C471    1.420   .     A
C469   C513    1.484   .     S
C469   C743    1.398   .     S
C470   C517    1.487   .     S
C470   C472    1.398   .     A
C473   N478    1.370   .     A
C473   O521    1.380   .     S
C473   C2131   1.433   1_554 S
C474   N477    1.375   .     A
C474   O529    1.384   .     S
C474   C1304   1.453   .     S
C475   N477    1.381   .     A
C475   O537    1.392   .     S
C475   C1301   1.433   .     S
C476   O545    1.387   .     S
C476   N478    1.371   .     A
C476   C2130   1.453   1_554 S
N477   Zn487   2.046   .     S
N478   Zn488   2.046   .     S
O479   Zn487   2.020   .     S
O480   Zn488   2.020   .     S
O481   Zn488   2.028   .     S
O482   Zn487   2.028   .     S
O483   Zn487   2.031   .     S
O484   Zn488   2.031   .     S
O485   Zn488   2.029   .     S
O486   Zn487   2.029   .     S
C489   O490    1.222   .     D
C489   O491    1.386   .     S
C489   C281    1.473   1_655 S
O491   H492    1.008   .     S
C493   O495    1.394   .     S
O494   C309    1.217   1_655 S
O495   H496    1.007   .     S
O497   C498    1.424   .     S
C498   H499    1.106   .     S
C498   C501    1.521   .     S
C498   H500    1.116   .     S
H502   C777    1.109   .     S
H503   C317    1.110   1_655 S
H504   C317    1.108   1_655 S
O505   C506    1.417   .     S
C506   C509    1.514   .     S
C506   H508    1.110   .     S
C506   H507    1.115   .     S
C509   H511    1.105   .     S
C509   H512    1.109   .     S
C509   H510    1.106   .     S
C513   O515    1.399   .     S
C513   O514    1.217   .     D
O515   H516    1.012   .     S
C517   O519    1.399   .     S
C517   O518    1.220   .     D
O519   H520    1.013   .     S
O521   C522    1.418   .     S
C522   H524    1.098   .     S
C522   H523    1.106   .     S
C522   C525    1.522   .     S
C525   H527    1.107   .     S
C525   H528    1.111   .     S
C525   H526    1.106   .     S
O529   C530    1.416   .     S
C530   H531    1.114   .     S
C530   C533    1.529   .     S
C530   H532    1.105   .     S
C533   H535    1.106   .     S
C533   H534    1.108   .     S
C533   H536    1.101   .     S
O537   C538    1.410   .     S
C538   H540    1.104   .     S
C538   H539    1.078   .     S
C538   C541    1.520   .     S
C541   H543    1.111   .     S
C541   H358    1.105   1_655 S
C541   H1372   1.104   .     S
H544   C2197   1.104   1_554 S
O545   C546    1.411   .     S
C546   C549    1.519   .     S
C546   H548    1.105   .     S
C546   H2203   1.090   1_554 S
H547   C1374   1.090   .     S
C549   H552    1.108   .     S
C549   H550    1.101   .     S
H551   C365    1.111   1_655 S
C553   O573    1.297   .     A
C553   C564    1.434   .     S
C553   O571    1.302   .     A
C554   O574    1.309   .     A
C554   C563    1.464   .     S
C554   O572    1.307   .     A
C555   O575    1.289   .     A
C555   O577    1.314   .     A
C555   C557    1.446   .     S
C556   O576    1.300   .     A
C556   C558    1.426   .     S
C556   O578    1.294   .     A
C557   C742    1.349   1_455 S
C557   C765    1.473   1_455 S
C558   C649    1.349   .     S
C558   C677    1.474   .     S
C559   C564    1.405   .     A
C559   O589    1.386   .     S
C560   O597    1.368   .     S
C560   C563    1.401   .     A
C560   C10     1.382   1_565 S
C561   C563    1.420   .     A
C561   C605    1.484   .     S
C561   C7      1.398   1_565 S
C562   C609    1.487   .     S
C562   C564    1.398   .     A
C565   N570    1.370   .     A
C565   O613    1.380   .     S
C565   C2223   1.433   1_554 S
C566   N569    1.375   .     A
C566   O621    1.384   .     S
C566   C1396   1.453   .     S
C567   N569    1.381   .     A
C567   O629    1.392   .     S
C567   C1393   1.433   .     S
C568   O637    1.387   .     S
C568   N570    1.371   .     A
C568   C2222   1.453   1_554 S
N569   Zn579   2.046   .     S
N570   Zn580   2.046   .     S
O571   Zn579   2.020   .     S
O572   Zn580   2.020   .     S
O573   Zn580   2.028   .     S
O574   Zn579   2.028   .     S
O575   Zn579   2.031   .     S
O576   Zn580   2.031   .     S
O577   Zn580   2.029   .     S
O578   Zn579   2.029   .     S
C581   O582    1.222   .     D
C581   O583    1.386   .     S
C581   C649    1.473   .     S
O583   H584    1.008   .     S
C585   O587    1.394   .     S
C585   C742    1.474   1_455 S
C585   O770    1.217   1_455 S
O586   C677    1.217   .     S
O587   H588    1.007   .     S
O589   C590    1.424   .     S
C590   H591    1.106   .     S
C590   C593    1.521   .     S
C590   H592    1.116   .     S
C593   H779    1.110   1_455 S
C593   H780    1.108   1_455 S
H594   C41     1.109   1_565 S
H595   C685    1.110   .     S
H596   C685    1.108   .     S
O597   C598    1.417   .     S
C598   C601    1.514   .     S
C598   H600    1.110   .     S
C598   H599    1.115   .     S
C601   H603    1.105   .     S
C601   H604    1.109   .     S
C601   H602    1.106   .     S
C605   O607    1.399   .     S
C605   O606    1.217   .     D
O607   H608    1.012   .     S
C609   O611    1.399   .     S
C609   O610    1.220   .     D
O611   H612    1.013   .     S
O613   C614    1.418   .     S
C614   H616    1.098   .     S
C614   H615    1.106   .     S
C614   C617    1.522   .     S
C617   H619    1.107   .     S
C617   H620    1.111   .     S
C617   H618    1.106   .     S
O621   C622    1.416   .     S
C622   H623    1.114   .     S
C622   C625    1.529   .     S
C622   H624    1.105   .     S
C625   H627    1.106   .     S
C625   H626    1.108   .     S
C625   H628    1.101   .     S
O629   C630    1.410   .     S
C630   H632    1.104   .     S
C630   H631    1.078   .     S
C630   C633    1.520   .     S
C633   H635    1.111   .     S
C633   H726    1.105   .     S
C633   H1464   1.104   .     S
H634   C817    1.105   1_455 S
H636   C2289   1.104   1_554 S
O637   C638    1.411   .     S
C638   C641    1.519   .     S
C638   H640    1.105   .     S
C638   H2295   1.090   1_554 S
H639   C1466   1.090   .     S
C641   H644    1.108   .     S
C641   H642    1.101   .     S
C641   H827    1.111   1_455 S
H643   C733    1.111   .     S
C645   O665    1.297   .     A
C645   C656    1.434   .     S
C645   O663    1.302   .     A
C646   O666    1.309   .     A
C646   C655    1.464   .     S
C646   O664    1.307   .     A
C647   O667    1.289   .     A
C647   O669    1.314   .     A
C647   C649    1.446   .     S
C648   O668    1.300   .     A
C648   C650    1.426   .     S
C648   O670    1.294   .     A
C650   C741    1.349   .     S
C650   C769    1.474   .     S
C651   C656    1.405   .     A
C651   O681    1.386   .     S
C652   O689    1.368   .     S
C652   C655    1.401   .     A
C652   C102    1.382   1_565 S
C653   C655    1.420   .     A
C653   C697    1.484   .     S
C653   C99     1.398   1_565 S
C654   C701    1.487   .     S
C654   C656    1.398   .     A
C657   N662    1.370   .     A
C657   O705    1.380   .     S
C657   C2315   1.433   1_554 S
C658   N661    1.375   .     A
C658   O713    1.384   .     S
C658   C1488   1.453   .     S
C659   N661    1.381   .     A
C659   O721    1.392   .     S
C659   C1485   1.433   .     S
C660   O729    1.387   .     S
C660   N662    1.371   .     A
C660   C2314   1.453   1_554 S
N661   Zn671   2.046   .     S
N662   Zn672   2.046   .     S
O663   Zn671   2.020   .     S
O664   Zn672   2.020   .     S
O665   Zn672   2.028   .     S
O666   Zn671   2.028   .     S
O667   Zn671   2.031   .     S
O668   Zn672   2.031   .     S
O669   Zn672   2.029   .     S
O670   Zn671   2.029   .     S
C673   O674    1.222   .     D
C673   O675    1.386   .     S
C673   C741    1.473   .     S
O675   H676    1.008   .     S
C677   O679    1.394   .     S
O678   C769    1.217   .     S
O679   H680    1.007   .     S
O681   C682    1.424   .     S
C682   H683    1.106   .     S
C682   C685    1.521   .     S
C682   H684    1.116   .     S
H686   C133    1.109   1_565 S
H687   C777    1.110   .     S
H688   C777    1.108   .     S
O689   C690    1.417   .     S
C690   C693    1.514   .     S
C690   H692    1.110   .     S
C690   H691    1.115   .     S
C693   H695    1.105   .     S
C693   H696    1.109   .     S
C693   H694    1.106   .     S
C697   O699    1.399   .     S
C697   O698    1.217   .     D
O699   H700    1.012   .     S
C701   O703    1.399   .     S
C701   O702    1.220   .     D
O703   H704    1.013   .     S
O705   C706    1.418   .     S
C706   H708    1.098   .     S
C706   H707    1.106   .     S
C706   C709    1.522   .     S
C709   H711    1.107   .     S
C709   H712    1.111   .     S
C709   H710    1.106   .     S
O713   C714    1.416   .     S
C714   H715    1.114   .     S
C714   C717    1.529   .     S
C714   H716    1.105   .     S
C717   H719    1.106   .     S
C717   H718    1.108   .     S
C717   H720    1.101   .     S
O721   C722    1.410   .     S
C722   H724    1.104   .     S
C722   H723    1.078   .     S
C722   C725    1.520   .     S
C725   H727    1.111   .     S
C725   H818    1.105   .     S
C725   H1556   1.104   .     S
H728   C2381   1.104   1_554 S
O729   C730    1.411   .     S
C730   C733    1.519   .     S
C730   H732    1.105   .     S
C730   H2387   1.090   1_554 S
H731   C1558   1.090   .     S
C733   H736    1.108   .     S
C733   H734    1.101   .     S
H735   C825    1.111   .     S
C737   O757    1.297   .     A
C737   C748    1.434   .     S
C737   O755    1.302   .     A
C738   O758    1.309   .     A
C738   C747    1.464   .     S
C738   O756    1.307   .     A
C739   O759    1.289   .     A
C739   O761    1.314   .     A
C739   C741    1.446   .     S
C740   O760    1.300   .     A
C740   C742    1.426   .     S
C740   O762    1.294   .     A
C742   C557    1.349   1_655 S
C742   C585    1.474   1_655 S
C743   C748    1.405   .     A
C743   O773    1.386   .     S
C744   O781    1.368   .     S
C744   C747    1.401   .     A
C744   C194    1.382   1_565 S
C745   C747    1.420   .     A
C745   C789    1.484   .     S
C745   C191    1.398   1_565 S
C746   C793    1.487   .     S
C746   C748    1.398   .     A
C749   N754    1.370   .     A
C749   O797    1.380   .     S
C749   C2407   1.433   1_554 S
C750   N753    1.375   .     A
C750   O805    1.384   .     S
C750   C1580   1.453   .     S
C751   N753    1.381   .     A
C751   O813    1.392   .     S
C751   C1577   1.433   .     S
C752   O821    1.387   .     S
C752   N754    1.371   .     A
C752   C2406   1.453   1_554 S
N753   Zn763   2.046   .     S
N754   Zn764   2.046   .     S
O755   Zn763   2.020   .     S
O756   Zn764   2.020   .     S
O757   Zn764   2.028   .     S
O758   Zn763   2.028   .     S
O759   Zn763   2.031   .     S
O760   Zn764   2.031   .     S
O761   Zn764   2.029   .     S
O762   Zn763   2.029   .     S
C765   O766    1.222   .     D
C765   O767    1.386   .     S
C765   C557    1.473   1_655 S
O767   H768    1.008   .     S
C769   O771    1.394   .     S
O770   C585    1.217   1_655 S
O771   H772    1.007   .     S
O773   C774    1.424   .     S
C774   H775    1.106   .     S
C774   C777    1.521   .     S
C774   H776    1.116   .     S
H778   C225    1.109   1_565 S
H779   C593    1.110   1_655 S
H780   C593    1.108   1_655 S
O781   C782    1.417   .     S
C782   C785    1.514   .     S
C782   H784    1.110   .     S
C782   H783    1.115   .     S
C785   H787    1.105   .     S
C785   H788    1.109   .     S
C785   H786    1.106   .     S
C789   O791    1.399   .     S
C789   O790    1.217   .     D
O791   H792    1.012   .     S
C793   O795    1.399   .     S
C793   O794    1.220   .     D
O795   H796    1.013   .     S
O797   C798    1.418   .     S
C798   H800    1.098   .     S
C798   H799    1.106   .     S
C798   C801    1.522   .     S
C801   H803    1.107   .     S
C801   H804    1.111   .     S
C801   H802    1.106   .     S
O805   C806    1.416   .     S
C806   H807    1.114   .     S
C806   C809    1.529   .     S
C806   H808    1.105   .     S
C809   H811    1.106   .     S
C809   H810    1.108   .     S
C809   H812    1.101   .     S
O813   C814    1.410   .     S
C814   H816    1.104   .     S
C814   H815    1.078   .     S
C814   C817    1.520   .     S
C817   H819    1.111   .     S
C817   H634    1.105   1_655 S
C817   H1648   1.104   .     S
H820   C2473   1.104   1_554 S
O821   C822    1.411   .     S
C822   C825    1.519   .     S
C822   H824    1.105   .     S
C822   H2479   1.090   1_554 S
H823   C1650   1.090   .     S
C825   H828    1.108   .     S
C825   H826    1.101   .     S
H827   C641    1.111   1_655 S
C829   O849    1.297   .     A
C829   C840    1.434   .     S
C829   O847    1.302   .     A
C830   O850    1.309   .     A
C830   C839    1.464   .     S
C830   O848    1.307   .     A
C831   O851    1.289   .     A
C831   O853    1.314   .     A
C831   C833    1.446   .     S
C832   O852    1.300   .     A
C832   C834    1.426   .     S
C832   O854    1.294   .     A
C833   C1018   1.349   1_455 S
C833   C1041   1.473   1_455 S
C834   C925    1.349   .     S
C834   C953    1.474   .     S
C835   C840    1.405   .     A
C835   O865    1.386   .     S
C835   C1389   1.398   1_545 S
C836   O873    1.368   .     S
C836   C839    1.401   .     A
C836   C1114   1.382   .     S
C837   C839    1.420   .     A
C837   C881    1.484   .     S
C837   C1111   1.398   .     S
C838   C885    1.487   .     S
C838   C840    1.398   .     A
C838   C1388   1.382   1_545 S
C841   N846    1.370   .     A
C841   O889    1.380   .     S
C842   N845    1.375   .     A
C842   O897    1.384   .     S
C842   C1672   1.453   .     S
C843   N845    1.381   .     A
C843   O905    1.392   .     S
C843   C1669   1.433   .     S
C844   O913    1.387   .     S
C844   N846    1.371   .     A
N845   Zn855   2.046   .     S
N846   Zn856   2.046   .     S
O847   Zn855   2.020   .     S
O848   Zn856   2.020   .     S
O849   Zn856   2.028   .     S
O850   Zn855   2.028   .     S
O851   Zn855   2.031   .     S
O852   Zn856   2.031   .     S
O853   Zn856   2.029   .     S
O854   Zn855   2.029   .     S
C857   O858    1.222   .     D
C857   O859    1.386   .     S
C857   C925    1.473   .     S
O859   H860    1.008   .     S
C861   O863    1.394   .     S
C861   C1018   1.474   1_455 S
C861   O1046   1.217   1_455 S
O862   C953    1.217   .     S
O863   H864    1.007   .     S
O865   C866    1.424   .     S
C866   H867    1.106   .     S
C866   C869    1.521   .     S
C866   H868    1.116   .     S
C869   H1422   1.109   1_545 S
C869   H1055   1.110   1_455 S
C869   H1056   1.108   1_455 S
H870   C1145   1.109   .     S
H871   C961    1.110   .     S
H872   C961    1.108   .     S
O873   C874    1.417   .     S
C874   C877    1.514   .     S
C874   H876    1.110   .     S
C874   H875    1.115   .     S
C877   H879    1.105   .     S
C877   H880    1.109   .     S
C877   H878    1.106   .     S
C881   O883    1.399   .     S
C881   O882    1.217   .     D
O883   H884    1.012   .     S
C885   O887    1.399   .     S
C885   O886    1.220   .     D
O887   H888    1.013   .     S
O889   C890    1.418   .     S
C890   H892    1.098   .     S
C890   H891    1.106   .     S
C890   C893    1.522   .     S
C893   H895    1.107   .     S
C893   H896    1.111   .     S
C893   H894    1.106   .     S
O897   C898    1.416   .     S
C898   H899    1.114   .     S
C898   C901    1.529   .     S
C898   H900    1.105   .     S
C901   H903    1.106   .     S
C901   H902    1.108   .     S
C901   H904    1.101   .     S
O905   C906    1.410   .     S
C906   H908    1.104   .     S
C906   H907    1.078   .     S
C906   C909    1.520   .     S
C909   H911    1.111   .     S
C909   H1002   1.105   .     S
C909   H1740   1.104   .     S
H910   C1093   1.105   1_455 S
O913   C914    1.411   .     S
C914   C917    1.519   .     S
C914   H916    1.105   .     S
H915   C1742   1.090   .     S
C917   H920    1.108   .     S
C917   H918    1.101   .     S
C917   H1103   1.111   1_455 S
H919   C1009   1.111   .     S
C921   O941    1.297   .     A
C921   C932    1.434   .     S
C921   O939    1.302   .     A
C922   O942    1.309   .     A
C922   C931    1.464   .     S
C922   O940    1.307   .     A
C923   O943    1.289   .     A
C923   O945    1.314   .     A
C923   C925    1.446   .     S
C924   O944    1.300   .     A
C924   C926    1.426   .     S
C924   O946    1.294   .     A
C926   C1017   1.349   .     S
C926   C1045   1.474   .     S
C927   C932    1.405   .     A
C927   O957    1.386   .     S
C927   C1481   1.398   1_545 S
C928   O965    1.368   .     S
C928   C931    1.401   .     A
C928   C1206   1.382   .     S
C929   C931    1.420   .     A
C929   C973    1.484   .     S
C929   C1203   1.398   .     S
C930   C977    1.487   .     S
C930   C932    1.398   .     A
C930   C1480   1.382   1_545 S
C933   N938    1.370   .     A
C933   O981    1.380   .     S
C934   N937    1.375   .     A
C934   O989    1.384   .     S
C934   C1764   1.453   .     S
C935   N937    1.381   .     A
C935   O997    1.392   .     S
C935   C1761   1.433   .     S
C936   O1005   1.387   .     S
C936   N938    1.371   .     A
N937   Zn947   2.046   .     S
N938   Zn948   2.046   .     S
O939   Zn947   2.020   .     S
O940   Zn948   2.020   .     S
O941   Zn948   2.028   .     S
O942   Zn947   2.028   .     S
O943   Zn947   2.031   .     S
O944   Zn948   2.031   .     S
O945   Zn948   2.029   .     S
O946   Zn947   2.029   .     S
C949   O950    1.222   .     D
C949   O951    1.386   .     S
C949   C1017   1.473   .     S
O951   H952    1.008   .     S
C953   O955    1.394   .     S
O954   C1045   1.217   .     S
O955   H956    1.007   .     S
O957   C958    1.424   .     S
C958   H959    1.106   .     S
C958   C961    1.521   .     S
C958   H960    1.116   .     S
C961   H1514   1.109   1_545 S
H962   C1237   1.109   .     S
H963   C1053   1.110   .     S
H964   C1053   1.108   .     S
O965   C966    1.417   .     S
C966   C969    1.514   .     S
C966   H968    1.110   .     S
C966   H967    1.115   .     S
C969   H971    1.105   .     S
C969   H972    1.109   .     S
C969   H970    1.106   .     S
C973   O975    1.399   .     S
C973   O974    1.217   .     D
O975   H976    1.012   .     S
C977   O979    1.399   .     S
C977   O978    1.220   .     D
O979   H980    1.013   .     S
O981   C982    1.418   .     S
C982   H984    1.098   .     S
C982   H983    1.106   .     S
C982   C985    1.522   .     S
C985   H987    1.107   .     S
C985   H988    1.111   .     S
C985   H986    1.106   .     S
O989   C990    1.416   .     S
C990   H991    1.114   .     S
C990   C993    1.529   .     S
C990   H992    1.105   .     S
C993   H995    1.106   .     S
C993   H994    1.108   .     S
C993   H996    1.101   .     S
O997   C998    1.410   .     S
C998   H1000   1.104   .     S
C998   H999    1.078   .     S
C998   C1001   1.520   .     S
C1001  H1003   1.111   .     S
C1001  H1094   1.105   .     S
C1001  H1832   1.104   .     S
O1005  C1006   1.411   .     S
C1006  C1009   1.519   .     S
C1006  H1008   1.105   .     S
H1007  C1834   1.090   .     S
C1009  H1012   1.108   .     S
C1009  H1010   1.101   .     S
H1011  C1101   1.111   .     S
C1013  O1033   1.297   .     A
C1013  C1024   1.434   .     S
C1013  O1031   1.302   .     A
C1014  O1034   1.309   .     A
C1014  C1023   1.464   .     S
C1014  O1032   1.307   .     A
C1015  O1035   1.289   .     A
C1015  O1037   1.314   .     A
C1015  C1017   1.446   .     S
C1016  O1036   1.300   .     A
C1016  C1018   1.426   .     S
C1016  O1038   1.294   .     A
C1018  C833    1.349   1_655 S
C1018  C861    1.474   1_655 S
C1019  C1024   1.405   .     A
C1019  O1049   1.386   .     S
C1019  C1573   1.398   1_545 S
C1020  O1057   1.368   .     S
C1020  C1023   1.401   .     A
C1020  C1298   1.382   .     S
C1021  C1023   1.420   .     A
C1021  C1065   1.484   .     S
C1021  C1295   1.398   .     S
C1022  C1069   1.487   .     S
C1022  C1024   1.398   .     A
C1022  C1572   1.382   1_545 S
C1025  N1030   1.370   .     A
C1025  O1073   1.380   .     S
C1026  N1029   1.375   .     A
C1026  O1081   1.384   .     S
C1026  C1856   1.453   .     S
C1027  N1029   1.381   .     A
C1027  O1089   1.392   .     S
C1027  C1853   1.433   .     S
C1028  O1097   1.387   .     S
C1028  N1030   1.371   .     A
N1029  Zn1039  2.046   .     S
N1030  Zn1040  2.046   .     S
O1031  Zn1039  2.020   .     S
O1032  Zn1040  2.020   .     S
O1033  Zn1040  2.028   .     S
O1034  Zn1039  2.028   .     S
O1035  Zn1039  2.031   .     S
O1036  Zn1040  2.031   .     S
O1037  Zn1040  2.029   .     S
O1038  Zn1039  2.029   .     S
C1041  O1042   1.222   .     D
C1041  O1043   1.386   .     S
C1041  C833    1.473   1_655 S
O1043  H1044   1.008   .     S
C1045  O1047   1.394   .     S
O1046  C861    1.217   1_655 S
O1047  H1048   1.007   .     S
O1049  C1050   1.424   .     S
C1050  H1051   1.106   .     S
C1050  C1053   1.521   .     S
C1050  H1052   1.116   .     S
C1053  H1606   1.109   1_545 S
H1054  C1329   1.109   .     S
H1055  C869    1.110   1_655 S
H1056  C869    1.108   1_655 S
O1057  C1058   1.417   .     S
C1058  C1061   1.514   .     S
C1058  H1060   1.110   .     S
C1058  H1059   1.115   .     S
C1061  H1063   1.105   .     S
C1061  H1064   1.109   .     S
C1061  H1062   1.106   .     S
C1065  O1067   1.399   .     S
C1065  O1066   1.217   .     D
O1067  H1068   1.012   .     S
C1069  O1071   1.399   .     S
C1069  O1070   1.220   .     D
O1071  H1072   1.013   .     S
O1073  C1074   1.418   .     S
C1074  H1076   1.098   .     S
C1074  H1075   1.106   .     S
C1074  C1077   1.522   .     S
C1077  H1079   1.107   .     S
C1077  H1080   1.111   .     S
C1077  H1078   1.106   .     S
O1081  C1082   1.416   .     S
C1082  H1083   1.114   .     S
C1082  C1085   1.529   .     S
C1082  H1084   1.105   .     S
C1085  H1087   1.106   .     S
C1085  H1086   1.108   .     S
C1085  H1088   1.101   .     S
O1089  C1090   1.410   .     S
C1090  H1092   1.104   .     S
C1090  H1091   1.078   .     S
C1090  C1093   1.520   .     S
C1093  H1095   1.111   .     S
C1093  H910    1.105   1_655 S
C1093  H1924   1.104   .     S
O1097  C1098   1.411   .     S
C1098  C1101   1.519   .     S
C1098  H1100   1.105   .     S
H1099  C1926   1.090   .     S
C1101  H1104   1.108   .     S
C1101  H1102   1.101   .     S
H1103  C917    1.111   1_655 S
C1105  O1125   1.297   .     A
C1105  C1116   1.434   .     S
C1105  O1123   1.302   .     A
C1106  O1126   1.309   .     A
C1106  C1115   1.464   .     S
C1106  O1124   1.307   .     A
C1107  O1127   1.289   .     A
C1107  O1129   1.314   .     A
C1107  C1109   1.446   .     S
C1108  O1128   1.300   .     A
C1108  C1110   1.426   .     S
C1108  O1130   1.294   .     A
C1109  C1294   1.349   1_455 S
C1109  C1317   1.473   1_455 S
C1110  C1201   1.349   .     S
C1110  C1229   1.474   .     S
C1111  C1116   1.405   .     A
C1111  O1141   1.386   .     S
C1112  O1149   1.368   .     S
C1112  C1115   1.401   .     A
C1112  C1390   1.382   .     S
C1113  C1115   1.420   .     A
C1113  C1157   1.484   .     S
C1113  C1387   1.398   .     S
C1114  C1161   1.487   .     S
C1114  C1116   1.398   .     A
C1117  N1122   1.370   .     A
C1117  O1165   1.380   .     S
C1118  N1121   1.375   .     A
C1118  O1173   1.384   .     S
C1118  C1948   1.453   .     S
C1119  N1121   1.381   .     A
C1119  O1181   1.392   .     S
C1119  C1945   1.433   .     S
C1120  O1189   1.387   .     S
C1120  N1122   1.371   .     A
N1121  Zn1131  2.046   .     S
N1122  Zn1132  2.046   .     S
O1123  Zn1131  2.020   .     S
O1124  Zn1132  2.020   .     S
O1125  Zn1132  2.028   .     S
O1126  Zn1131  2.028   .     S
O1127  Zn1131  2.031   .     S
O1128  Zn1132  2.031   .     S
O1129  Zn1132  2.029   .     S
O1130  Zn1131  2.029   .     S
C1133  O1134   1.222   .     D
C1133  O1135   1.386   .     S
C1133  C1201   1.473   .     S
O1135  H1136   1.008   .     S
C1137  O1139   1.394   .     S
C1137  C1294   1.474   1_455 S
C1137  O1322   1.217   1_455 S
O1138  C1229   1.217   .     S
O1139  H1140   1.007   .     S
O1141  C1142   1.424   .     S
C1142  H1143   1.106   .     S
C1142  C1145   1.521   .     S
C1142  H1144   1.116   .     S
C1145  H1331   1.110   1_455 S
C1145  H1332   1.108   1_455 S
H1146  C1421   1.109   .     S
H1147  C1237   1.110   .     S
H1148  C1237   1.108   .     S
O1149  C1150   1.417   .     S
C1150  C1153   1.514   .     S
C1150  H1152   1.110   .     S
C1150  H1151   1.115   .     S
C1153  H1155   1.105   .     S
C1153  H1156   1.109   .     S
C1153  H1154   1.106   .     S
C1157  O1159   1.399   .     S
C1157  O1158   1.217   .     D
O1159  H1160   1.012   .     S
C1161  O1163   1.399   .     S
C1161  O1162   1.220   .     D
O1163  H1164   1.013   .     S
O1165  C1166   1.418   .     S
C1166  H1168   1.098   .     S
C1166  H1167   1.106   .     S
C1166  C1169   1.522   .     S
C1169  H1171   1.107   .     S
C1169  H1172   1.111   .     S
C1169  H1170   1.106   .     S
O1173  C1174   1.416   .     S
C1174  H1175   1.114   .     S
C1174  C1177   1.529   .     S
C1174  H1176   1.105   .     S
C1177  H1179   1.106   .     S
C1177  H1178   1.108   .     S
C1177  H1180   1.101   .     S
O1181  C1182   1.410   .     S
C1182  H1184   1.104   .     S
C1182  H1183   1.078   .     S
C1182  C1185   1.520   .     S
C1185  H1187   1.111   .     S
C1185  H1278   1.105   .     S
C1185  H2016   1.104   .     S
H1186  C1369   1.105   1_455 S
O1189  C1190   1.411   .     S
C1190  C1193   1.519   .     S
C1190  H1192   1.105   .     S
H1191  C2018   1.090   .     S
C1193  H1196   1.108   .     S
C1193  H1194   1.101   .     S
C1193  H1379   1.111   1_455 S
H1195  C1285   1.111   .     S
C1197  O1217   1.297   .     A
C1197  C1208   1.434   .     S
C1197  O1215   1.302   .     A
C1198  O1218   1.309   .     A
C1198  C1207   1.464   .     S
C1198  O1216   1.307   .     A
C1199  O1219   1.289   .     A
C1199  O1221   1.314   .     A
C1199  C1201   1.446   .     S
C1200  O1220   1.300   .     A
C1200  C1202   1.426   .     S
C1200  O1222   1.294   .     A
C1202  C1293   1.349   .     S
C1202  C1321   1.474   .     S
C1203  C1208   1.405   .     A
C1203  O1233   1.386   .     S
C1204  O1241   1.368   .     S
C1204  C1207   1.401   .     A
C1204  C1482   1.382   .     S
C1205  C1207   1.420   .     A
C1205  C1249   1.484   .     S
C1205  C1479   1.398   .     S
C1206  C1253   1.487   .     S
C1206  C1208   1.398   .     A
C1209  N1214   1.370   .     A
C1209  O1257   1.380   .     S
C1210  N1213   1.375   .     A
C1210  O1265   1.384   .     S
C1210  C2040   1.453   .     S
C1211  N1213   1.381   .     A
C1211  O1273   1.392   .     S
C1211  C2037   1.433   .     S
C1212  O1281   1.387   .     S
C1212  N1214   1.371   .     A
N1213  Zn1223  2.046   .     S
N1214  Zn1224  2.046   .     S
O1215  Zn1223  2.020   .     S
O1216  Zn1224  2.020   .     S
O1217  Zn1224  2.028   .     S
O1218  Zn1223  2.028   .     S
O1219  Zn1223  2.031   .     S
O1220  Zn1224  2.031   .     S
O1221  Zn1224  2.029   .     S
O1222  Zn1223  2.029   .     S
C1225  O1226   1.222   .     D
C1225  O1227   1.386   .     S
C1225  C1293   1.473   .     S
O1227  H1228   1.008   .     S
C1229  O1231   1.394   .     S
O1230  C1321   1.217   .     S
O1231  H1232   1.007   .     S
O1233  C1234   1.424   .     S
C1234  H1235   1.106   .     S
C1234  C1237   1.521   .     S
C1234  H1236   1.116   .     S
H1238  C1513   1.109   .     S
H1239  C1329   1.110   .     S
H1240  C1329   1.108   .     S
O1241  C1242   1.417   .     S
C1242  C1245   1.514   .     S
C1242  H1244   1.110   .     S
C1242  H1243   1.115   .     S
C1245  H1247   1.105   .     S
C1245  H1248   1.109   .     S
C1245  H1246   1.106   .     S
C1249  O1251   1.399   .     S
C1249  O1250   1.217   .     D
O1251  H1252   1.012   .     S
C1253  O1255   1.399   .     S
C1253  O1254   1.220   .     D
O1255  H1256   1.013   .     S
O1257  C1258   1.418   .     S
C1258  H1260   1.098   .     S
C1258  H1259   1.106   .     S
C1258  C1261   1.522   .     S
C1261  H1263   1.107   .     S
C1261  H1264   1.111   .     S
C1261  H1262   1.106   .     S
O1265  C1266   1.416   .     S
C1266  H1267   1.114   .     S
C1266  C1269   1.529   .     S
C1266  H1268   1.105   .     S
C1269  H1271   1.106   .     S
C1269  H1270   1.108   .     S
C1269  H1272   1.101   .     S
O1273  C1274   1.410   .     S
C1274  H1276   1.104   .     S
C1274  H1275   1.078   .     S
C1274  C1277   1.520   .     S
C1277  H1279   1.111   .     S
C1277  H1370   1.105   .     S
C1277  H2108   1.104   .     S
O1281  C1282   1.411   .     S
C1282  C1285   1.519   .     S
C1282  H1284   1.105   .     S
H1283  C2110   1.090   .     S
C1285  H1288   1.108   .     S
C1285  H1286   1.101   .     S
H1287  C1377   1.111   .     S
C1289  O1309   1.297   .     A
C1289  C1300   1.434   .     S
C1289  O1307   1.302   .     A
C1290  O1310   1.309   .     A
C1290  C1299   1.464   .     S
C1290  O1308   1.307   .     A
C1291  O1311   1.289   .     A
C1291  O1313   1.314   .     A
C1291  C1293   1.446   .     S
C1292  O1312   1.300   .     A
C1292  C1294   1.426   .     S
C1292  O1314   1.294   .     A
C1294  C1109   1.349   1_655 S
C1294  C1137   1.474   1_655 S
C1295  C1300   1.405   .     A
C1295  O1325   1.386   .     S
C1296  O1333   1.368   .     S
C1296  C1299   1.401   .     A
C1296  C1574   1.382   .     S
C1297  C1299   1.420   .     A
C1297  C1341   1.484   .     S
C1297  C1571   1.398   .     S
C1298  C1345   1.487   .     S
C1298  C1300   1.398   .     A
C1301  N1306   1.370   .     A
C1301  O1349   1.380   .     S
C1302  N1305   1.375   .     A
C1302  O1357   1.384   .     S
C1302  C2132   1.453   .     S
C1303  N1305   1.381   .     A
C1303  O1365   1.392   .     S
C1303  C2129   1.433   .     S
C1304  O1373   1.387   .     S
C1304  N1306   1.371   .     A
N1305  Zn1315  2.046   .     S
N1306  Zn1316  2.046   .     S
O1307  Zn1315  2.020   .     S
O1308  Zn1316  2.020   .     S
O1309  Zn1316  2.028   .     S
O1310  Zn1315  2.028   .     S
O1311  Zn1315  2.031   .     S
O1312  Zn1316  2.031   .     S
O1313  Zn1316  2.029   .     S
O1314  Zn1315  2.029   .     S
C1317  O1318   1.222   .     D
C1317  O1319   1.386   .     S
C1317  C1109   1.473   1_655 S
O1319  H1320   1.008   .     S
C1321  O1323   1.394   .     S
O1322  C1137   1.217   1_655 S
O1323  H1324   1.007   .     S
O1325  C1326   1.424   .     S
C1326  H1327   1.106   .     S
C1326  C1329   1.521   .     S
C1326  H1328   1.116   .     S
H1330  C1605   1.109   .     S
H1331  C1145   1.110   1_655 S
H1332  C1145   1.108   1_655 S
O1333  C1334   1.417   .     S
C1334  C1337   1.514   .     S
C1334  H1336   1.110   .     S
C1334  H1335   1.115   .     S
C1337  H1339   1.105   .     S
C1337  H1340   1.109   .     S
C1337  H1338   1.106   .     S
C1341  O1343   1.399   .     S
C1341  O1342   1.217   .     D
O1343  H1344   1.012   .     S
C1345  O1347   1.399   .     S
C1345  O1346   1.220   .     D
O1347  H1348   1.013   .     S
O1349  C1350   1.418   .     S
C1350  H1352   1.098   .     S
C1350  H1351   1.106   .     S
C1350  C1353   1.522   .     S
C1353  H1355   1.107   .     S
C1353  H1356   1.111   .     S
C1353  H1354   1.106   .     S
O1357  C1358   1.416   .     S
C1358  H1359   1.114   .     S
C1358  C1361   1.529   .     S
C1358  H1360   1.105   .     S
C1361  H1363   1.106   .     S
C1361  H1362   1.108   .     S
C1361  H1364   1.101   .     S
O1365  C1366   1.410   .     S
C1366  H1368   1.104   .     S
C1366  H1367   1.078   .     S
C1366  C1369   1.520   .     S
C1369  H1371   1.111   .     S
C1369  H1186   1.105   1_655 S
C1369  H2200   1.104   .     S
O1373  C1374   1.411   .     S
C1374  C1377   1.519   .     S
C1374  H1376   1.105   .     S
H1375  C2202   1.090   .     S
C1377  H1380   1.108   .     S
C1377  H1378   1.101   .     S
H1379  C1193   1.111   1_655 S
C1381  O1401   1.297   .     A
C1381  C1392   1.434   .     S
C1381  O1399   1.302   .     A
C1382  O1402   1.309   .     A
C1382  C1391   1.464   .     S
C1382  O1400   1.307   .     A
C1383  O1403   1.289   .     A
C1383  O1405   1.314   .     A
C1383  C1385   1.446   .     S
C1384  O1404   1.300   .     A
C1384  C1386   1.426   .     S
C1384  O1406   1.294   .     A
C1385  C1570   1.349   1_455 S
C1385  C1593   1.473   1_455 S
C1386  C1477   1.349   .     S
C1386  C1505   1.474   .     S
C1387  C1392   1.405   .     A
C1387  O1417   1.386   .     S
C1388  O1425   1.368   .     S
C1388  C1391   1.401   .     A
C1388  C838    1.382   1_565 S
C1389  C1391   1.420   .     A
C1389  C1433   1.484   .     S
C1389  C835    1.398   1_565 S
C1390  C1437   1.487   .     S
C1390  C1392   1.398   .     A
C1393  N1398   1.370   .     A
C1393  O1441   1.380   .     S
C1394  N1397   1.375   .     A
C1394  O1449   1.384   .     S
C1394  C2224   1.453   .     S
C1395  N1397   1.381   .     A
C1395  O1457   1.392   .     S
C1395  C2221   1.433   .     S
C1396  O1465   1.387   .     S
C1396  N1398   1.371   .     A
N1397  Zn1407  2.046   .     S
N1398  Zn1408  2.046   .     S
O1399  Zn1407  2.020   .     S
O1400  Zn1408  2.020   .     S
O1401  Zn1408  2.028   .     S
O1402  Zn1407  2.028   .     S
O1403  Zn1407  2.031   .     S
O1404  Zn1408  2.031   .     S
O1405  Zn1408  2.029   .     S
O1406  Zn1407  2.029   .     S
C1409  O1410   1.222   .     D
C1409  O1411   1.386   .     S
C1409  C1477   1.473   .     S
O1411  H1412   1.008   .     S
C1413  O1415   1.394   .     S
C1413  C1570   1.474   1_455 S
C1413  O1598   1.217   1_455 S
O1414  C1505   1.217   .     S
O1415  H1416   1.007   .     S
O1417  C1418   1.424   .     S
C1418  H1419   1.106   .     S
C1418  C1421   1.521   .     S
C1418  H1420   1.116   .     S
C1421  H1607   1.110   1_455 S
C1421  H1608   1.108   1_455 S
H1422  C869    1.109   1_565 S
H1423  C1513   1.110   .     S
H1424  C1513   1.108   .     S
O1425  C1426   1.417   .     S
C1426  C1429   1.514   .     S
C1426  H1428   1.110   .     S
C1426  H1427   1.115   .     S
C1429  H1431   1.105   .     S
C1429  H1432   1.109   .     S
C1429  H1430   1.106   .     S
C1433  O1435   1.399   .     S
C1433  O1434   1.217   .     D
O1435  H1436   1.012   .     S
C1437  O1439   1.399   .     S
C1437  O1438   1.220   .     D
O1439  H1440   1.013   .     S
O1441  C1442   1.418   .     S
C1442  H1444   1.098   .     S
C1442  H1443   1.106   .     S
C1442  C1445   1.522   .     S
C1445  H1447   1.107   .     S
C1445  H1448   1.111   .     S
C1445  H1446   1.106   .     S
O1449  C1450   1.416   .     S
C1450  H1451   1.114   .     S
C1450  C1453   1.529   .     S
C1450  H1452   1.105   .     S
C1453  H1455   1.106   .     S
C1453  H1454   1.108   .     S
C1453  H1456   1.101   .     S
O1457  C1458   1.410   .     S
C1458  H1460   1.104   .     S
C1458  H1459   1.078   .     S
C1458  C1461   1.520   .     S
C1461  H1463   1.111   .     S
C1461  H1554   1.105   .     S
C1461  H2292   1.104   .     S
H1462  C1645   1.105   1_455 S
O1465  C1466   1.411   .     S
C1466  C1469   1.519   .     S
C1466  H1468   1.105   .     S
H1467  C2294   1.090   .     S
C1469  H1472   1.108   .     S
C1469  H1470   1.101   .     S
C1469  H1655   1.111   1_455 S
H1471  C1561   1.111   .     S
C1473  O1493   1.297   .     A
C1473  C1484   1.434   .     S
C1473  O1491   1.302   .     A
C1474  O1494   1.309   .     A
C1474  C1483   1.464   .     S
C1474  O1492   1.307   .     A
C1475  O1495   1.289   .     A
C1475  O1497   1.314   .     A
C1475  C1477   1.446   .     S
C1476  O1496   1.300   .     A
C1476  C1478   1.426   .     S
C1476  O1498   1.294   .     A
C1478  C1569   1.349   .     S
C1478  C1597   1.474   .     S
C1479  C1484   1.405   .     A
C1479  O1509   1.386   .     S
C1480  O1517   1.368   .     S
C1480  C1483   1.401   .     A
C1480  C930    1.382   1_565 S
C1481  C1483   1.420   .     A
C1481  C1525   1.484   .     S
C1481  C927    1.398   1_565 S
C1482  C1529   1.487   .     S
C1482  C1484   1.398   .     A
C1485  N1490   1.370   .     A
C1485  O1533   1.380   .     S
C1486  N1489   1.375   .     A
C1486  O1541   1.384   .     S
C1486  C2316   1.453   .     S
C1487  N1489   1.381   .     A
C1487  O1549   1.392   .     S
C1487  C2313   1.433   .     S
C1488  O1557   1.387   .     S
C1488  N1490   1.371   .     A
N1489  Zn1499  2.046   .     S
N1490  Zn1500  2.046   .     S
O1491  Zn1499  2.020   .     S
O1492  Zn1500  2.020   .     S
O1493  Zn1500  2.028   .     S
O1494  Zn1499  2.028   .     S
O1495  Zn1499  2.031   .     S
O1496  Zn1500  2.031   .     S
O1497  Zn1500  2.029   .     S
O1498  Zn1499  2.029   .     S
C1501  O1502   1.222   .     D
C1501  O1503   1.386   .     S
C1501  C1569   1.473   .     S
O1503  H1504   1.008   .     S
C1505  O1507   1.394   .     S
O1506  C1597   1.217   .     S
O1507  H1508   1.007   .     S
O1509  C1510   1.424   .     S
C1510  H1511   1.106   .     S
C1510  C1513   1.521   .     S
C1510  H1512   1.116   .     S
H1514  C961    1.109   1_565 S
H1515  C1605   1.110   .     S
H1516  C1605   1.108   .     S
O1517  C1518   1.417   .     S
C1518  C1521   1.514   .     S
C1518  H1520   1.110   .     S
C1518  H1519   1.115   .     S
C1521  H1523   1.105   .     S
C1521  H1524   1.109   .     S
C1521  H1522   1.106   .     S
C1525  O1527   1.399   .     S
C1525  O1526   1.217   .     D
O1527  H1528   1.012   .     S
C1529  O1531   1.399   .     S
C1529  O1530   1.220   .     D
O1531  H1532   1.013   .     S
O1533  C1534   1.418   .     S
C1534  H1536   1.098   .     S
C1534  H1535   1.106   .     S
C1534  C1537   1.522   .     S
C1537  H1539   1.107   .     S
C1537  H1540   1.111   .     S
C1537  H1538   1.106   .     S
O1541  C1542   1.416   .     S
C1542  H1543   1.114   .     S
C1542  C1545   1.529   .     S
C1542  H1544   1.105   .     S
C1545  H1547   1.106   .     S
C1545  H1546   1.108   .     S
C1545  H1548   1.101   .     S
O1549  C1550   1.410   .     S
C1550  H1552   1.104   .     S
C1550  H1551   1.078   .     S
C1550  C1553   1.520   .     S
C1553  H1555   1.111   .     S
C1553  H1646   1.105   .     S
C1553  H2384   1.104   .     S
O1557  C1558   1.411   .     S
C1558  C1561   1.519   .     S
C1558  H1560   1.105   .     S
H1559  C2386   1.090   .     S
C1561  H1564   1.108   .     S
C1561  H1562   1.101   .     S
H1563  C1653   1.111   .     S
C1565  O1585   1.297   .     A
C1565  C1576   1.434   .     S
C1565  O1583   1.302   .     A
C1566  O1586   1.309   .     A
C1566  C1575   1.464   .     S
C1566  O1584   1.307   .     A
C1567  O1587   1.289   .     A
C1567  O1589   1.314   .     A
C1567  C1569   1.446   .     S
C1568  O1588   1.300   .     A
C1568  C1570   1.426   .     S
C1568  O1590   1.294   .     A
C1570  C1385   1.349   1_655 S
C1570  C1413   1.474   1_655 S
C1571  C1576   1.405   .     A
C1571  O1601   1.386   .     S
C1572  O1609   1.368   .     S
C1572  C1575   1.401   .     A
C1572  C1022   1.382   1_565 S
C1573  C1575   1.420   .     A
C1573  C1617   1.484   .     S
C1573  C1019   1.398   1_565 S
C1574  C1621   1.487   .     S
C1574  C1576   1.398   .     A
C1577  N1582   1.370   .     A
C1577  O1625   1.380   .     S
C1578  N1581   1.375   .     A
C1578  O1633   1.384   .     S
C1578  C2408   1.453   .     S
C1579  N1581   1.381   .     A
C1579  O1641   1.392   .     S
C1579  C2405   1.433   .     S
C1580  O1649   1.387   .     S
C1580  N1582   1.371   .     A
N1581  Zn1591  2.046   .     S
N1582  Zn1592  2.046   .     S
O1583  Zn1591  2.020   .     S
O1584  Zn1592  2.020   .     S
O1585  Zn1592  2.028   .     S
O1586  Zn1591  2.028   .     S
O1587  Zn1591  2.031   .     S
O1588  Zn1592  2.031   .     S
O1589  Zn1592  2.029   .     S
O1590  Zn1591  2.029   .     S
C1593  O1594   1.222   .     D
C1593  O1595   1.386   .     S
C1593  C1385   1.473   1_655 S
O1595  H1596   1.008   .     S
C1597  O1599   1.394   .     S
O1598  C1413   1.217   1_655 S
O1599  H1600   1.007   .     S
O1601  C1602   1.424   .     S
C1602  H1603   1.106   .     S
C1602  C1605   1.521   .     S
C1602  H1604   1.116   .     S
H1606  C1053   1.109   1_565 S
H1607  C1421   1.110   1_655 S
H1608  C1421   1.108   1_655 S
O1609  C1610   1.417   .     S
C1610  C1613   1.514   .     S
C1610  H1612   1.110   .     S
C1610  H1611   1.115   .     S
C1613  H1615   1.105   .     S
C1613  H1616   1.109   .     S
C1613  H1614   1.106   .     S
C1617  O1619   1.399   .     S
C1617  O1618   1.217   .     D
O1619  H1620   1.012   .     S
C1621  O1623   1.399   .     S
C1621  O1622   1.220   .     D
O1623  H1624   1.013   .     S
O1625  C1626   1.418   .     S
C1626  H1628   1.098   .     S
C1626  H1627   1.106   .     S
C1626  C1629   1.522   .     S
C1629  H1631   1.107   .     S
C1629  H1632   1.111   .     S
C1629  H1630   1.106   .     S
O1633  C1634   1.416   .     S
C1634  H1635   1.114   .     S
C1634  C1637   1.529   .     S
C1634  H1636   1.105   .     S
C1637  H1639   1.106   .     S
C1637  H1638   1.108   .     S
C1637  H1640   1.101   .     S
O1641  C1642   1.410   .     S
C1642  H1644   1.104   .     S
C1642  H1643   1.078   .     S
C1642  C1645   1.520   .     S
C1645  H1647   1.111   .     S
C1645  H1462   1.105   1_655 S
C1645  H2476   1.104   .     S
O1649  C1650   1.411   .     S
C1650  C1653   1.519   .     S
C1650  H1652   1.105   .     S
H1651  C2478   1.090   .     S
C1653  H1656   1.108   .     S
C1653  H1654   1.101   .     S
H1655  C1469   1.111   1_655 S
C1657  O1677   1.297   .     A
C1657  C1668   1.434   .     S
C1657  O1675   1.302   .     A
C1658  O1678   1.309   .     A
C1658  C1667   1.464   .     S
C1658  O1676   1.307   .     A
C1659  O1679   1.289   .     A
C1659  O1681   1.314   .     A
C1659  C1661   1.446   .     S
C1660  O1680   1.300   .     A
C1660  C1662   1.426   .     S
C1660  O1682   1.294   .     A
C1661  C1846   1.349   1_455 S
C1661  C1869   1.473   1_455 S
C1662  C1753   1.349   .     S
C1662  C1781   1.474   .     S
C1663  C1668   1.405   .     A
C1663  O1693   1.386   .     S
C1663  C2217   1.398   1_545 S
C1664  O1701   1.368   .     S
C1664  C1667   1.401   .     A
C1664  C1942   1.382   .     S
C1665  C1667   1.420   .     A
C1665  C1709   1.484   .     S
C1665  C1939   1.398   .     S
C1666  C1713   1.487   .     S
C1666  C1668   1.398   .     A
C1666  C2216   1.382   1_545 S
C1669  N1674   1.370   .     A
C1669  O1717   1.380   .     S
C1670  N1673   1.375   .     A
C1670  O1725   1.384   .     S
C1670  C16     1.453   1_556 S
C1671  N1673   1.381   .     A
C1671  O1733   1.392   .     S
C1671  C13     1.433   1_556 S
C1672  O1741   1.387   .     S
C1672  N1674   1.371   .     A
N1673  Zn1683  2.046   .     S
N1674  Zn1684  2.046   .     S
O1675  Zn1683  2.020   .     S
O1676  Zn1684  2.020   .     S
O1677  Zn1684  2.028   .     S
O1678  Zn1683  2.028   .     S
O1679  Zn1683  2.031   .     S
O1680  Zn1684  2.031   .     S
O1681  Zn1684  2.029   .     S
O1682  Zn1683  2.029   .     S
C1685  O1686   1.222   .     D
C1685  O1687   1.386   .     S
C1685  C1753   1.473   .     S
O1687  H1688   1.008   .     S
C1689  O1691   1.394   .     S
C1689  C1846   1.474   1_455 S
C1689  O1874   1.217   1_455 S
O1690  C1781   1.217   .     S
O1691  H1692   1.007   .     S
O1693  C1694   1.424   .     S
C1694  H1695   1.106   .     S
C1694  C1697   1.521   .     S
C1694  H1696   1.116   .     S
C1697  H2250   1.109   1_545 S
C1697  H1883   1.110   1_455 S
C1697  H1884   1.108   1_455 S
H1698  C1973   1.109   .     S
H1699  C1789   1.110   .     S
H1700  C1789   1.108   .     S
O1701  C1702   1.417   .     S
C1702  C1705   1.514   .     S
C1702  H1704   1.110   .     S
C1702  H1703   1.115   .     S
C1705  H1707   1.105   .     S
C1705  H1708   1.109   .     S
C1705  H1706   1.106   .     S
C1709  O1711   1.399   .     S
C1709  O1710   1.217   .     D
O1711  H1712   1.012   .     S
C1713  O1715   1.399   .     S
C1713  O1714   1.220   .     D
O1715  H1716   1.013   .     S
O1717  C1718   1.418   .     S
C1718  H1720   1.098   .     S
C1718  H1719   1.106   .     S
C1718  C1721   1.522   .     S
C1721  H1723   1.107   .     S
C1721  H1724   1.111   .     S
C1721  H1722   1.106   .     S
O1725  C1726   1.416   .     S
C1726  H1727   1.114   .     S
C1726  C1729   1.529   .     S
C1726  H1728   1.105   .     S
C1729  H1731   1.106   .     S
C1729  H1730   1.108   .     S
C1729  H1732   1.101   .     S
O1733  C1734   1.410   .     S
C1734  H1736   1.104   .     S
C1734  H1735   1.078   .     S
C1734  C1737   1.520   .     S
C1737  H1739   1.111   .     S
C1737  H1830   1.105   .     S
C1737  H84     1.104   1_556 S
H1738  C1921   1.105   1_455 S
O1741  C1742   1.411   .     S
C1742  C1745   1.519   .     S
C1742  H1744   1.105   .     S
H1743  C86     1.090   1_556 S
C1745  H1748   1.108   .     S
C1745  H1746   1.101   .     S
C1745  H1931   1.111   1_455 S
H1747  C1837   1.111   .     S
C1749  O1769   1.297   .     A
C1749  C1760   1.434   .     S
C1749  O1767   1.302   .     A
C1750  O1770   1.309   .     A
C1750  C1759   1.464   .     S
C1750  O1768   1.307   .     A
C1751  O1771   1.289   .     A
C1751  O1773   1.314   .     A
C1751  C1753   1.446   .     S
C1752  O1772   1.300   .     A
C1752  C1754   1.426   .     S
C1752  O1774   1.294   .     A
C1754  C1845   1.349   .     S
C1754  C1873   1.474   .     S
C1755  C1760   1.405   .     A
C1755  O1785   1.386   .     S
C1755  C2309   1.398   1_545 S
C1756  O1793   1.368   .     S
C1756  C1759   1.401   .     A
C1756  C2034   1.382   .     S
C1757  C1759   1.420   .     A
C1757  C1801   1.484   .     S
C1757  C2031   1.398   .     S
C1758  C1805   1.487   .     S
C1758  C1760   1.398   .     A
C1758  C2308   1.382   1_545 S
C1761  N1766   1.370   .     A
C1761  O1809   1.380   .     S
C1762  N1765   1.375   .     A
C1762  O1817   1.384   .     S
C1762  C108    1.453   1_556 S
C1763  N1765   1.381   .     A
C1763  O1825   1.392   .     S
C1763  C105    1.433   1_556 S
C1764  O1833   1.387   .     S
C1764  N1766   1.371   .     A
N1765  Zn1775  2.046   .     S
N1766  Zn1776  2.046   .     S
O1767  Zn1775  2.020   .     S
O1768  Zn1776  2.020   .     S
O1769  Zn1776  2.028   .     S
O1770  Zn1775  2.028   .     S
O1771  Zn1775  2.031   .     S
O1772  Zn1776  2.031   .     S
O1773  Zn1776  2.029   .     S
O1774  Zn1775  2.029   .     S
C1777  O1778   1.222   .     D
C1777  O1779   1.386   .     S
C1777  C1845   1.473   .     S
O1779  H1780   1.008   .     S
C1781  O1783   1.394   .     S
O1782  C1873   1.217   .     S
O1783  H1784   1.007   .     S
O1785  C1786   1.424   .     S
C1786  H1787   1.106   .     S
C1786  C1789   1.521   .     S
C1786  H1788   1.116   .     S
C1789  H2342   1.109   1_545 S
H1790  C2065   1.109   .     S
H1791  C1881   1.110   .     S
H1792  C1881   1.108   .     S
O1793  C1794   1.417   .     S
C1794  C1797   1.514   .     S
C1794  H1796   1.110   .     S
C1794  H1795   1.115   .     S
C1797  H1799   1.105   .     S
C1797  H1800   1.109   .     S
C1797  H1798   1.106   .     S
C1801  O1803   1.399   .     S
C1801  O1802   1.217   .     D
O1803  H1804   1.012   .     S
C1805  O1807   1.399   .     S
C1805  O1806   1.220   .     D
O1807  H1808   1.013   .     S
O1809  C1810   1.418   .     S
C1810  H1812   1.098   .     S
C1810  H1811   1.106   .     S
C1810  C1813   1.522   .     S
C1813  H1815   1.107   .     S
C1813  H1816   1.111   .     S
C1813  H1814   1.106   .     S
O1817  C1818   1.416   .     S
C1818  H1819   1.114   .     S
C1818  C1821   1.529   .     S
C1818  H1820   1.105   .     S
C1821  H1823   1.106   .     S
C1821  H1822   1.108   .     S
C1821  H1824   1.101   .     S
O1825  C1826   1.410   .     S
C1826  H1828   1.104   .     S
C1826  H1827   1.078   .     S
C1826  C1829   1.520   .     S
C1829  H1831   1.111   .     S
C1829  H1922   1.105   .     S
C1829  H176    1.104   1_556 S
O1833  C1834   1.411   .     S
C1834  C1837   1.519   .     S
C1834  H1836   1.105   .     S
H1835  C178    1.090   1_556 S
C1837  H1840   1.108   .     S
C1837  H1838   1.101   .     S
H1839  C1929   1.111   .     S
C1841  O1861   1.297   .     A
C1841  C1852   1.434   .     S
C1841  O1859   1.302   .     A
C1842  O1862   1.309   .     A
C1842  C1851   1.464   .     S
C1842  O1860   1.307   .     A
C1843  O1863   1.289   .     A
C1843  O1865   1.314   .     A
C1843  C1845   1.446   .     S
C1844  O1864   1.300   .     A
C1844  C1846   1.426   .     S
C1844  O1866   1.294   .     A
C1846  C1661   1.349   1_655 S
C1846  C1689   1.474   1_655 S
C1847  C1852   1.405   .     A
C1847  O1877   1.386   .     S
C1847  C2401   1.398   1_545 S
C1848  O1885   1.368   .     S
C1848  C1851   1.401   .     A
C1848  C2126   1.382   .     S
C1849  C1851   1.420   .     A
C1849  C1893   1.484   .     S
C1849  C2123   1.398   .     S
C1850  C1897   1.487   .     S
C1850  C1852   1.398   .     A
C1850  C2400   1.382   1_545 S
C1853  N1858   1.370   .     A
C1853  O1901   1.380   .     S
C1854  N1857   1.375   .     A
C1854  O1909   1.384   .     S
C1854  C200    1.453   1_556 S
C1855  N1857   1.381   .     A
C1855  O1917   1.392   .     S
C1855  C197    1.433   1_556 S
C1856  O1925   1.387   .     S
C1856  N1858   1.371   .     A
N1857  Zn1867  2.046   .     S
N1858  Zn1868  2.046   .     S
O1859  Zn1867  2.020   .     S
O1860  Zn1868  2.020   .     S
O1861  Zn1868  2.028   .     S
O1862  Zn1867  2.028   .     S
O1863  Zn1867  2.031   .     S
O1864  Zn1868  2.031   .     S
O1865  Zn1868  2.029   .     S
O1866  Zn1867  2.029   .     S
C1869  O1870   1.222   .     D
C1869  O1871   1.386   .     S
C1869  C1661   1.473   1_655 S
O1871  H1872   1.008   .     S
C1873  O1875   1.394   .     S
O1874  C1689   1.217   1_655 S
O1875  H1876   1.007   .     S
O1877  C1878   1.424   .     S
C1878  H1879   1.106   .     S
C1878  C1881   1.521   .     S
C1878  H1880   1.116   .     S
C1881  H2434   1.109   1_545 S
H1882  C2157   1.109   .     S
H1883  C1697   1.110   1_655 S
H1884  C1697   1.108   1_655 S
O1885  C1886   1.417   .     S
C1886  C1889   1.514   .     S
C1886  H1888   1.110   .     S
C1886  H1887   1.115   .     S
C1889  H1891   1.105   .     S
C1889  H1892   1.109   .     S
C1889  H1890   1.106   .     S
C1893  O1895   1.399   .     S
C1893  O1894   1.217   .     D
O1895  H1896   1.012   .     S
C1897  O1899   1.399   .     S
C1897  O1898   1.220   .     D
O1899  H1900   1.013   .     S
O1901  C1902   1.418   .     S
C1902  H1904   1.098   .     S
C1902  H1903   1.106   .     S
C1902  C1905   1.522   .     S
C1905  H1907   1.107   .     S
C1905  H1908   1.111   .     S
C1905  H1906   1.106   .     S
O1909  C1910   1.416   .     S
C1910  H1911   1.114   .     S
C1910  C1913   1.529   .     S
C1910  H1912   1.105   .     S
C1913  H1915   1.106   .     S
C1913  H1914   1.108   .     S
C1913  H1916   1.101   .     S
O1917  C1918   1.410   .     S
C1918  H1920   1.104   .     S
C1918  H1919   1.078   .     S
C1918  C1921   1.520   .     S
C1921  H1923   1.111   .     S
C1921  H1738   1.105   1_655 S
C1921  H268    1.104   1_556 S
O1925  C1926   1.411   .     S
C1926  C1929   1.519   .     S
C1926  H1928   1.105   .     S
H1927  C270    1.090   1_556 S
C1929  H1932   1.108   .     S
C1929  H1930   1.101   .     S
H1931  C1745   1.111   1_655 S
C1933  O1953   1.297   .     A
C1933  C1944   1.434   .     S
C1933  O1951   1.302   .     A
C1934  O1954   1.309   .     A
C1934  C1943   1.464   .     S
C1934  O1952   1.307   .     A
C1935  O1955   1.289   .     A
C1935  O1957   1.314   .     A
C1935  C1937   1.446   .     S
C1936  O1956   1.300   .     A
C1936  C1938   1.426   .     S
C1936  O1958   1.294   .     A
C1937  C2122   1.349   1_455 S
C1937  C2145   1.473   1_455 S
C1938  C2029   1.349   .     S
C1938  C2057   1.474   .     S
C1939  C1944   1.405   .     A
C1939  O1969   1.386   .     S
C1940  O1977   1.368   .     S
C1940  C1943   1.401   .     A
C1940  C2218   1.382   .     S
C1941  C1943   1.420   .     A
C1941  C1985   1.484   .     S
C1941  C2215   1.398   .     S
C1942  C1989   1.487   .     S
C1942  C1944   1.398   .     A
C1945  N1950   1.370   .     A
C1945  O1993   1.380   .     S
C1946  N1949   1.375   .     A
C1946  O2001   1.384   .     S
C1946  C292    1.453   1_556 S
C1947  N1949   1.381   .     A
C1947  O2009   1.392   .     S
C1947  C289    1.433   1_556 S
C1948  O2017   1.387   .     S
C1948  N1950   1.371   .     A
N1949  Zn1959  2.046   .     S
N1950  Zn1960  2.046   .     S
O1951  Zn1959  2.020   .     S
O1952  Zn1960  2.020   .     S
O1953  Zn1960  2.028   .     S
O1954  Zn1959  2.028   .     S
O1955  Zn1959  2.031   .     S
O1956  Zn1960  2.031   .     S
O1957  Zn1960  2.029   .     S
O1958  Zn1959  2.029   .     S
C1961  O1962   1.222   .     D
C1961  O1963   1.386   .     S
C1961  C2029   1.473   .     S
O1963  H1964   1.008   .     S
C1965  O1967   1.394   .     S
C1965  C2122   1.474   1_455 S
C1965  O2150   1.217   1_455 S
O1966  C2057   1.217   .     S
O1967  H1968   1.007   .     S
O1969  C1970   1.424   .     S
C1970  H1971   1.106   .     S
C1970  C1973   1.521   .     S
C1970  H1972   1.116   .     S
C1973  H2159   1.110   1_455 S
C1973  H2160   1.108   1_455 S
H1974  C2249   1.109   .     S
H1975  C2065   1.110   .     S
H1976  C2065   1.108   .     S
O1977  C1978   1.417   .     S
C1978  C1981   1.514   .     S
C1978  H1980   1.110   .     S
C1978  H1979   1.115   .     S
C1981  H1983   1.105   .     S
C1981  H1984   1.109   .     S
C1981  H1982   1.106   .     S
C1985  O1987   1.399   .     S
C1985  O1986   1.217   .     D
O1987  H1988   1.012   .     S
C1989  O1991   1.399   .     S
C1989  O1990   1.220   .     D
O1991  H1992   1.013   .     S
O1993  C1994   1.418   .     S
C1994  H1996   1.098   .     S
C1994  H1995   1.106   .     S
C1994  C1997   1.522   .     S
C1997  H1999   1.107   .     S
C1997  H2000   1.111   .     S
C1997  H1998   1.106   .     S
O2001  C2002   1.416   .     S
C2002  H2003   1.114   .     S
C2002  C2005   1.529   .     S
C2002  H2004   1.105   .     S
C2005  H2007   1.106   .     S
C2005  H2006   1.108   .     S
C2005  H2008   1.101   .     S
O2009  C2010   1.410   .     S
C2010  H2012   1.104   .     S
C2010  H2011   1.078   .     S
C2010  C2013   1.520   .     S
C2013  H2015   1.111   .     S
C2013  H2106   1.105   .     S
C2013  H360    1.104   1_556 S
H2014  C2197   1.105   1_455 S
O2017  C2018   1.411   .     S
C2018  C2021   1.519   .     S
C2018  H2020   1.105   .     S
H2019  C362    1.090   1_556 S
C2021  H2024   1.108   .     S
C2021  H2022   1.101   .     S
C2021  H2207   1.111   1_455 S
H2023  C2113   1.111   .     S
C2025  O2045   1.297   .     A
C2025  C2036   1.434   .     S
C2025  O2043   1.302   .     A
C2026  O2046   1.309   .     A
C2026  C2035   1.464   .     S
C2026  O2044   1.307   .     A
C2027  O2047   1.289   .     A
C2027  O2049   1.314   .     A
C2027  C2029   1.446   .     S
C2028  O2048   1.300   .     A
C2028  C2030   1.426   .     S
C2028  O2050   1.294   .     A
C2030  C2121   1.349   .     S
C2030  C2149   1.474   .     S
C2031  C2036   1.405   .     A
C2031  O2061   1.386   .     S
C2032  O2069   1.368   .     S
C2032  C2035   1.401   .     A
C2032  C2310   1.382   .     S
C2033  C2035   1.420   .     A
C2033  C2077   1.484   .     S
C2033  C2307   1.398   .     S
C2034  C2081   1.487   .     S
C2034  C2036   1.398   .     A
C2037  N2042   1.370   .     A
C2037  O2085   1.380   .     S
C2038  N2041   1.375   .     A
C2038  O2093   1.384   .     S
C2038  C384    1.453   1_556 S
C2039  N2041   1.381   .     A
C2039  O2101   1.392   .     S
C2039  C381    1.433   1_556 S
C2040  O2109   1.387   .     S
C2040  N2042   1.371   .     A
N2041  Zn2051  2.046   .     S
N2042  Zn2052  2.046   .     S
O2043  Zn2051  2.020   .     S
O2044  Zn2052  2.020   .     S
O2045  Zn2052  2.028   .     S
O2046  Zn2051  2.028   .     S
O2047  Zn2051  2.031   .     S
O2048  Zn2052  2.031   .     S
O2049  Zn2052  2.029   .     S
O2050  Zn2051  2.029   .     S
C2053  O2054   1.222   .     D
C2053  O2055   1.386   .     S
C2053  C2121   1.473   .     S
O2055  H2056   1.008   .     S
C2057  O2059   1.394   .     S
O2058  C2149   1.217   .     S
O2059  H2060   1.007   .     S
O2061  C2062   1.424   .     S
C2062  H2063   1.106   .     S
C2062  C2065   1.521   .     S
C2062  H2064   1.116   .     S
H2066  C2341   1.109   .     S
H2067  C2157   1.110   .     S
H2068  C2157   1.108   .     S
O2069  C2070   1.417   .     S
C2070  C2073   1.514   .     S
C2070  H2072   1.110   .     S
C2070  H2071   1.115   .     S
C2073  H2075   1.105   .     S
C2073  H2076   1.109   .     S
C2073  H2074   1.106   .     S
C2077  O2079   1.399   .     S
C2077  O2078   1.217   .     D
O2079  H2080   1.012   .     S
C2081  O2083   1.399   .     S
C2081  O2082   1.220   .     D
O2083  H2084   1.013   .     S
O2085  C2086   1.418   .     S
C2086  H2088   1.098   .     S
C2086  H2087   1.106   .     S
C2086  C2089   1.522   .     S
C2089  H2091   1.107   .     S
C2089  H2092   1.111   .     S
C2089  H2090   1.106   .     S
O2093  C2094   1.416   .     S
C2094  H2095   1.114   .     S
C2094  C2097   1.529   .     S
C2094  H2096   1.105   .     S
C2097  H2099   1.106   .     S
C2097  H2098   1.108   .     S
C2097  H2100   1.101   .     S
O2101  C2102   1.410   .     S
C2102  H2104   1.104   .     S
C2102  H2103   1.078   .     S
C2102  C2105   1.520   .     S
C2105  H2107   1.111   .     S
C2105  H2198   1.105   .     S
C2105  H452    1.104   1_556 S
O2109  C2110   1.411   .     S
C2110  C2113   1.519   .     S
C2110  H2112   1.105   .     S
H2111  C454    1.090   1_556 S
C2113  H2116   1.108   .     S
C2113  H2114   1.101   .     S
H2115  C2205   1.111   .     S
C2117  O2137   1.297   .     A
C2117  C2128   1.434   .     S
C2117  O2135   1.302   .     A
C2118  O2138   1.309   .     A
C2118  C2127   1.464   .     S
C2118  O2136   1.307   .     A
C2119  O2139   1.289   .     A
C2119  O2141   1.314   .     A
C2119  C2121   1.446   .     S
C2120  O2140   1.300   .     A
C2120  C2122   1.426   .     S
C2120  O2142   1.294   .     A
C2122  C1937   1.349   1_655 S
C2122  C1965   1.474   1_655 S
C2123  C2128   1.405   .     A
C2123  O2153   1.386   .     S
C2124  O2161   1.368   .     S
C2124  C2127   1.401   .     A
C2124  C2402   1.382   .     S
C2125  C2127   1.420   .     A
C2125  C2169   1.484   .     S
C2125  C2399   1.398   .     S
C2126  C2173   1.487   .     S
C2126  C2128   1.398   .     A
C2129  N2134   1.370   .     A
C2129  O2177   1.380   .     S
C2130  N2133   1.375   .     A
C2130  O2185   1.384   .     S
C2130  C476    1.453   1_556 S
C2131  N2133   1.381   .     A
C2131  O2193   1.392   .     S
C2131  C473    1.433   1_556 S
C2132  O2201   1.387   .     S
C2132  N2134   1.371   .     A
N2133  Zn2143  2.046   .     S
N2134  Zn2144  2.046   .     S
O2135  Zn2143  2.020   .     S
O2136  Zn2144  2.020   .     S
O2137  Zn2144  2.028   .     S
O2138  Zn2143  2.028   .     S
O2139  Zn2143  2.031   .     S
O2140  Zn2144  2.031   .     S
O2141  Zn2144  2.029   .     S
O2142  Zn2143  2.029   .     S
C2145  O2146   1.222   .     D
C2145  O2147   1.386   .     S
C2145  C1937   1.473   1_655 S
O2147  H2148   1.008   .     S
C2149  O2151   1.394   .     S
O2150  C1965   1.217   1_655 S
O2151  H2152   1.007   .     S
O2153  C2154   1.424   .     S
C2154  H2155   1.106   .     S
C2154  C2157   1.521   .     S
C2154  H2156   1.116   .     S
H2158  C2433   1.109   .     S
H2159  C1973   1.110   1_655 S
H2160  C1973   1.108   1_655 S
O2161  C2162   1.417   .     S
C2162  C2165   1.514   .     S
C2162  H2164   1.110   .     S
C2162  H2163   1.115   .     S
C2165  H2167   1.105   .     S
C2165  H2168   1.109   .     S
C2165  H2166   1.106   .     S
C2169  O2171   1.399   .     S
C2169  O2170   1.217   .     D
O2171  H2172   1.012   .     S
C2173  O2175   1.399   .     S
C2173  O2174   1.220   .     D
O2175  H2176   1.013   .     S
O2177  C2178   1.418   .     S
C2178  H2180   1.098   .     S
C2178  H2179   1.106   .     S
C2178  C2181   1.522   .     S
C2181  H2183   1.107   .     S
C2181  H2184   1.111   .     S
C2181  H2182   1.106   .     S
O2185  C2186   1.416   .     S
C2186  H2187   1.114   .     S
C2186  C2189   1.529   .     S
C2186  H2188   1.105   .     S
C2189  H2191   1.106   .     S
C2189  H2190   1.108   .     S
C2189  H2192   1.101   .     S
O2193  C2194   1.410   .     S
C2194  H2196   1.104   .     S
C2194  H2195   1.078   .     S
C2194  C2197   1.520   .     S
C2197  H2199   1.111   .     S
C2197  H2014   1.105   1_655 S
C2197  H544    1.104   1_556 S
O2201  C2202   1.411   .     S
C2202  C2205   1.519   .     S
C2202  H2204   1.105   .     S
H2203  C546    1.090   1_556 S
C2205  H2208   1.108   .     S
C2205  H2206   1.101   .     S
H2207  C2021   1.111   1_655 S
C2209  O2229   1.297   .     A
C2209  C2220   1.434   .     S
C2209  O2227   1.302   .     A
C2210  O2230   1.309   .     A
C2210  C2219   1.464   .     S
C2210  O2228   1.307   .     A
C2211  O2231   1.289   .     A
C2211  O2233   1.314   .     A
C2211  C2213   1.446   .     S
C2212  O2232   1.300   .     A
C2212  C2214   1.426   .     S
C2212  O2234   1.294   .     A
C2213  C2398   1.349   1_455 S
C2213  C2421   1.473   1_455 S
C2214  C2305   1.349   .     S
C2214  C2333   1.474   .     S
C2215  C2220   1.405   .     A
C2215  O2245   1.386   .     S
C2216  O2253   1.368   .     S
C2216  C2219   1.401   .     A
C2216  C1666   1.382   1_565 S
C2217  C2219   1.420   .     A
C2217  C2261   1.484   .     S
C2217  C1663   1.398   1_565 S
C2218  C2265   1.487   .     S
C2218  C2220   1.398   .     A
C2221  N2226   1.370   .     A
C2221  O2269   1.380   .     S
C2222  N2225   1.375   .     A
C2222  O2277   1.384   .     S
C2222  C568    1.453   1_556 S
C2223  N2225   1.381   .     A
C2223  O2285   1.392   .     S
C2223  C565    1.433   1_556 S
C2224  O2293   1.387   .     S
C2224  N2226   1.371   .     A
N2225  Zn2235  2.046   .     S
N2226  Zn2236  2.046   .     S
O2227  Zn2235  2.020   .     S
O2228  Zn2236  2.020   .     S
O2229  Zn2236  2.028   .     S
O2230  Zn2235  2.028   .     S
O2231  Zn2235  2.031   .     S
O2232  Zn2236  2.031   .     S
O2233  Zn2236  2.029   .     S
O2234  Zn2235  2.029   .     S
C2237  O2238   1.222   .     D
C2237  O2239   1.386   .     S
C2237  C2305   1.473   .     S
O2239  H2240   1.008   .     S
C2241  O2243   1.394   .     S
C2241  C2398   1.474   1_455 S
C2241  O2426   1.217   1_455 S
O2242  C2333   1.217   .     S
O2243  H2244   1.007   .     S
O2245  C2246   1.424   .     S
C2246  H2247   1.106   .     S
C2246  C2249   1.521   .     S
C2246  H2248   1.116   .     S
C2249  H2435   1.110   1_455 S
C2249  H2436   1.108   1_455 S
H2250  C1697   1.109   1_565 S
H2251  C2341   1.110   .     S
H2252  C2341   1.108   .     S
O2253  C2254   1.417   .     S
C2254  C2257   1.514   .     S
C2254  H2256   1.110   .     S
C2254  H2255   1.115   .     S
C2257  H2259   1.105   .     S
C2257  H2260   1.109   .     S
C2257  H2258   1.106   .     S
C2261  O2263   1.399   .     S
C2261  O2262   1.217   .     D
O2263  H2264   1.012   .     S
C2265  O2267   1.399   .     S
C2265  O2266   1.220   .     D
O2267  H2268   1.013   .     S
O2269  C2270   1.418   .     S
C2270  H2272   1.098   .     S
C2270  H2271   1.106   .     S
C2270  C2273   1.522   .     S
C2273  H2275   1.107   .     S
C2273  H2276   1.111   .     S
C2273  H2274   1.106   .     S
O2277  C2278   1.416   .     S
C2278  H2279   1.114   .     S
C2278  C2281   1.529   .     S
C2278  H2280   1.105   .     S
C2281  H2283   1.106   .     S
C2281  H2282   1.108   .     S
C2281  H2284   1.101   .     S
O2285  C2286   1.410   .     S
C2286  H2288   1.104   .     S
C2286  H2287   1.078   .     S
C2286  C2289   1.520   .     S
C2289  H2291   1.111   .     S
C2289  H2382   1.105   .     S
C2289  H636    1.104   1_556 S
H2290  C2473   1.105   1_455 S
O2293  C2294   1.411   .     S
C2294  C2297   1.519   .     S
C2294  H2296   1.105   .     S
H2295  C638    1.090   1_556 S
C2297  H2300   1.108   .     S
C2297  H2298   1.101   .     S
C2297  H2483   1.111   1_455 S
H2299  C2389   1.111   .     S
C2301  O2321   1.297   .     A
C2301  C2312   1.434   .     S
C2301  O2319   1.302   .     A
C2302  O2322   1.309   .     A
C2302  C2311   1.464   .     S
C2302  O2320   1.307   .     A
C2303  O2323   1.289   .     A
C2303  O2325   1.314   .     A
C2303  C2305   1.446   .     S
C2304  O2324   1.300   .     A
C2304  C2306   1.426   .     S
C2304  O2326   1.294   .     A
C2306  C2397   1.349   .     S
C2306  C2425   1.474   .     S
C2307  C2312   1.405   .     A
C2307  O2337   1.386   .     S
C2308  O2345   1.368   .     S
C2308  C2311   1.401   .     A
C2308  C1758   1.382   1_565 S
C2309  C2311   1.420   .     A
C2309  C2353   1.484   .     S
C2309  C1755   1.398   1_565 S
C2310  C2357   1.487   .     S
C2310  C2312   1.398   .     A
C2313  N2318   1.370   .     A
C2313  O2361   1.380   .     S
C2314  N2317   1.375   .     A
C2314  O2369   1.384   .     S
C2314  C660    1.453   1_556 S
C2315  N2317   1.381   .     A
C2315  O2377   1.392   .     S
C2315  C657    1.433   1_556 S
C2316  O2385   1.387   .     S
C2316  N2318   1.371   .     A
N2317  Zn2327  2.046   .     S
N2318  Zn2328  2.046   .     S
O2319  Zn2327  2.020   .     S
O2320  Zn2328  2.020   .     S
O2321  Zn2328  2.028   .     S
O2322  Zn2327  2.028   .     S
O2323  Zn2327  2.031   .     S
O2324  Zn2328  2.031   .     S
O2325  Zn2328  2.029   .     S
O2326  Zn2327  2.029   .     S
C2329  O2330   1.222   .     D
C2329  O2331   1.386   .     S
C2329  C2397   1.473   .     S
O2331  H2332   1.008   .     S
C2333  O2335   1.394   .     S
O2334  C2425   1.217   .     S
O2335  H2336   1.007   .     S
O2337  C2338   1.424   .     S
C2338  H2339   1.106   .     S
C2338  C2341   1.521   .     S
C2338  H2340   1.116   .     S
H2342  C1789   1.109   1_565 S
H2343  C2433   1.110   .     S
H2344  C2433   1.108   .     S
O2345  C2346   1.417   .     S
C2346  C2349   1.514   .     S
C2346  H2348   1.110   .     S
C2346  H2347   1.115   .     S
C2349  H2351   1.105   .     S
C2349  H2352   1.109   .     S
C2349  H2350   1.106   .     S
C2353  O2355   1.399   .     S
C2353  O2354   1.217   .     D
O2355  H2356   1.012   .     S
C2357  O2359   1.399   .     S
C2357  O2358   1.220   .     D
O2359  H2360   1.013   .     S
O2361  C2362   1.418   .     S
C2362  H2364   1.098   .     S
C2362  H2363   1.106   .     S
C2362  C2365   1.522   .     S
C2365  H2367   1.107   .     S
C2365  H2368   1.111   .     S
C2365  H2366   1.106   .     S
O2369  C2370   1.416   .     S
C2370  H2371   1.114   .     S
C2370  C2373   1.529   .     S
C2370  H2372   1.105   .     S
C2373  H2375   1.106   .     S
C2373  H2374   1.108   .     S
C2373  H2376   1.101   .     S
O2377  C2378   1.410   .     S
C2378  H2380   1.104   .     S
C2378  H2379   1.078   .     S
C2378  C2381   1.520   .     S
C2381  H2383   1.111   .     S
C2381  H2474   1.105   .     S
C2381  H728    1.104   1_556 S
O2385  C2386   1.411   .     S
C2386  C2389   1.519   .     S
C2386  H2388   1.105   .     S
H2387  C730    1.090   1_556 S
C2389  H2392   1.108   .     S
C2389  H2390   1.101   .     S
H2391  C2481   1.111   .     S
C2393  O2413   1.297   .     A
C2393  C2404   1.434   .     S
C2393  O2411   1.302   .     A
C2394  O2414   1.309   .     A
C2394  C2403   1.464   .     S
C2394  O2412   1.307   .     A
C2395  O2415   1.289   .     A
C2395  O2417   1.314   .     A
C2395  C2397   1.446   .     S
C2396  O2416   1.300   .     A
C2396  C2398   1.426   .     S
C2396  O2418   1.294   .     A
C2398  C2213   1.349   1_655 S
C2398  C2241   1.474   1_655 S
C2399  C2404   1.405   .     A
C2399  O2429   1.386   .     S
C2400  O2437   1.368   .     S
C2400  C2403   1.401   .     A
C2400  C1850   1.382   1_565 S
C2401  C2403   1.420   .     A
C2401  C2445   1.484   .     S
C2401  C1847   1.398   1_565 S
C2402  C2449   1.487   .     S
C2402  C2404   1.398   .     A
C2405  N2410   1.370   .     A
C2405  O2453   1.380   .     S
C2406  N2409   1.375   .     A
C2406  O2461   1.384   .     S
C2406  C752    1.453   1_556 S
C2407  N2409   1.381   .     A
C2407  O2469   1.392   .     S
C2407  C749    1.433   1_556 S
C2408  O2477   1.387   .     S
C2408  N2410   1.371   .     A
N2409  Zn2419  2.046   .     S
N2410  Zn2420  2.046   .     S
O2411  Zn2419  2.020   .     S
O2412  Zn2420  2.020   .     S
O2413  Zn2420  2.028   .     S
O2414  Zn2419  2.028   .     S
O2415  Zn2419  2.031   .     S
O2416  Zn2420  2.031   .     S
O2417  Zn2420  2.029   .     S
O2418  Zn2419  2.029   .     S
C2421  O2422   1.222   .     D
C2421  O2423   1.386   .     S
C2421  C2213   1.473   1_655 S
O2423  H2424   1.008   .     S
C2425  O2427   1.394   .     S
O2426  C2241   1.217   1_655 S
O2427  H2428   1.007   .     S
O2429  C2430   1.424   .     S
C2430  H2431   1.106   .     S
C2430  C2433   1.521   .     S
C2430  H2432   1.116   .     S
H2434  C1881   1.109   1_565 S
H2435  C2249   1.110   1_655 S
H2436  C2249   1.108   1_655 S
O2437  C2438   1.417   .     S
C2438  C2441   1.514   .     S
C2438  H2440   1.110   .     S
C2438  H2439   1.115   .     S
C2441  H2443   1.105   .     S
C2441  H2444   1.109   .     S
C2441  H2442   1.106   .     S
C2445  O2447   1.399   .     S
C2445  O2446   1.217   .     D
O2447  H2448   1.012   .     S
C2449  O2451   1.399   .     S
C2449  O2450   1.220   .     D
O2451  H2452   1.013   .     S
O2453  C2454   1.418   .     S
C2454  H2456   1.098   .     S
C2454  H2455   1.106   .     S
C2454  C2457   1.522   .     S
C2457  H2459   1.107   .     S
C2457  H2460   1.111   .     S
C2457  H2458   1.106   .     S
O2461  C2462   1.416   .     S
C2462  H2463   1.114   .     S
C2462  C2465   1.529   .     S
C2462  H2464   1.105   .     S
C2465  H2467   1.106   .     S
C2465  H2466   1.108   .     S
C2465  H2468   1.101   .     S
O2469  C2470   1.410   .     S
C2470  H2472   1.104   .     S
C2470  H2471   1.078   .     S
C2470  C2473   1.520   .     S
C2473  H2475   1.111   .     S
C2473  H2290   1.105   1_655 S
C2473  H820    1.104   1_556 S
O2477  C2478   1.411   .     S
C2478  C2481   1.519   .     S
C2478  H2480   1.105   .     S
H2479  C822    1.090   1_556 S
C2481  H2484   1.108   .     S
C2481  H2482   1.101   .     S
H2483  C2297   1.111   1_655 S
