data_str_m3_o10_o17_pcu_sym.18
_audit_creation_date              2020-01-03
_audit_creation_method            'Materials Studio'
_symmetry_space_group_name_H-M    'P1'
_symmetry_Int_Tables_number       1
_symmetry_cell_setting            triclinic
loop_
_symmetry_equiv_pos_as_xyz
  x,y,z
_cell_length_a                    23.4220
_cell_length_b                    25.8003
_cell_length_c                    29.9004
_cell_angle_alpha                 91.4947
_cell_angle_beta                  86.5304
_cell_angle_gamma                 92.6556
loop_
_atom_site_label
_atom_site_type_symbol
_atom_site_fract_x
_atom_site_fract_y
_atom_site_fract_z
_atom_site_U_iso_or_equiv
_atom_site_adp_type
_atom_site_occupancy
O1     O     0.12975   0.24619   0.25299   0.00000  Uiso   1.00
O2     O     0.20358   0.08714   0.24702   0.00000  Uiso   1.00
O3     O     0.22613   0.23721   0.24519   0.00000  Uiso   1.00
O4     O     0.10720   0.09613   0.25482   0.00000  Uiso   1.00
C5     C     0.18120   0.26457   0.24813   0.00000  Uiso   1.00
C6     C     0.15214   0.06876   0.25187   0.00000  Uiso   1.00
O7     O     0.11847   0.17117   0.31998   0.00000  Uiso   1.00
O8     O     0.21486   0.16216   0.18003   0.00000  Uiso   1.00
O9     O     0.21485   0.16219   0.31218   0.00000  Uiso   1.00
O10    O     0.11848   0.17115   0.18783   0.00000  Uiso   1.00
C11    C     0.16745   0.16614   0.33651   0.00000  Uiso   1.00
C12    C     0.16588   0.16719   0.16349   0.00000  Uiso   1.00
Zn13   Zn    0.10231   0.17266   0.25521   0.00000  Uiso   1.00
Zn14   Zn    0.23102   0.16067   0.24479   0.00000  Uiso   1.00
C15    C     0.11591   0.15133   0.09462   0.00000  Uiso   1.00
C16    C     0.21742   0.18200   0.40538   0.00000  Uiso   1.00
C17    C     0.16494   0.16880   0.11567   0.00000  Uiso   1.00
C18    C     0.16839   0.16453   0.38433   0.00000  Uiso   1.00
C19    C     0.21442   0.18621   0.09101   0.00000  Uiso   1.00
C20    C     0.11891   0.14712   0.40899   0.00000  Uiso   1.00
C21    C     0.21557   0.18540   0.04475   0.00000  Uiso   1.00
C22    C     0.11777   0.14793   0.45525   0.00000  Uiso   1.00
C23    C     0.16622   0.16738   0.02327   0.00000  Uiso   1.00
C24    C     0.16712   0.16595   0.47673   0.00000  Uiso   1.00
C25    C     0.11605   0.15058   0.04834   0.00000  Uiso   1.00
C26    C     0.21728   0.18275   0.45166   0.00000  Uiso   1.00
C27    C     0.26524   0.20190   0.01973   0.00000  Uiso   1.00
C28    C     0.06809   0.13143   0.48027   0.00000  Uiso   1.00
C29    C     0.26609   0.20060   0.47322   0.00000  Uiso   1.00
C30    C     0.06724   0.13274   0.02679   0.00000  Uiso   1.00
H31    H     0.07841   0.13691   0.11405   0.00000  Uiso   1.00
H32    H     0.25492   0.19642   0.38595   0.00000  Uiso   1.00
H33    H     0.25209   0.20019   0.10784   0.00000  Uiso   1.00
H34    H     0.08124   0.13314   0.39216   0.00000  Uiso   1.00
H35    H     0.30330   0.21567   0.03610   0.00000  Uiso   1.00
H36    H     0.03003   0.11767   0.46390   0.00000  Uiso   1.00
H37    H     0.30476   0.21347   0.45414   0.00000  Uiso   1.00
H38    H     0.02858   0.11987   0.04586   0.00000  Uiso   1.00
C39    C     0.18607   0.31782   0.23931   0.00000  Uiso   1.00
C40    C     0.14726   0.01551   0.26069   0.00000  Uiso   1.00
N41    N     0.31678   0.15265   0.23783   0.00000  Uiso   1.00
N42    N     0.01656   0.18068   0.26217   0.00000  Uiso   1.00
C43    C     0.22725   0.00045   0.20010   0.00000  Uiso   1.00
H44    H     0.24174   0.29954   0.17989   0.00000  Uiso   1.00
H45    H     0.20608   0.02541   0.17694   0.00000  Uiso   1.00
H46    H     0.26601   0.02099   0.21264   0.00000  Uiso   1.00
C47    C     0.10608   0.33288   0.29990   0.00000  Uiso   1.00
H48    H     0.09159   0.03379   0.32011   0.00000  Uiso   1.00
H49    H     0.06733   0.31234   0.28736   0.00000  Uiso   1.00
H50    H     0.12725   0.30792   0.32306   0.00000  Uiso   1.00
N51    N     0.00526   0.14536   0.19426   0.00000  Uiso   1.00
O52    O     0.00422   0.18311   0.16634   0.00000  Uiso   1.00
O53    O     0.01149   0.09833   0.17866   0.00000  Uiso   1.00
N54    N     0.32808   0.18797   0.30574   0.00000  Uiso   1.00
O55    O     0.32912   0.15023   0.33366   0.00000  Uiso   1.00
O56    O     0.32184   0.23500   0.32134   0.00000  Uiso   1.00
O57    O     0.46308   0.24619   0.25299   0.00000  Uiso   1.00
O58    O     0.53692   0.08714   0.24702   0.00000  Uiso   1.00
O59    O     0.55946   0.23721   0.24519   0.00000  Uiso   1.00
O60    O     0.44054   0.09613   0.25482   0.00000  Uiso   1.00
C61    C     0.51453   0.26457   0.24813   0.00000  Uiso   1.00
C62    C     0.48547   0.06876   0.25187   0.00000  Uiso   1.00
O63    O     0.45181   0.17117   0.31998   0.00000  Uiso   1.00
O64    O     0.54819   0.16216   0.18003   0.00000  Uiso   1.00
O65    O     0.54819   0.16219   0.31218   0.00000  Uiso   1.00
O66    O     0.45181   0.17115   0.18783   0.00000  Uiso   1.00
C67    C     0.50078   0.16614   0.33651   0.00000  Uiso   1.00
C68    C     0.49922   0.16719   0.16349   0.00000  Uiso   1.00
Zn69   Zn    0.43565   0.17266   0.25521   0.00000  Uiso   1.00
Zn70   Zn    0.56435   0.16067   0.24479   0.00000  Uiso   1.00
C71    C     0.44925   0.15133   0.09462   0.00000  Uiso   1.00
C72    C     0.55075   0.18200   0.40538   0.00000  Uiso   1.00
C73    C     0.49828   0.16880   0.11567   0.00000  Uiso   1.00
C74    C     0.50173   0.16453   0.38433   0.00000  Uiso   1.00
C75    C     0.54775   0.18621   0.09101   0.00000  Uiso   1.00
C76    C     0.45225   0.14712   0.40899   0.00000  Uiso   1.00
C77    C     0.54890   0.18540   0.04475   0.00000  Uiso   1.00
C78    C     0.45110   0.14793   0.45525   0.00000  Uiso   1.00
C79    C     0.49955   0.16738   0.02327   0.00000  Uiso   1.00
C80    C     0.50045   0.16595   0.47673   0.00000  Uiso   1.00
C81    C     0.44938   0.15058   0.04834   0.00000  Uiso   1.00
C82    C     0.55062   0.18275   0.45166   0.00000  Uiso   1.00
C83    C     0.59857   0.20190   0.01973   0.00000  Uiso   1.00
C84    C     0.40143   0.13143   0.48027   0.00000  Uiso   1.00
C85    C     0.59943   0.20060   0.47322   0.00000  Uiso   1.00
C86    C     0.40057   0.13274   0.02679   0.00000  Uiso   1.00
H87    H     0.41175   0.13691   0.11405   0.00000  Uiso   1.00
H88    H     0.58825   0.19642   0.38595   0.00000  Uiso   1.00
H89    H     0.58542   0.20019   0.10784   0.00000  Uiso   1.00
H90    H     0.41458   0.13314   0.39216   0.00000  Uiso   1.00
H91    H     0.63664   0.21567   0.03610   0.00000  Uiso   1.00
H92    H     0.36336   0.11767   0.46390   0.00000  Uiso   1.00
H93    H     0.63809   0.21347   0.45414   0.00000  Uiso   1.00
H94    H     0.36191   0.11987   0.04586   0.00000  Uiso   1.00
C95    C     0.51941   0.31782   0.23931   0.00000  Uiso   1.00
C96    C     0.48059   0.01551   0.26069   0.00000  Uiso   1.00
N97    N     0.65011   0.15265   0.23783   0.00000  Uiso   1.00
N98    N     0.34989   0.18068   0.26217   0.00000  Uiso   1.00
C99    C     0.56058   0.00045   0.20010   0.00000  Uiso   1.00
H100   H     0.57508   0.29954   0.17989   0.00000  Uiso   1.00
H101   H     0.53942   0.02541   0.17694   0.00000  Uiso   1.00
H102   H     0.59934   0.02099   0.21264   0.00000  Uiso   1.00
C103   C     0.43942   0.33288   0.29990   0.00000  Uiso   1.00
H104   H     0.42492   0.03379   0.32011   0.00000  Uiso   1.00
H105   H     0.40066   0.31234   0.28736   0.00000  Uiso   1.00
H106   H     0.46058   0.30792   0.32306   0.00000  Uiso   1.00
N107   N     0.33859   0.14536   0.19426   0.00000  Uiso   1.00
O108   O     0.33755   0.18311   0.16634   0.00000  Uiso   1.00
O109   O     0.34482   0.09833   0.17866   0.00000  Uiso   1.00
N110   N     0.66141   0.18797   0.30574   0.00000  Uiso   1.00
O111   O     0.66245   0.15023   0.33366   0.00000  Uiso   1.00
O112   O     0.65517   0.23500   0.32134   0.00000  Uiso   1.00
O113   O     0.79642   0.24619   0.25299   0.00000  Uiso   1.00
O114   O     0.87025   0.08714   0.24702   0.00000  Uiso   1.00
O115   O     0.89280   0.23721   0.24519   0.00000  Uiso   1.00
O116   O     0.77387   0.09613   0.25482   0.00000  Uiso   1.00
C117   C     0.84786   0.26457   0.24813   0.00000  Uiso   1.00
C118   C     0.81880   0.06876   0.25187   0.00000  Uiso   1.00
O119   O     0.78514   0.17117   0.31998   0.00000  Uiso   1.00
O120   O     0.88153   0.16216   0.18003   0.00000  Uiso   1.00
O121   O     0.88152   0.16219   0.31218   0.00000  Uiso   1.00
O122   O     0.78515   0.17115   0.18783   0.00000  Uiso   1.00
C123   C     0.83412   0.16614   0.33651   0.00000  Uiso   1.00
C124   C     0.83255   0.16719   0.16349   0.00000  Uiso   1.00
Zn125  Zn    0.76898   0.17266   0.25521   0.00000  Uiso   1.00
Zn126  Zn    0.89769   0.16067   0.24479   0.00000  Uiso   1.00
C127   C     0.78258   0.15133   0.09462   0.00000  Uiso   1.00
C128   C     0.88409   0.18200   0.40538   0.00000  Uiso   1.00
C129   C     0.83161   0.16880   0.11567   0.00000  Uiso   1.00
C130   C     0.83506   0.16453   0.38433   0.00000  Uiso   1.00
C131   C     0.88109   0.18621   0.09101   0.00000  Uiso   1.00
C132   C     0.78558   0.14712   0.40899   0.00000  Uiso   1.00
C133   C     0.88223   0.18540   0.04475   0.00000  Uiso   1.00
C134   C     0.78443   0.14793   0.45525   0.00000  Uiso   1.00
C135   C     0.83288   0.16738   0.02327   0.00000  Uiso   1.00
C136   C     0.83378   0.16595   0.47673   0.00000  Uiso   1.00
C137   C     0.78272   0.15058   0.04834   0.00000  Uiso   1.00
C138   C     0.88395   0.18275   0.45166   0.00000  Uiso   1.00
C139   C     0.93191   0.20190   0.01973   0.00000  Uiso   1.00
C140   C     0.73476   0.13143   0.48027   0.00000  Uiso   1.00
C141   C     0.93276   0.20060   0.47322   0.00000  Uiso   1.00
C142   C     0.73391   0.13274   0.02679   0.00000  Uiso   1.00
H143   H     0.74508   0.13691   0.11405   0.00000  Uiso   1.00
H144   H     0.92159   0.19642   0.38595   0.00000  Uiso   1.00
H145   H     0.91876   0.20019   0.10784   0.00000  Uiso   1.00
H146   H     0.74791   0.13314   0.39216   0.00000  Uiso   1.00
H147   H     0.96997   0.21567   0.03610   0.00000  Uiso   1.00
H148   H     0.69670   0.11767   0.46390   0.00000  Uiso   1.00
H149   H     0.97142   0.21347   0.45414   0.00000  Uiso   1.00
H150   H     0.69524   0.11987   0.04586   0.00000  Uiso   1.00
C151   C     0.85274   0.31782   0.23931   0.00000  Uiso   1.00
C152   C     0.81393   0.01551   0.26069   0.00000  Uiso   1.00
N153   N     0.98344   0.15265   0.23783   0.00000  Uiso   1.00
N154   N     0.68322   0.18068   0.26217   0.00000  Uiso   1.00
C155   C     0.89392   0.00045   0.20010   0.00000  Uiso   1.00
H156   H     0.90841   0.29954   0.17989   0.00000  Uiso   1.00
H157   H     0.87275   0.02541   0.17694   0.00000  Uiso   1.00
H158   H     0.93267   0.02099   0.21264   0.00000  Uiso   1.00
C159   C     0.77275   0.33288   0.29990   0.00000  Uiso   1.00
H160   H     0.75826   0.03379   0.32011   0.00000  Uiso   1.00
H161   H     0.73400   0.31234   0.28736   0.00000  Uiso   1.00
H162   H     0.79392   0.30792   0.32306   0.00000  Uiso   1.00
N163   N     0.67192   0.14536   0.19426   0.00000  Uiso   1.00
O164   O     0.67089   0.18311   0.16634   0.00000  Uiso   1.00
O165   O     0.67816   0.09833   0.17866   0.00000  Uiso   1.00
N166   N     0.99474   0.18797   0.30574   0.00000  Uiso   1.00
O167   O     0.99578   0.15023   0.33366   0.00000  Uiso   1.00
O168   O     0.98851   0.23500   0.32134   0.00000  Uiso   1.00
O169   O     0.12975   0.57952   0.25299   0.00000  Uiso   1.00
O170   O     0.20358   0.42048   0.24702   0.00000  Uiso   1.00
O171   O     0.22613   0.57054   0.24519   0.00000  Uiso   1.00
O172   O     0.10720   0.42946   0.25482   0.00000  Uiso   1.00
C173   C     0.18120   0.59790   0.24813   0.00000  Uiso   1.00
C174   C     0.15214   0.40210   0.25187   0.00000  Uiso   1.00
O175   O     0.11847   0.50450   0.31998   0.00000  Uiso   1.00
O176   O     0.21486   0.49550   0.18003   0.00000  Uiso   1.00
O177   O     0.21485   0.49552   0.31218   0.00000  Uiso   1.00
O178   O     0.11848   0.50448   0.18783   0.00000  Uiso   1.00
C179   C     0.16745   0.49948   0.33651   0.00000  Uiso   1.00
C180   C     0.16588   0.50052   0.16349   0.00000  Uiso   1.00
Zn181  Zn    0.10231   0.50600   0.25521   0.00000  Uiso   1.00
Zn182  Zn    0.23102   0.49400   0.24479   0.00000  Uiso   1.00
C183   C     0.11591   0.48466   0.09462   0.00000  Uiso   1.00
C184   C     0.21742   0.51534   0.40538   0.00000  Uiso   1.00
C185   C     0.16494   0.50214   0.11567   0.00000  Uiso   1.00
C186   C     0.16839   0.49786   0.38433   0.00000  Uiso   1.00
C187   C     0.21442   0.51955   0.09101   0.00000  Uiso   1.00
C188   C     0.11891   0.48045   0.40899   0.00000  Uiso   1.00
C189   C     0.21557   0.51874   0.04475   0.00000  Uiso   1.00
C190   C     0.11777   0.48126   0.45525   0.00000  Uiso   1.00
C191   C     0.16622   0.50071   0.02327   0.00000  Uiso   1.00
C192   C     0.16712   0.49929   0.47673   0.00000  Uiso   1.00
C193   C     0.11605   0.48391   0.04834   0.00000  Uiso   1.00
C194   C     0.21728   0.51609   0.45166   0.00000  Uiso   1.00
C195   C     0.26524   0.53524   0.01973   0.00000  Uiso   1.00
C196   C     0.06809   0.46476   0.48027   0.00000  Uiso   1.00
C197   C     0.26609   0.53393   0.47322   0.00000  Uiso   1.00
C198   C     0.06724   0.46607   0.02679   0.00000  Uiso   1.00
H199   H     0.07841   0.47024   0.11405   0.00000  Uiso   1.00
H200   H     0.25492   0.52976   0.38595   0.00000  Uiso   1.00
H201   H     0.25209   0.53353   0.10784   0.00000  Uiso   1.00
H202   H     0.08124   0.46647   0.39216   0.00000  Uiso   1.00
H203   H     0.30330   0.54900   0.03610   0.00000  Uiso   1.00
H204   H     0.03003   0.45100   0.46390   0.00000  Uiso   1.00
H205   H     0.30476   0.54680   0.45414   0.00000  Uiso   1.00
H206   H     0.02858   0.45320   0.04586   0.00000  Uiso   1.00
C207   C     0.18607   0.65115   0.23931   0.00000  Uiso   1.00
C208   C     0.14726   0.34885   0.26069   0.00000  Uiso   1.00
N209   N     0.31678   0.48598   0.23783   0.00000  Uiso   1.00
N210   N     0.01656   0.51402   0.26217   0.00000  Uiso   1.00
C211   C     0.22725   0.33378   0.20010   0.00000  Uiso   1.00
H212   H     0.24174   0.63287   0.17989   0.00000  Uiso   1.00
H213   H     0.20608   0.35874   0.17694   0.00000  Uiso   1.00
H214   H     0.26601   0.35433   0.21264   0.00000  Uiso   1.00
C215   C     0.10608   0.66622   0.29990   0.00000  Uiso   1.00
H216   H     0.09159   0.36713   0.32011   0.00000  Uiso   1.00
H217   H     0.06733   0.64567   0.28736   0.00000  Uiso   1.00
H218   H     0.12725   0.64126   0.32306   0.00000  Uiso   1.00
N219   N     0.00526   0.47870   0.19426   0.00000  Uiso   1.00
O220   O     0.00422   0.51644   0.16634   0.00000  Uiso   1.00
O221   O     0.01149   0.43166   0.17866   0.00000  Uiso   1.00
N222   N     0.32808   0.52130   0.30574   0.00000  Uiso   1.00
O223   O     0.32912   0.48356   0.33366   0.00000  Uiso   1.00
O224   O     0.32184   0.56834   0.32134   0.00000  Uiso   1.00
O225   O     0.46308   0.57952   0.25299   0.00000  Uiso   1.00
O226   O     0.53692   0.42048   0.24702   0.00000  Uiso   1.00
O227   O     0.55946   0.57054   0.24519   0.00000  Uiso   1.00
O228   O     0.44054   0.42946   0.25482   0.00000  Uiso   1.00
C229   C     0.51453   0.59790   0.24813   0.00000  Uiso   1.00
C230   C     0.48547   0.40210   0.25187   0.00000  Uiso   1.00
O231   O     0.45181   0.50450   0.31998   0.00000  Uiso   1.00
O232   O     0.54819   0.49550   0.18003   0.00000  Uiso   1.00
O233   O     0.54819   0.49552   0.31218   0.00000  Uiso   1.00
O234   O     0.45181   0.50448   0.18783   0.00000  Uiso   1.00
C235   C     0.50078   0.49948   0.33651   0.00000  Uiso   1.00
C236   C     0.49922   0.50052   0.16349   0.00000  Uiso   1.00
Zn237  Zn    0.43565   0.50600   0.25521   0.00000  Uiso   1.00
Zn238  Zn    0.56435   0.49400   0.24479   0.00000  Uiso   1.00
C239   C     0.44925   0.48466   0.09462   0.00000  Uiso   1.00
C240   C     0.55075   0.51534   0.40538   0.00000  Uiso   1.00
C241   C     0.49828   0.50214   0.11567   0.00000  Uiso   1.00
C242   C     0.50173   0.49786   0.38433   0.00000  Uiso   1.00
C243   C     0.54775   0.51955   0.09101   0.00000  Uiso   1.00
C244   C     0.45225   0.48045   0.40899   0.00000  Uiso   1.00
C245   C     0.54890   0.51874   0.04475   0.00000  Uiso   1.00
C246   C     0.45110   0.48126   0.45525   0.00000  Uiso   1.00
C247   C     0.49955   0.50071   0.02327   0.00000  Uiso   1.00
C248   C     0.50045   0.49929   0.47673   0.00000  Uiso   1.00
C249   C     0.44938   0.48391   0.04834   0.00000  Uiso   1.00
C250   C     0.55062   0.51609   0.45166   0.00000  Uiso   1.00
C251   C     0.59857   0.53524   0.01973   0.00000  Uiso   1.00
C252   C     0.40143   0.46476   0.48027   0.00000  Uiso   1.00
C253   C     0.59943   0.53393   0.47322   0.00000  Uiso   1.00
C254   C     0.40057   0.46607   0.02679   0.00000  Uiso   1.00
H255   H     0.41175   0.47024   0.11405   0.00000  Uiso   1.00
H256   H     0.58825   0.52976   0.38595   0.00000  Uiso   1.00
H257   H     0.58542   0.53353   0.10784   0.00000  Uiso   1.00
H258   H     0.41458   0.46647   0.39216   0.00000  Uiso   1.00
H259   H     0.63664   0.54900   0.03610   0.00000  Uiso   1.00
H260   H     0.36336   0.45100   0.46390   0.00000  Uiso   1.00
H261   H     0.63809   0.54680   0.45414   0.00000  Uiso   1.00
H262   H     0.36191   0.45320   0.04586   0.00000  Uiso   1.00
C263   C     0.51941   0.65115   0.23931   0.00000  Uiso   1.00
C264   C     0.48059   0.34885   0.26069   0.00000  Uiso   1.00
N265   N     0.65011   0.48598   0.23783   0.00000  Uiso   1.00
N266   N     0.34989   0.51402   0.26217   0.00000  Uiso   1.00
C267   C     0.56058   0.33378   0.20010   0.00000  Uiso   1.00
H268   H     0.57508   0.63287   0.17989   0.00000  Uiso   1.00
H269   H     0.53942   0.35874   0.17694   0.00000  Uiso   1.00
H270   H     0.59934   0.35433   0.21264   0.00000  Uiso   1.00
C271   C     0.43942   0.66622   0.29990   0.00000  Uiso   1.00
H272   H     0.42492   0.36713   0.32011   0.00000  Uiso   1.00
H273   H     0.40066   0.64567   0.28736   0.00000  Uiso   1.00
H274   H     0.46058   0.64126   0.32306   0.00000  Uiso   1.00
N275   N     0.33859   0.47870   0.19426   0.00000  Uiso   1.00
O276   O     0.33755   0.51644   0.16634   0.00000  Uiso   1.00
O277   O     0.34482   0.43166   0.17866   0.00000  Uiso   1.00
N278   N     0.66141   0.52130   0.30574   0.00000  Uiso   1.00
O279   O     0.66245   0.48356   0.33366   0.00000  Uiso   1.00
O280   O     0.65517   0.56834   0.32134   0.00000  Uiso   1.00
O281   O     0.79642   0.57952   0.25299   0.00000  Uiso   1.00
O282   O     0.87025   0.42048   0.24702   0.00000  Uiso   1.00
O283   O     0.89280   0.57054   0.24519   0.00000  Uiso   1.00
O284   O     0.77387   0.42946   0.25482   0.00000  Uiso   1.00
C285   C     0.84786   0.59790   0.24813   0.00000  Uiso   1.00
C286   C     0.81880   0.40210   0.25187   0.00000  Uiso   1.00
O287   O     0.78514   0.50450   0.31998   0.00000  Uiso   1.00
O288   O     0.88153   0.49550   0.18003   0.00000  Uiso   1.00
O289   O     0.88152   0.49552   0.31218   0.00000  Uiso   1.00
O290   O     0.78515   0.50448   0.18783   0.00000  Uiso   1.00
C291   C     0.83412   0.49948   0.33651   0.00000  Uiso   1.00
C292   C     0.83255   0.50052   0.16349   0.00000  Uiso   1.00
Zn293  Zn    0.76898   0.50600   0.25521   0.00000  Uiso   1.00
Zn294  Zn    0.89769   0.49400   0.24479   0.00000  Uiso   1.00
C295   C     0.78258   0.48466   0.09462   0.00000  Uiso   1.00
C296   C     0.88409   0.51534   0.40538   0.00000  Uiso   1.00
C297   C     0.83161   0.50214   0.11567   0.00000  Uiso   1.00
C298   C     0.83506   0.49786   0.38433   0.00000  Uiso   1.00
C299   C     0.88109   0.51955   0.09101   0.00000  Uiso   1.00
C300   C     0.78558   0.48045   0.40899   0.00000  Uiso   1.00
C301   C     0.88223   0.51874   0.04475   0.00000  Uiso   1.00
C302   C     0.78443   0.48126   0.45525   0.00000  Uiso   1.00
C303   C     0.83288   0.50071   0.02327   0.00000  Uiso   1.00
C304   C     0.83378   0.49929   0.47673   0.00000  Uiso   1.00
C305   C     0.78272   0.48391   0.04834   0.00000  Uiso   1.00
C306   C     0.88395   0.51609   0.45166   0.00000  Uiso   1.00
C307   C     0.93191   0.53524   0.01973   0.00000  Uiso   1.00
C308   C     0.73476   0.46476   0.48027   0.00000  Uiso   1.00
C309   C     0.93276   0.53393   0.47322   0.00000  Uiso   1.00
C310   C     0.73391   0.46607   0.02679   0.00000  Uiso   1.00
H311   H     0.74508   0.47024   0.11405   0.00000  Uiso   1.00
H312   H     0.92159   0.52976   0.38595   0.00000  Uiso   1.00
H313   H     0.91876   0.53353   0.10784   0.00000  Uiso   1.00
H314   H     0.74791   0.46647   0.39216   0.00000  Uiso   1.00
H315   H     0.96997   0.54900   0.03610   0.00000  Uiso   1.00
H316   H     0.69670   0.45100   0.46390   0.00000  Uiso   1.00
H317   H     0.97142   0.54680   0.45414   0.00000  Uiso   1.00
H318   H     0.69524   0.45320   0.04586   0.00000  Uiso   1.00
C319   C     0.85274   0.65115   0.23931   0.00000  Uiso   1.00
C320   C     0.81393   0.34885   0.26069   0.00000  Uiso   1.00
N321   N     0.98344   0.48598   0.23783   0.00000  Uiso   1.00
N322   N     0.68322   0.51402   0.26217   0.00000  Uiso   1.00
C323   C     0.89392   0.33378   0.20010   0.00000  Uiso   1.00
H324   H     0.90841   0.63287   0.17989   0.00000  Uiso   1.00
H325   H     0.87275   0.35874   0.17694   0.00000  Uiso   1.00
H326   H     0.93267   0.35433   0.21264   0.00000  Uiso   1.00
C327   C     0.77275   0.66622   0.29990   0.00000  Uiso   1.00
H328   H     0.75826   0.36713   0.32011   0.00000  Uiso   1.00
H329   H     0.73400   0.64567   0.28736   0.00000  Uiso   1.00
H330   H     0.79392   0.64126   0.32306   0.00000  Uiso   1.00
N331   N     0.67192   0.47870   0.19426   0.00000  Uiso   1.00
O332   O     0.67089   0.51644   0.16634   0.00000  Uiso   1.00
O333   O     0.67816   0.43166   0.17866   0.00000  Uiso   1.00
N334   N     0.99474   0.52130   0.30574   0.00000  Uiso   1.00
O335   O     0.99578   0.48356   0.33366   0.00000  Uiso   1.00
O336   O     0.98851   0.56834   0.32134   0.00000  Uiso   1.00
O337   O     0.12975   0.91286   0.25299   0.00000  Uiso   1.00
O338   O     0.20358   0.75381   0.24702   0.00000  Uiso   1.00
O339   O     0.22613   0.90387   0.24519   0.00000  Uiso   1.00
O340   O     0.10720   0.76279   0.25482   0.00000  Uiso   1.00
C341   C     0.18120   0.93124   0.24813   0.00000  Uiso   1.00
C342   C     0.15214   0.73543   0.25187   0.00000  Uiso   1.00
O343   O     0.11847   0.83784   0.31998   0.00000  Uiso   1.00
O344   O     0.21486   0.82883   0.18003   0.00000  Uiso   1.00
O345   O     0.21485   0.82885   0.31218   0.00000  Uiso   1.00
O346   O     0.11848   0.83781   0.18783   0.00000  Uiso   1.00
C347   C     0.16745   0.83281   0.33651   0.00000  Uiso   1.00
C348   C     0.16588   0.83386   0.16349   0.00000  Uiso   1.00
Zn349  Zn    0.10231   0.83933   0.25521   0.00000  Uiso   1.00
Zn350  Zn    0.23102   0.82734   0.24479   0.00000  Uiso   1.00
C351   C     0.11591   0.81800   0.09462   0.00000  Uiso   1.00
C352   C     0.21742   0.84867   0.40538   0.00000  Uiso   1.00
C353   C     0.16494   0.83547   0.11567   0.00000  Uiso   1.00
C354   C     0.16839   0.83120   0.38433   0.00000  Uiso   1.00
C355   C     0.21442   0.85288   0.09101   0.00000  Uiso   1.00
C356   C     0.11891   0.81379   0.40899   0.00000  Uiso   1.00
C357   C     0.21557   0.85207   0.04475   0.00000  Uiso   1.00
C358   C     0.11777   0.81460   0.45525   0.00000  Uiso   1.00
C359   C     0.16622   0.83405   0.02327   0.00000  Uiso   1.00
C360   C     0.16712   0.83262   0.47673   0.00000  Uiso   1.00
C361   C     0.11605   0.81725   0.04834   0.00000  Uiso   1.00
C362   C     0.21728   0.84942   0.45166   0.00000  Uiso   1.00
C363   C     0.26524   0.86857   0.01973   0.00000  Uiso   1.00
C364   C     0.06809   0.79809   0.48027   0.00000  Uiso   1.00
C365   C     0.26609   0.86726   0.47322   0.00000  Uiso   1.00
C366   C     0.06724   0.79940   0.02679   0.00000  Uiso   1.00
H367   H     0.07841   0.80358   0.11405   0.00000  Uiso   1.00
H368   H     0.25492   0.86309   0.38595   0.00000  Uiso   1.00
H369   H     0.25209   0.86686   0.10784   0.00000  Uiso   1.00
H370   H     0.08124   0.79980   0.39216   0.00000  Uiso   1.00
H371   H     0.30330   0.88233   0.03610   0.00000  Uiso   1.00
H372   H     0.03003   0.78433   0.46390   0.00000  Uiso   1.00
H373   H     0.30476   0.88013   0.45414   0.00000  Uiso   1.00
H374   H     0.02858   0.78653   0.04586   0.00000  Uiso   1.00
C375   C     0.18607   0.98449   0.23931   0.00000  Uiso   1.00
C376   C     0.14726   0.68218   0.26069   0.00000  Uiso   1.00
N377   N     0.31678   0.81932   0.23783   0.00000  Uiso   1.00
N378   N     0.01656   0.84735   0.26217   0.00000  Uiso   1.00
C379   C     0.22725   0.66712   0.20010   0.00000  Uiso   1.00
H380   H     0.24174   0.96621   0.17989   0.00000  Uiso   1.00
H381   H     0.20608   0.69208   0.17694   0.00000  Uiso   1.00
H382   H     0.26601   0.68766   0.21264   0.00000  Uiso   1.00
C383   C     0.10608   0.99955   0.29990   0.00000  Uiso   1.00
H384   H     0.09159   0.70046   0.32011   0.00000  Uiso   1.00
H385   H     0.06733   0.97901   0.28736   0.00000  Uiso   1.00
H386   H     0.12725   0.97459   0.32306   0.00000  Uiso   1.00
N387   N     0.00526   0.81203   0.19426   0.00000  Uiso   1.00
O388   O     0.00422   0.84977   0.16634   0.00000  Uiso   1.00
O389   O     0.01149   0.76500   0.17866   0.00000  Uiso   1.00
N390   N     0.32808   0.85464   0.30574   0.00000  Uiso   1.00
O391   O     0.32912   0.81689   0.33366   0.00000  Uiso   1.00
O392   O     0.32184   0.90167   0.32134   0.00000  Uiso   1.00
O393   O     0.46308   0.91286   0.25299   0.00000  Uiso   1.00
O394   O     0.53692   0.75381   0.24702   0.00000  Uiso   1.00
O395   O     0.55946   0.90387   0.24519   0.00000  Uiso   1.00
O396   O     0.44054   0.76279   0.25482   0.00000  Uiso   1.00
C397   C     0.51453   0.93124   0.24813   0.00000  Uiso   1.00
C398   C     0.48547   0.73543   0.25187   0.00000  Uiso   1.00
O399   O     0.45181   0.83784   0.31998   0.00000  Uiso   1.00
O400   O     0.54819   0.82883   0.18003   0.00000  Uiso   1.00
O401   O     0.54819   0.82885   0.31218   0.00000  Uiso   1.00
O402   O     0.45181   0.83781   0.18783   0.00000  Uiso   1.00
C403   C     0.50078   0.83281   0.33651   0.00000  Uiso   1.00
C404   C     0.49922   0.83386   0.16349   0.00000  Uiso   1.00
Zn405  Zn    0.43565   0.83933   0.25521   0.00000  Uiso   1.00
Zn406  Zn    0.56435   0.82734   0.24479   0.00000  Uiso   1.00
C407   C     0.44925   0.81800   0.09462   0.00000  Uiso   1.00
C408   C     0.55075   0.84867   0.40538   0.00000  Uiso   1.00
C409   C     0.49828   0.83547   0.11567   0.00000  Uiso   1.00
C410   C     0.50173   0.83120   0.38433   0.00000  Uiso   1.00
C411   C     0.54775   0.85288   0.09101   0.00000  Uiso   1.00
C412   C     0.45225   0.81379   0.40899   0.00000  Uiso   1.00
C413   C     0.54890   0.85207   0.04475   0.00000  Uiso   1.00
C414   C     0.45110   0.81460   0.45525   0.00000  Uiso   1.00
C415   C     0.49955   0.83405   0.02327   0.00000  Uiso   1.00
C416   C     0.50045   0.83262   0.47673   0.00000  Uiso   1.00
C417   C     0.44938   0.81725   0.04834   0.00000  Uiso   1.00
C418   C     0.55062   0.84942   0.45166   0.00000  Uiso   1.00
C419   C     0.59857   0.86857   0.01973   0.00000  Uiso   1.00
C420   C     0.40143   0.79809   0.48027   0.00000  Uiso   1.00
C421   C     0.59943   0.86726   0.47322   0.00000  Uiso   1.00
C422   C     0.40057   0.79940   0.02679   0.00000  Uiso   1.00
H423   H     0.41175   0.80358   0.11405   0.00000  Uiso   1.00
H424   H     0.58825   0.86309   0.38595   0.00000  Uiso   1.00
H425   H     0.58542   0.86686   0.10784   0.00000  Uiso   1.00
H426   H     0.41458   0.79980   0.39216   0.00000  Uiso   1.00
H427   H     0.63664   0.88233   0.03610   0.00000  Uiso   1.00
H428   H     0.36336   0.78433   0.46390   0.00000  Uiso   1.00
H429   H     0.63809   0.88013   0.45414   0.00000  Uiso   1.00
H430   H     0.36191   0.78653   0.04586   0.00000  Uiso   1.00
C431   C     0.51941   0.98449   0.23931   0.00000  Uiso   1.00
C432   C     0.48059   0.68218   0.26069   0.00000  Uiso   1.00
N433   N     0.65011   0.81932   0.23783   0.00000  Uiso   1.00
N434   N     0.34989   0.84735   0.26217   0.00000  Uiso   1.00
C435   C     0.56058   0.66712   0.20010   0.00000  Uiso   1.00
H436   H     0.57508   0.96621   0.17989   0.00000  Uiso   1.00
H437   H     0.53942   0.69208   0.17694   0.00000  Uiso   1.00
H438   H     0.59934   0.68766   0.21264   0.00000  Uiso   1.00
C439   C     0.43942   0.99955   0.29990   0.00000  Uiso   1.00
H440   H     0.42492   0.70046   0.32011   0.00000  Uiso   1.00
H441   H     0.40066   0.97901   0.28736   0.00000  Uiso   1.00
H442   H     0.46058   0.97459   0.32306   0.00000  Uiso   1.00
N443   N     0.33859   0.81203   0.19426   0.00000  Uiso   1.00
O444   O     0.33755   0.84977   0.16634   0.00000  Uiso   1.00
O445   O     0.34482   0.76500   0.17866   0.00000  Uiso   1.00
N446   N     0.66141   0.85464   0.30574   0.00000  Uiso   1.00
O447   O     0.66245   0.81689   0.33366   0.00000  Uiso   1.00
O448   O     0.65517   0.90167   0.32134   0.00000  Uiso   1.00
O449   O     0.79642   0.91286   0.25299   0.00000  Uiso   1.00
O450   O     0.87025   0.75381   0.24702   0.00000  Uiso   1.00
O451   O     0.89280   0.90387   0.24519   0.00000  Uiso   1.00
O452   O     0.77387   0.76279   0.25482   0.00000  Uiso   1.00
C453   C     0.84786   0.93124   0.24813   0.00000  Uiso   1.00
C454   C     0.81880   0.73543   0.25187   0.00000  Uiso   1.00
O455   O     0.78514   0.83784   0.31998   0.00000  Uiso   1.00
O456   O     0.88153   0.82883   0.18003   0.00000  Uiso   1.00
O457   O     0.88152   0.82885   0.31218   0.00000  Uiso   1.00
O458   O     0.78515   0.83781   0.18783   0.00000  Uiso   1.00
C459   C     0.83412   0.83281   0.33651   0.00000  Uiso   1.00
C460   C     0.83255   0.83386   0.16349   0.00000  Uiso   1.00
Zn461  Zn    0.76898   0.83933   0.25521   0.00000  Uiso   1.00
Zn462  Zn    0.89769   0.82734   0.24479   0.00000  Uiso   1.00
C463   C     0.78258   0.81800   0.09462   0.00000  Uiso   1.00
C464   C     0.88409   0.84867   0.40538   0.00000  Uiso   1.00
C465   C     0.83161   0.83547   0.11567   0.00000  Uiso   1.00
C466   C     0.83506   0.83120   0.38433   0.00000  Uiso   1.00
C467   C     0.88109   0.85288   0.09101   0.00000  Uiso   1.00
C468   C     0.78558   0.81379   0.40899   0.00000  Uiso   1.00
C469   C     0.88223   0.85207   0.04475   0.00000  Uiso   1.00
C470   C     0.78443   0.81460   0.45525   0.00000  Uiso   1.00
C471   C     0.83288   0.83405   0.02327   0.00000  Uiso   1.00
C472   C     0.83378   0.83262   0.47673   0.00000  Uiso   1.00
C473   C     0.78272   0.81725   0.04834   0.00000  Uiso   1.00
C474   C     0.88395   0.84942   0.45166   0.00000  Uiso   1.00
C475   C     0.93191   0.86857   0.01973   0.00000  Uiso   1.00
C476   C     0.73476   0.79809   0.48027   0.00000  Uiso   1.00
C477   C     0.93276   0.86726   0.47322   0.00000  Uiso   1.00
C478   C     0.73391   0.79940   0.02679   0.00000  Uiso   1.00
H479   H     0.74508   0.80358   0.11405   0.00000  Uiso   1.00
H480   H     0.92159   0.86309   0.38595   0.00000  Uiso   1.00
H481   H     0.91876   0.86686   0.10784   0.00000  Uiso   1.00
H482   H     0.74791   0.79980   0.39216   0.00000  Uiso   1.00
H483   H     0.96997   0.88233   0.03610   0.00000  Uiso   1.00
H484   H     0.69670   0.78433   0.46390   0.00000  Uiso   1.00
H485   H     0.97142   0.88013   0.45414   0.00000  Uiso   1.00
H486   H     0.69524   0.78653   0.04586   0.00000  Uiso   1.00
C487   C     0.85274   0.98449   0.23931   0.00000  Uiso   1.00
C488   C     0.81393   0.68218   0.26069   0.00000  Uiso   1.00
N489   N     0.98344   0.81932   0.23783   0.00000  Uiso   1.00
N490   N     0.68322   0.84735   0.26217   0.00000  Uiso   1.00
C491   C     0.89392   0.66712   0.20010   0.00000  Uiso   1.00
H492   H     0.90841   0.96621   0.17989   0.00000  Uiso   1.00
H493   H     0.87275   0.69208   0.17694   0.00000  Uiso   1.00
H494   H     0.93267   0.68766   0.21264   0.00000  Uiso   1.00
C495   C     0.77275   0.99955   0.29990   0.00000  Uiso   1.00
H496   H     0.75826   0.70046   0.32011   0.00000  Uiso   1.00
H497   H     0.73400   0.97901   0.28736   0.00000  Uiso   1.00
H498   H     0.79392   0.97459   0.32306   0.00000  Uiso   1.00
N499   N     0.67192   0.81203   0.19426   0.00000  Uiso   1.00
O500   O     0.67089   0.84977   0.16634   0.00000  Uiso   1.00
O501   O     0.67816   0.76500   0.17866   0.00000  Uiso   1.00
N502   N     0.99474   0.85464   0.30574   0.00000  Uiso   1.00
O503   O     0.99578   0.81689   0.33366   0.00000  Uiso   1.00
O504   O     0.98851   0.90167   0.32134   0.00000  Uiso   1.00
O505   O     0.12975   0.24619   0.75299   0.00000  Uiso   1.00
O506   O     0.20358   0.08714   0.74702   0.00000  Uiso   1.00
O507   O     0.22613   0.23721   0.74519   0.00000  Uiso   1.00
O508   O     0.10720   0.09613   0.75482   0.00000  Uiso   1.00
C509   C     0.18120   0.26457   0.74813   0.00000  Uiso   1.00
C510   C     0.15214   0.06876   0.75187   0.00000  Uiso   1.00
O511   O     0.11847   0.17117   0.81998   0.00000  Uiso   1.00
O512   O     0.21486   0.16216   0.68003   0.00000  Uiso   1.00
O513   O     0.21485   0.16219   0.81218   0.00000  Uiso   1.00
O514   O     0.11848   0.17115   0.68783   0.00000  Uiso   1.00
C515   C     0.16745   0.16614   0.83651   0.00000  Uiso   1.00
C516   C     0.16588   0.16719   0.66349   0.00000  Uiso   1.00
Zn517  Zn    0.10231   0.17266   0.75521   0.00000  Uiso   1.00
Zn518  Zn    0.23102   0.16067   0.74479   0.00000  Uiso   1.00
C519   C     0.11591   0.15133   0.59462   0.00000  Uiso   1.00
C520   C     0.21742   0.18200   0.90538   0.00000  Uiso   1.00
C521   C     0.16494   0.16880   0.61567   0.00000  Uiso   1.00
C522   C     0.16839   0.16453   0.88433   0.00000  Uiso   1.00
C523   C     0.21442   0.18621   0.59101   0.00000  Uiso   1.00
C524   C     0.11891   0.14712   0.90899   0.00000  Uiso   1.00
C525   C     0.21557   0.18540   0.54475   0.00000  Uiso   1.00
C526   C     0.11777   0.14793   0.95525   0.00000  Uiso   1.00
C527   C     0.16622   0.16738   0.52327   0.00000  Uiso   1.00
C528   C     0.16712   0.16595   0.97673   0.00000  Uiso   1.00
C529   C     0.11605   0.15058   0.54834   0.00000  Uiso   1.00
C530   C     0.21728   0.18275   0.95166   0.00000  Uiso   1.00
C531   C     0.26524   0.20190   0.51973   0.00000  Uiso   1.00
C532   C     0.06809   0.13143   0.98027   0.00000  Uiso   1.00
C533   C     0.26609   0.20060   0.97322   0.00000  Uiso   1.00
C534   C     0.06724   0.13274   0.52679   0.00000  Uiso   1.00
H535   H     0.07841   0.13691   0.61405   0.00000  Uiso   1.00
H536   H     0.25492   0.19642   0.88595   0.00000  Uiso   1.00
H537   H     0.25209   0.20019   0.60784   0.00000  Uiso   1.00
H538   H     0.08124   0.13314   0.89216   0.00000  Uiso   1.00
H539   H     0.30330   0.21567   0.53610   0.00000  Uiso   1.00
H540   H     0.03003   0.11767   0.96390   0.00000  Uiso   1.00
H541   H     0.30476   0.21347   0.95414   0.00000  Uiso   1.00
H542   H     0.02858   0.11987   0.54586   0.00000  Uiso   1.00
C543   C     0.18607   0.31782   0.73931   0.00000  Uiso   1.00
C544   C     0.14726   0.01551   0.76069   0.00000  Uiso   1.00
N545   N     0.31678   0.15265   0.73783   0.00000  Uiso   1.00
N546   N     0.01656   0.18068   0.76217   0.00000  Uiso   1.00
C547   C     0.22725   0.00045   0.70010   0.00000  Uiso   1.00
H548   H     0.24174   0.29954   0.67989   0.00000  Uiso   1.00
H549   H     0.20608   0.02541   0.67694   0.00000  Uiso   1.00
H550   H     0.26601   0.02099   0.71264   0.00000  Uiso   1.00
C551   C     0.10608   0.33288   0.79990   0.00000  Uiso   1.00
H552   H     0.09159   0.03379   0.82011   0.00000  Uiso   1.00
H553   H     0.06733   0.31234   0.78736   0.00000  Uiso   1.00
H554   H     0.12725   0.30792   0.82306   0.00000  Uiso   1.00
N555   N     0.00526   0.14536   0.69426   0.00000  Uiso   1.00
O556   O     0.00422   0.18311   0.66634   0.00000  Uiso   1.00
O557   O     0.01149   0.09833   0.67866   0.00000  Uiso   1.00
N558   N     0.32808   0.18797   0.80574   0.00000  Uiso   1.00
O559   O     0.32912   0.15023   0.83366   0.00000  Uiso   1.00
O560   O     0.32184   0.23500   0.82134   0.00000  Uiso   1.00
O561   O     0.46308   0.24619   0.75299   0.00000  Uiso   1.00
O562   O     0.53692   0.08714   0.74702   0.00000  Uiso   1.00
O563   O     0.55946   0.23721   0.74519   0.00000  Uiso   1.00
O564   O     0.44054   0.09613   0.75482   0.00000  Uiso   1.00
C565   C     0.51453   0.26457   0.74813   0.00000  Uiso   1.00
C566   C     0.48547   0.06876   0.75187   0.00000  Uiso   1.00
O567   O     0.45181   0.17117   0.81998   0.00000  Uiso   1.00
O568   O     0.54819   0.16216   0.68003   0.00000  Uiso   1.00
O569   O     0.54819   0.16219   0.81218   0.00000  Uiso   1.00
O570   O     0.45181   0.17115   0.68783   0.00000  Uiso   1.00
C571   C     0.50078   0.16614   0.83651   0.00000  Uiso   1.00
C572   C     0.49922   0.16719   0.66349   0.00000  Uiso   1.00
Zn573  Zn    0.43565   0.17266   0.75521   0.00000  Uiso   1.00
Zn574  Zn    0.56435   0.16067   0.74479   0.00000  Uiso   1.00
C575   C     0.44925   0.15133   0.59462   0.00000  Uiso   1.00
C576   C     0.55075   0.18200   0.90538   0.00000  Uiso   1.00
C577   C     0.49828   0.16880   0.61567   0.00000  Uiso   1.00
C578   C     0.50173   0.16453   0.88433   0.00000  Uiso   1.00
C579   C     0.54775   0.18621   0.59101   0.00000  Uiso   1.00
C580   C     0.45225   0.14712   0.90899   0.00000  Uiso   1.00
C581   C     0.54890   0.18540   0.54475   0.00000  Uiso   1.00
C582   C     0.45110   0.14793   0.95525   0.00000  Uiso   1.00
C583   C     0.49955   0.16738   0.52327   0.00000  Uiso   1.00
C584   C     0.50045   0.16595   0.97673   0.00000  Uiso   1.00
C585   C     0.44938   0.15058   0.54834   0.00000  Uiso   1.00
C586   C     0.55062   0.18275   0.95166   0.00000  Uiso   1.00
C587   C     0.59857   0.20190   0.51973   0.00000  Uiso   1.00
C588   C     0.40143   0.13143   0.98027   0.00000  Uiso   1.00
C589   C     0.59943   0.20060   0.97322   0.00000  Uiso   1.00
C590   C     0.40057   0.13274   0.52679   0.00000  Uiso   1.00
H591   H     0.41175   0.13691   0.61405   0.00000  Uiso   1.00
H592   H     0.58825   0.19642   0.88595   0.00000  Uiso   1.00
H593   H     0.58542   0.20019   0.60784   0.00000  Uiso   1.00
H594   H     0.41458   0.13314   0.89216   0.00000  Uiso   1.00
H595   H     0.63664   0.21567   0.53610   0.00000  Uiso   1.00
H596   H     0.36336   0.11767   0.96390   0.00000  Uiso   1.00
H597   H     0.63809   0.21347   0.95414   0.00000  Uiso   1.00
H598   H     0.36191   0.11987   0.54586   0.00000  Uiso   1.00
C599   C     0.51941   0.31782   0.73931   0.00000  Uiso   1.00
C600   C     0.48059   0.01551   0.76069   0.00000  Uiso   1.00
N601   N     0.65011   0.15265   0.73783   0.00000  Uiso   1.00
N602   N     0.34989   0.18068   0.76217   0.00000  Uiso   1.00
C603   C     0.56058   0.00045   0.70010   0.00000  Uiso   1.00
H604   H     0.57508   0.29954   0.67989   0.00000  Uiso   1.00
H605   H     0.53942   0.02541   0.67694   0.00000  Uiso   1.00
H606   H     0.59934   0.02099   0.71264   0.00000  Uiso   1.00
C607   C     0.43942   0.33288   0.79990   0.00000  Uiso   1.00
H608   H     0.42492   0.03379   0.82011   0.00000  Uiso   1.00
H609   H     0.40066   0.31234   0.78736   0.00000  Uiso   1.00
H610   H     0.46058   0.30792   0.82306   0.00000  Uiso   1.00
N611   N     0.33859   0.14536   0.69426   0.00000  Uiso   1.00
O612   O     0.33755   0.18311   0.66634   0.00000  Uiso   1.00
O613   O     0.34482   0.09833   0.67866   0.00000  Uiso   1.00
N614   N     0.66141   0.18797   0.80574   0.00000  Uiso   1.00
O615   O     0.66245   0.15023   0.83366   0.00000  Uiso   1.00
O616   O     0.65517   0.23500   0.82134   0.00000  Uiso   1.00
O617   O     0.79642   0.24619   0.75299   0.00000  Uiso   1.00
O618   O     0.87025   0.08714   0.74702   0.00000  Uiso   1.00
O619   O     0.89280   0.23721   0.74519   0.00000  Uiso   1.00
O620   O     0.77387   0.09613   0.75482   0.00000  Uiso   1.00
C621   C     0.84786   0.26457   0.74813   0.00000  Uiso   1.00
C622   C     0.81880   0.06876   0.75187   0.00000  Uiso   1.00
O623   O     0.78514   0.17117   0.81998   0.00000  Uiso   1.00
O624   O     0.88153   0.16216   0.68003   0.00000  Uiso   1.00
O625   O     0.88152   0.16219   0.81218   0.00000  Uiso   1.00
O626   O     0.78515   0.17115   0.68783   0.00000  Uiso   1.00
C627   C     0.83412   0.16614   0.83651   0.00000  Uiso   1.00
C628   C     0.83255   0.16719   0.66349   0.00000  Uiso   1.00
Zn629  Zn    0.76898   0.17266   0.75521   0.00000  Uiso   1.00
Zn630  Zn    0.89769   0.16067   0.74479   0.00000  Uiso   1.00
C631   C     0.78258   0.15133   0.59462   0.00000  Uiso   1.00
C632   C     0.88409   0.18200   0.90538   0.00000  Uiso   1.00
C633   C     0.83161   0.16880   0.61567   0.00000  Uiso   1.00
C634   C     0.83506   0.16453   0.88433   0.00000  Uiso   1.00
C635   C     0.88109   0.18621   0.59101   0.00000  Uiso   1.00
C636   C     0.78558   0.14712   0.90899   0.00000  Uiso   1.00
C637   C     0.88223   0.18540   0.54475   0.00000  Uiso   1.00
C638   C     0.78443   0.14793   0.95525   0.00000  Uiso   1.00
C639   C     0.83288   0.16738   0.52327   0.00000  Uiso   1.00
C640   C     0.83378   0.16595   0.97673   0.00000  Uiso   1.00
C641   C     0.78272   0.15058   0.54834   0.00000  Uiso   1.00
C642   C     0.88395   0.18275   0.95166   0.00000  Uiso   1.00
C643   C     0.93191   0.20190   0.51973   0.00000  Uiso   1.00
C644   C     0.73476   0.13143   0.98027   0.00000  Uiso   1.00
C645   C     0.93276   0.20060   0.97322   0.00000  Uiso   1.00
C646   C     0.73391   0.13274   0.52679   0.00000  Uiso   1.00
H647   H     0.74508   0.13691   0.61405   0.00000  Uiso   1.00
H648   H     0.92159   0.19642   0.88595   0.00000  Uiso   1.00
H649   H     0.91876   0.20019   0.60784   0.00000  Uiso   1.00
H650   H     0.74791   0.13314   0.89216   0.00000  Uiso   1.00
H651   H     0.96997   0.21567   0.53610   0.00000  Uiso   1.00
H652   H     0.69670   0.11767   0.96390   0.00000  Uiso   1.00
H653   H     0.97142   0.21347   0.95414   0.00000  Uiso   1.00
H654   H     0.69524   0.11987   0.54586   0.00000  Uiso   1.00
C655   C     0.85274   0.31782   0.73931   0.00000  Uiso   1.00
C656   C     0.81393   0.01551   0.76069   0.00000  Uiso   1.00
N657   N     0.98344   0.15265   0.73783   0.00000  Uiso   1.00
N658   N     0.68322   0.18068   0.76217   0.00000  Uiso   1.00
C659   C     0.89392   0.00045   0.70010   0.00000  Uiso   1.00
H660   H     0.90841   0.29954   0.67989   0.00000  Uiso   1.00
H661   H     0.87275   0.02541   0.67694   0.00000  Uiso   1.00
H662   H     0.93267   0.02099   0.71264   0.00000  Uiso   1.00
C663   C     0.77275   0.33288   0.79990   0.00000  Uiso   1.00
H664   H     0.75826   0.03379   0.82011   0.00000  Uiso   1.00
H665   H     0.73400   0.31234   0.78736   0.00000  Uiso   1.00
H666   H     0.79392   0.30792   0.82306   0.00000  Uiso   1.00
N667   N     0.67192   0.14536   0.69426   0.00000  Uiso   1.00
O668   O     0.67089   0.18311   0.66634   0.00000  Uiso   1.00
O669   O     0.67816   0.09833   0.67866   0.00000  Uiso   1.00
N670   N     0.99474   0.18797   0.80574   0.00000  Uiso   1.00
O671   O     0.99578   0.15023   0.83366   0.00000  Uiso   1.00
O672   O     0.98851   0.23500   0.82134   0.00000  Uiso   1.00
O673   O     0.12975   0.57952   0.75299   0.00000  Uiso   1.00
O674   O     0.20358   0.42048   0.74702   0.00000  Uiso   1.00
O675   O     0.22613   0.57054   0.74519   0.00000  Uiso   1.00
O676   O     0.10720   0.42946   0.75482   0.00000  Uiso   1.00
C677   C     0.18120   0.59790   0.74813   0.00000  Uiso   1.00
C678   C     0.15214   0.40210   0.75187   0.00000  Uiso   1.00
O679   O     0.11847   0.50450   0.81998   0.00000  Uiso   1.00
O680   O     0.21486   0.49550   0.68003   0.00000  Uiso   1.00
O681   O     0.21485   0.49552   0.81218   0.00000  Uiso   1.00
O682   O     0.11848   0.50448   0.68783   0.00000  Uiso   1.00
C683   C     0.16745   0.49948   0.83651   0.00000  Uiso   1.00
C684   C     0.16588   0.50052   0.66349   0.00000  Uiso   1.00
Zn685  Zn    0.10231   0.50600   0.75521   0.00000  Uiso   1.00
Zn686  Zn    0.23102   0.49400   0.74479   0.00000  Uiso   1.00
C687   C     0.11591   0.48466   0.59462   0.00000  Uiso   1.00
C688   C     0.21742   0.51534   0.90538   0.00000  Uiso   1.00
C689   C     0.16494   0.50214   0.61567   0.00000  Uiso   1.00
C690   C     0.16839   0.49786   0.88433   0.00000  Uiso   1.00
C691   C     0.21442   0.51955   0.59101   0.00000  Uiso   1.00
C692   C     0.11891   0.48045   0.90899   0.00000  Uiso   1.00
C693   C     0.21557   0.51874   0.54475   0.00000  Uiso   1.00
C694   C     0.11777   0.48126   0.95525   0.00000  Uiso   1.00
C695   C     0.16622   0.50071   0.52327   0.00000  Uiso   1.00
C696   C     0.16712   0.49929   0.97673   0.00000  Uiso   1.00
C697   C     0.11605   0.48391   0.54834   0.00000  Uiso   1.00
C698   C     0.21728   0.51609   0.95166   0.00000  Uiso   1.00
C699   C     0.26524   0.53524   0.51973   0.00000  Uiso   1.00
C700   C     0.06809   0.46476   0.98027   0.00000  Uiso   1.00
C701   C     0.26609   0.53393   0.97322   0.00000  Uiso   1.00
C702   C     0.06724   0.46607   0.52679   0.00000  Uiso   1.00
H703   H     0.07841   0.47024   0.61405   0.00000  Uiso   1.00
H704   H     0.25492   0.52976   0.88595   0.00000  Uiso   1.00
H705   H     0.25209   0.53353   0.60784   0.00000  Uiso   1.00
H706   H     0.08124   0.46647   0.89216   0.00000  Uiso   1.00
H707   H     0.30330   0.54900   0.53610   0.00000  Uiso   1.00
H708   H     0.03003   0.45100   0.96390   0.00000  Uiso   1.00
H709   H     0.30476   0.54680   0.95414   0.00000  Uiso   1.00
H710   H     0.02858   0.45320   0.54586   0.00000  Uiso   1.00
C711   C     0.18607   0.65115   0.73931   0.00000  Uiso   1.00
C712   C     0.14726   0.34885   0.76069   0.00000  Uiso   1.00
N713   N     0.31678   0.48598   0.73783   0.00000  Uiso   1.00
N714   N     0.01656   0.51402   0.76217   0.00000  Uiso   1.00
C715   C     0.22725   0.33378   0.70010   0.00000  Uiso   1.00
H716   H     0.24174   0.63287   0.67989   0.00000  Uiso   1.00
H717   H     0.20608   0.35874   0.67694   0.00000  Uiso   1.00
H718   H     0.26601   0.35433   0.71264   0.00000  Uiso   1.00
C719   C     0.10608   0.66622   0.79990   0.00000  Uiso   1.00
H720   H     0.09159   0.36713   0.82011   0.00000  Uiso   1.00
H721   H     0.06733   0.64567   0.78736   0.00000  Uiso   1.00
H722   H     0.12725   0.64126   0.82306   0.00000  Uiso   1.00
N723   N     0.00526   0.47870   0.69426   0.00000  Uiso   1.00
O724   O     0.00422   0.51644   0.66634   0.00000  Uiso   1.00
O725   O     0.01149   0.43166   0.67866   0.00000  Uiso   1.00
N726   N     0.32808   0.52130   0.80574   0.00000  Uiso   1.00
O727   O     0.32912   0.48356   0.83366   0.00000  Uiso   1.00
O728   O     0.32184   0.56834   0.82134   0.00000  Uiso   1.00
O729   O     0.46308   0.57952   0.75299   0.00000  Uiso   1.00
O730   O     0.53692   0.42048   0.74702   0.00000  Uiso   1.00
O731   O     0.55946   0.57054   0.74519   0.00000  Uiso   1.00
O732   O     0.44054   0.42946   0.75482   0.00000  Uiso   1.00
C733   C     0.51453   0.59790   0.74813   0.00000  Uiso   1.00
C734   C     0.48547   0.40210   0.75187   0.00000  Uiso   1.00
O735   O     0.45181   0.50450   0.81998   0.00000  Uiso   1.00
O736   O     0.54819   0.49550   0.68003   0.00000  Uiso   1.00
O737   O     0.54819   0.49552   0.81218   0.00000  Uiso   1.00
O738   O     0.45181   0.50448   0.68783   0.00000  Uiso   1.00
C739   C     0.50078   0.49948   0.83651   0.00000  Uiso   1.00
C740   C     0.49922   0.50052   0.66349   0.00000  Uiso   1.00
Zn741  Zn    0.43565   0.50600   0.75521   0.00000  Uiso   1.00
Zn742  Zn    0.56435   0.49400   0.74479   0.00000  Uiso   1.00
C743   C     0.44925   0.48466   0.59462   0.00000  Uiso   1.00
C744   C     0.55075   0.51534   0.90538   0.00000  Uiso   1.00
C745   C     0.49828   0.50214   0.61567   0.00000  Uiso   1.00
C746   C     0.50173   0.49786   0.88433   0.00000  Uiso   1.00
C747   C     0.54775   0.51955   0.59101   0.00000  Uiso   1.00
C748   C     0.45225   0.48045   0.90899   0.00000  Uiso   1.00
C749   C     0.54890   0.51874   0.54475   0.00000  Uiso   1.00
C750   C     0.45110   0.48126   0.95525   0.00000  Uiso   1.00
C751   C     0.49955   0.50071   0.52327   0.00000  Uiso   1.00
C752   C     0.50045   0.49929   0.97673   0.00000  Uiso   1.00
C753   C     0.44938   0.48391   0.54834   0.00000  Uiso   1.00
C754   C     0.55062   0.51609   0.95166   0.00000  Uiso   1.00
C755   C     0.59857   0.53524   0.51973   0.00000  Uiso   1.00
C756   C     0.40143   0.46476   0.98027   0.00000  Uiso   1.00
C757   C     0.59943   0.53393   0.97322   0.00000  Uiso   1.00
C758   C     0.40057   0.46607   0.52679   0.00000  Uiso   1.00
H759   H     0.41175   0.47024   0.61405   0.00000  Uiso   1.00
H760   H     0.58825   0.52976   0.88595   0.00000  Uiso   1.00
H761   H     0.58542   0.53353   0.60784   0.00000  Uiso   1.00
H762   H     0.41458   0.46647   0.89216   0.00000  Uiso   1.00
H763   H     0.63664   0.54900   0.53610   0.00000  Uiso   1.00
H764   H     0.36336   0.45100   0.96390   0.00000  Uiso   1.00
H765   H     0.63809   0.54680   0.95414   0.00000  Uiso   1.00
H766   H     0.36191   0.45320   0.54586   0.00000  Uiso   1.00
C767   C     0.51941   0.65115   0.73931   0.00000  Uiso   1.00
C768   C     0.48059   0.34885   0.76069   0.00000  Uiso   1.00
N769   N     0.65011   0.48598   0.73783   0.00000  Uiso   1.00
N770   N     0.34989   0.51402   0.76217   0.00000  Uiso   1.00
C771   C     0.56058   0.33378   0.70010   0.00000  Uiso   1.00
H772   H     0.57508   0.63287   0.67989   0.00000  Uiso   1.00
H773   H     0.53942   0.35874   0.67694   0.00000  Uiso   1.00
H774   H     0.59934   0.35433   0.71264   0.00000  Uiso   1.00
C775   C     0.43942   0.66622   0.79990   0.00000  Uiso   1.00
H776   H     0.42492   0.36713   0.82011   0.00000  Uiso   1.00
H777   H     0.40066   0.64567   0.78736   0.00000  Uiso   1.00
H778   H     0.46058   0.64126   0.82306   0.00000  Uiso   1.00
N779   N     0.33859   0.47870   0.69426   0.00000  Uiso   1.00
O780   O     0.33755   0.51644   0.66634   0.00000  Uiso   1.00
O781   O     0.34482   0.43166   0.67866   0.00000  Uiso   1.00
N782   N     0.66141   0.52130   0.80574   0.00000  Uiso   1.00
O783   O     0.66245   0.48356   0.83366   0.00000  Uiso   1.00
O784   O     0.65517   0.56834   0.82134   0.00000  Uiso   1.00
O785   O     0.79642   0.57952   0.75299   0.00000  Uiso   1.00
O786   O     0.87025   0.42048   0.74702   0.00000  Uiso   1.00
O787   O     0.89280   0.57054   0.74519   0.00000  Uiso   1.00
O788   O     0.77387   0.42946   0.75482   0.00000  Uiso   1.00
C789   C     0.84786   0.59790   0.74813   0.00000  Uiso   1.00
C790   C     0.81880   0.40210   0.75187   0.00000  Uiso   1.00
O791   O     0.78514   0.50450   0.81998   0.00000  Uiso   1.00
O792   O     0.88153   0.49550   0.68003   0.00000  Uiso   1.00
O793   O     0.88152   0.49552   0.81218   0.00000  Uiso   1.00
O794   O     0.78515   0.50448   0.68783   0.00000  Uiso   1.00
C795   C     0.83412   0.49948   0.83651   0.00000  Uiso   1.00
C796   C     0.83255   0.50052   0.66349   0.00000  Uiso   1.00
Zn797  Zn    0.76898   0.50600   0.75521   0.00000  Uiso   1.00
Zn798  Zn    0.89769   0.49400   0.74479   0.00000  Uiso   1.00
C799   C     0.78258   0.48466   0.59462   0.00000  Uiso   1.00
C800   C     0.88409   0.51534   0.90538   0.00000  Uiso   1.00
C801   C     0.83161   0.50214   0.61567   0.00000  Uiso   1.00
C802   C     0.83506   0.49786   0.88433   0.00000  Uiso   1.00
C803   C     0.88109   0.51955   0.59101   0.00000  Uiso   1.00
C804   C     0.78558   0.48045   0.90899   0.00000  Uiso   1.00
C805   C     0.88223   0.51874   0.54475   0.00000  Uiso   1.00
C806   C     0.78443   0.48126   0.95525   0.00000  Uiso   1.00
C807   C     0.83288   0.50071   0.52327   0.00000  Uiso   1.00
C808   C     0.83378   0.49929   0.97673   0.00000  Uiso   1.00
C809   C     0.78272   0.48391   0.54834   0.00000  Uiso   1.00
C810   C     0.88395   0.51609   0.95166   0.00000  Uiso   1.00
C811   C     0.93191   0.53524   0.51973   0.00000  Uiso   1.00
C812   C     0.73476   0.46476   0.98027   0.00000  Uiso   1.00
C813   C     0.93276   0.53393   0.97322   0.00000  Uiso   1.00
C814   C     0.73391   0.46607   0.52679   0.00000  Uiso   1.00
H815   H     0.74508   0.47024   0.61405   0.00000  Uiso   1.00
H816   H     0.92159   0.52976   0.88595   0.00000  Uiso   1.00
H817   H     0.91876   0.53353   0.60784   0.00000  Uiso   1.00
H818   H     0.74791   0.46647   0.89216   0.00000  Uiso   1.00
H819   H     0.96997   0.54900   0.53610   0.00000  Uiso   1.00
H820   H     0.69670   0.45100   0.96390   0.00000  Uiso   1.00
H821   H     0.97142   0.54680   0.95414   0.00000  Uiso   1.00
H822   H     0.69524   0.45320   0.54586   0.00000  Uiso   1.00
C823   C     0.85274   0.65115   0.73931   0.00000  Uiso   1.00
C824   C     0.81393   0.34885   0.76069   0.00000  Uiso   1.00
N825   N     0.98344   0.48598   0.73783   0.00000  Uiso   1.00
N826   N     0.68322   0.51402   0.76217   0.00000  Uiso   1.00
C827   C     0.89392   0.33378   0.70010   0.00000  Uiso   1.00
H828   H     0.90841   0.63287   0.67989   0.00000  Uiso   1.00
H829   H     0.87275   0.35874   0.67694   0.00000  Uiso   1.00
H830   H     0.93267   0.35433   0.71264   0.00000  Uiso   1.00
C831   C     0.77275   0.66622   0.79990   0.00000  Uiso   1.00
H832   H     0.75826   0.36713   0.82011   0.00000  Uiso   1.00
H833   H     0.73400   0.64567   0.78736   0.00000  Uiso   1.00
H834   H     0.79392   0.64126   0.82306   0.00000  Uiso   1.00
N835   N     0.67192   0.47870   0.69426   0.00000  Uiso   1.00
O836   O     0.67089   0.51644   0.66634   0.00000  Uiso   1.00
O837   O     0.67816   0.43166   0.67866   0.00000  Uiso   1.00
N838   N     0.99474   0.52130   0.80574   0.00000  Uiso   1.00
O839   O     0.99578   0.48356   0.83366   0.00000  Uiso   1.00
O840   O     0.98851   0.56834   0.82134   0.00000  Uiso   1.00
O841   O     0.12975   0.91286   0.75299   0.00000  Uiso   1.00
O842   O     0.20358   0.75381   0.74702   0.00000  Uiso   1.00
O843   O     0.22613   0.90387   0.74519   0.00000  Uiso   1.00
O844   O     0.10720   0.76279   0.75482   0.00000  Uiso   1.00
C845   C     0.18120   0.93124   0.74813   0.00000  Uiso   1.00
C846   C     0.15214   0.73543   0.75187   0.00000  Uiso   1.00
O847   O     0.11847   0.83784   0.81998   0.00000  Uiso   1.00
O848   O     0.21486   0.82883   0.68003   0.00000  Uiso   1.00
O849   O     0.21485   0.82885   0.81218   0.00000  Uiso   1.00
O850   O     0.11848   0.83781   0.68783   0.00000  Uiso   1.00
C851   C     0.16745   0.83281   0.83651   0.00000  Uiso   1.00
C852   C     0.16588   0.83386   0.66349   0.00000  Uiso   1.00
Zn853  Zn    0.10231   0.83933   0.75521   0.00000  Uiso   1.00
Zn854  Zn    0.23102   0.82734   0.74479   0.00000  Uiso   1.00
C855   C     0.11591   0.81800   0.59462   0.00000  Uiso   1.00
C856   C     0.21742   0.84867   0.90538   0.00000  Uiso   1.00
C857   C     0.16494   0.83547   0.61567   0.00000  Uiso   1.00
C858   C     0.16839   0.83120   0.88433   0.00000  Uiso   1.00
C859   C     0.21442   0.85288   0.59101   0.00000  Uiso   1.00
C860   C     0.11891   0.81379   0.90899   0.00000  Uiso   1.00
C861   C     0.21557   0.85207   0.54475   0.00000  Uiso   1.00
C862   C     0.11777   0.81460   0.95525   0.00000  Uiso   1.00
C863   C     0.16622   0.83405   0.52327   0.00000  Uiso   1.00
C864   C     0.16712   0.83262   0.97673   0.00000  Uiso   1.00
C865   C     0.11605   0.81725   0.54834   0.00000  Uiso   1.00
C866   C     0.21728   0.84942   0.95166   0.00000  Uiso   1.00
C867   C     0.26524   0.86857   0.51973   0.00000  Uiso   1.00
C868   C     0.06809   0.79809   0.98027   0.00000  Uiso   1.00
C869   C     0.26609   0.86726   0.97322   0.00000  Uiso   1.00
C870   C     0.06724   0.79940   0.52679   0.00000  Uiso   1.00
H871   H     0.07841   0.80358   0.61405   0.00000  Uiso   1.00
H872   H     0.25492   0.86309   0.88595   0.00000  Uiso   1.00
H873   H     0.25209   0.86686   0.60784   0.00000  Uiso   1.00
H874   H     0.08124   0.79980   0.89216   0.00000  Uiso   1.00
H875   H     0.30330   0.88233   0.53610   0.00000  Uiso   1.00
H876   H     0.03003   0.78433   0.96390   0.00000  Uiso   1.00
H877   H     0.30476   0.88013   0.95414   0.00000  Uiso   1.00
H878   H     0.02858   0.78653   0.54586   0.00000  Uiso   1.00
C879   C     0.18607   0.98449   0.73931   0.00000  Uiso   1.00
C880   C     0.14726   0.68218   0.76069   0.00000  Uiso   1.00
N881   N     0.31678   0.81932   0.73783   0.00000  Uiso   1.00
N882   N     0.01656   0.84735   0.76217   0.00000  Uiso   1.00
C883   C     0.22725   0.66712   0.70010   0.00000  Uiso   1.00
H884   H     0.24174   0.96621   0.67989   0.00000  Uiso   1.00
H885   H     0.20608   0.69208   0.67694   0.00000  Uiso   1.00
H886   H     0.26601   0.68766   0.71264   0.00000  Uiso   1.00
C887   C     0.10608   0.99955   0.79990   0.00000  Uiso   1.00
H888   H     0.09159   0.70046   0.82011   0.00000  Uiso   1.00
H889   H     0.06733   0.97901   0.78736   0.00000  Uiso   1.00
H890   H     0.12725   0.97459   0.82306   0.00000  Uiso   1.00
N891   N     0.00526   0.81203   0.69426   0.00000  Uiso   1.00
O892   O     0.00422   0.84977   0.66634   0.00000  Uiso   1.00
O893   O     0.01149   0.76500   0.67866   0.00000  Uiso   1.00
N894   N     0.32808   0.85464   0.80574   0.00000  Uiso   1.00
O895   O     0.32912   0.81689   0.83366   0.00000  Uiso   1.00
O896   O     0.32184   0.90167   0.82134   0.00000  Uiso   1.00
O897   O     0.46308   0.91286   0.75299   0.00000  Uiso   1.00
O898   O     0.53692   0.75381   0.74702   0.00000  Uiso   1.00
O899   O     0.55946   0.90387   0.74519   0.00000  Uiso   1.00
O900   O     0.44054   0.76279   0.75482   0.00000  Uiso   1.00
C901   C     0.51453   0.93124   0.74813   0.00000  Uiso   1.00
C902   C     0.48547   0.73543   0.75187   0.00000  Uiso   1.00
O903   O     0.45181   0.83784   0.81998   0.00000  Uiso   1.00
O904   O     0.54819   0.82883   0.68003   0.00000  Uiso   1.00
O905   O     0.54819   0.82885   0.81218   0.00000  Uiso   1.00
O906   O     0.45181   0.83781   0.68783   0.00000  Uiso   1.00
C907   C     0.50078   0.83281   0.83651   0.00000  Uiso   1.00
C908   C     0.49922   0.83386   0.66349   0.00000  Uiso   1.00
Zn909  Zn    0.43565   0.83933   0.75521   0.00000  Uiso   1.00
Zn910  Zn    0.56435   0.82734   0.74479   0.00000  Uiso   1.00
C911   C     0.44925   0.81800   0.59462   0.00000  Uiso   1.00
C912   C     0.55075   0.84867   0.90538   0.00000  Uiso   1.00
C913   C     0.49828   0.83547   0.61567   0.00000  Uiso   1.00
C914   C     0.50173   0.83120   0.88433   0.00000  Uiso   1.00
C915   C     0.54775   0.85288   0.59101   0.00000  Uiso   1.00
C916   C     0.45225   0.81379   0.90899   0.00000  Uiso   1.00
C917   C     0.54890   0.85207   0.54475   0.00000  Uiso   1.00
C918   C     0.45110   0.81460   0.95525   0.00000  Uiso   1.00
C919   C     0.49955   0.83405   0.52327   0.00000  Uiso   1.00
C920   C     0.50045   0.83262   0.97673   0.00000  Uiso   1.00
C921   C     0.44938   0.81725   0.54834   0.00000  Uiso   1.00
C922   C     0.55062   0.84942   0.95166   0.00000  Uiso   1.00
C923   C     0.59857   0.86857   0.51973   0.00000  Uiso   1.00
C924   C     0.40143   0.79809   0.98027   0.00000  Uiso   1.00
C925   C     0.59943   0.86726   0.97322   0.00000  Uiso   1.00
C926   C     0.40057   0.79940   0.52679   0.00000  Uiso   1.00
H927   H     0.41175   0.80358   0.61405   0.00000  Uiso   1.00
H928   H     0.58825   0.86309   0.88595   0.00000  Uiso   1.00
H929   H     0.58542   0.86686   0.60784   0.00000  Uiso   1.00
H930   H     0.41458   0.79980   0.89216   0.00000  Uiso   1.00
H931   H     0.63664   0.88233   0.53610   0.00000  Uiso   1.00
H932   H     0.36336   0.78433   0.96390   0.00000  Uiso   1.00
H933   H     0.63809   0.88013   0.95414   0.00000  Uiso   1.00
H934   H     0.36191   0.78653   0.54586   0.00000  Uiso   1.00
C935   C     0.51941   0.98449   0.73931   0.00000  Uiso   1.00
C936   C     0.48059   0.68218   0.76069   0.00000  Uiso   1.00
N937   N     0.65011   0.81932   0.73783   0.00000  Uiso   1.00
N938   N     0.34989   0.84735   0.76217   0.00000  Uiso   1.00
C939   C     0.56058   0.66712   0.70010   0.00000  Uiso   1.00
H940   H     0.57508   0.96621   0.67989   0.00000  Uiso   1.00
H941   H     0.53942   0.69208   0.67694   0.00000  Uiso   1.00
H942   H     0.59934   0.68766   0.71264   0.00000  Uiso   1.00
C943   C     0.43942   0.99955   0.79990   0.00000  Uiso   1.00
H944   H     0.42492   0.70046   0.82011   0.00000  Uiso   1.00
H945   H     0.40066   0.97901   0.78736   0.00000  Uiso   1.00
H946   H     0.46058   0.97459   0.82306   0.00000  Uiso   1.00
N947   N     0.33859   0.81203   0.69426   0.00000  Uiso   1.00
O948   O     0.33755   0.84977   0.66634   0.00000  Uiso   1.00
O949   O     0.34482   0.76500   0.67866   0.00000  Uiso   1.00
N950   N     0.66141   0.85464   0.80574   0.00000  Uiso   1.00
O951   O     0.66245   0.81689   0.83366   0.00000  Uiso   1.00
O952   O     0.65517   0.90167   0.82134   0.00000  Uiso   1.00
O953   O     0.79642   0.91286   0.75299   0.00000  Uiso   1.00
O954   O     0.87025   0.75381   0.74702   0.00000  Uiso   1.00
O955   O     0.89280   0.90387   0.74519   0.00000  Uiso   1.00
O956   O     0.77387   0.76279   0.75482   0.00000  Uiso   1.00
C957   C     0.84786   0.93124   0.74813   0.00000  Uiso   1.00
C958   C     0.81880   0.73543   0.75187   0.00000  Uiso   1.00
O959   O     0.78514   0.83784   0.81998   0.00000  Uiso   1.00
O960   O     0.88153   0.82883   0.68003   0.00000  Uiso   1.00
O961   O     0.88152   0.82885   0.81218   0.00000  Uiso   1.00
O962   O     0.78515   0.83781   0.68783   0.00000  Uiso   1.00
C963   C     0.83412   0.83281   0.83651   0.00000  Uiso   1.00
C964   C     0.83255   0.83386   0.66349   0.00000  Uiso   1.00
Zn965  Zn    0.76898   0.83933   0.75521   0.00000  Uiso   1.00
Zn966  Zn    0.89769   0.82734   0.74479   0.00000  Uiso   1.00
C967   C     0.78258   0.81800   0.59462   0.00000  Uiso   1.00
C968   C     0.88409   0.84867   0.90538   0.00000  Uiso   1.00
C969   C     0.83161   0.83547   0.61567   0.00000  Uiso   1.00
C970   C     0.83506   0.83120   0.88433   0.00000  Uiso   1.00
C971   C     0.88109   0.85288   0.59101   0.00000  Uiso   1.00
C972   C     0.78558   0.81379   0.90899   0.00000  Uiso   1.00
C973   C     0.88223   0.85207   0.54475   0.00000  Uiso   1.00
C974   C     0.78443   0.81460   0.95525   0.00000  Uiso   1.00
C975   C     0.83288   0.83405   0.52327   0.00000  Uiso   1.00
C976   C     0.83378   0.83262   0.97673   0.00000  Uiso   1.00
C977   C     0.78272   0.81725   0.54834   0.00000  Uiso   1.00
C978   C     0.88395   0.84942   0.95166   0.00000  Uiso   1.00
C979   C     0.93191   0.86857   0.51973   0.00000  Uiso   1.00
C980   C     0.73476   0.79809   0.98027   0.00000  Uiso   1.00
C981   C     0.93276   0.86726   0.97322   0.00000  Uiso   1.00
C982   C     0.73391   0.79940   0.52679   0.00000  Uiso   1.00
H983   H     0.74508   0.80358   0.61405   0.00000  Uiso   1.00
H984   H     0.92159   0.86309   0.88595   0.00000  Uiso   1.00
H985   H     0.91876   0.86686   0.60784   0.00000  Uiso   1.00
H986   H     0.74791   0.79980   0.89216   0.00000  Uiso   1.00
H987   H     0.96997   0.88233   0.53610   0.00000  Uiso   1.00
H988   H     0.69670   0.78433   0.96390   0.00000  Uiso   1.00
H989   H     0.97142   0.88013   0.95414   0.00000  Uiso   1.00
H990   H     0.69524   0.78653   0.54586   0.00000  Uiso   1.00
C991   C     0.85274   0.98449   0.73931   0.00000  Uiso   1.00
C992   C     0.81393   0.68218   0.76069   0.00000  Uiso   1.00
N993   N     0.98344   0.81932   0.73783   0.00000  Uiso   1.00
N994   N     0.68322   0.84735   0.76217   0.00000  Uiso   1.00
C995   C     0.89392   0.66712   0.70010   0.00000  Uiso   1.00
H996   H     0.90841   0.96621   0.67989   0.00000  Uiso   1.00
H997   H     0.87275   0.69208   0.67694   0.00000  Uiso   1.00
H998   H     0.93267   0.68766   0.71264   0.00000  Uiso   1.00
C999   C     0.77275   0.99955   0.79990   0.00000  Uiso   1.00
H1000  H     0.75826   0.70046   0.82011   0.00000  Uiso   1.00
H1001  H     0.73400   0.97901   0.78736   0.00000  Uiso   1.00
H1002  H     0.79392   0.97459   0.82306   0.00000  Uiso   1.00
N1003  N     0.67192   0.81203   0.69426   0.00000  Uiso   1.00
O1004  O     0.67089   0.84977   0.66634   0.00000  Uiso   1.00
O1005  O     0.67816   0.76500   0.67866   0.00000  Uiso   1.00
N1006  N     0.99474   0.85464   0.80574   0.00000  Uiso   1.00
O1007  O     0.99578   0.81689   0.83366   0.00000  Uiso   1.00
O1008  O     0.98851   0.90167   0.82134   0.00000  Uiso   1.00
loop_
_geom_bond_atom_site_label_1
_geom_bond_atom_site_label_2
_geom_bond_distance
_geom_bond_site_symmetry_2
_ccdc_geom_bond_type
O1     C5      1.276   .     A
O1     Zn13    1.976   .     S
O2     C6      1.276   .     A
O2     Zn14    1.976   .     S
O3     Zn14    1.983   .     S
O3     C5      1.292   .     A
O4     C6      1.292   .     A
O4     Zn13    1.983   .     S
C5     C39     1.404   .     S
C6     C40     1.404   .     S
O7     C11     1.290   .     A
O7     Zn13    1.997   .     S
O8     Zn14    1.997   .     S
O8     C12     1.290   .     A
O9     Zn14    2.027   .     S
O9     C11     1.297   .     A
O10    C12     1.297   .     A
O10    Zn13    2.027   .     S
C11    C18     1.433   .     S
C12    C17     1.433   .     S
Zn13   N42     2.026   .     S
Zn14   N41     2.026   .     S
C15    H31     1.080   .     S
C15    C25     1.383   .     A
C15    C17     1.394   .     A
C16    H32     1.080   .     S
C16    C26     1.383   .     A
C16    C18     1.394   .     A
C17    C19     1.398   .     A
C18    C20     1.398   .     A
C19    C21     1.382   .     A
C19    H33     1.085   .     S
C20    H34     1.085   .     S
C20    C22     1.382   .     A
C21    C27     1.400   .     A
C21    C23     1.410   .     A
C22    C28     1.400   .     A
C22    C24     1.410   .     A
C23    C25     1.412   .     A
C23    C528    1.390   1_554 S
C24    C26     1.412   .     A
C24    C527    1.390   .     S
C25    C30     1.400   .     A
C26    C29     1.400   .     A
C27    H35     1.084   .     S
C27    C533    1.389   1_554 S
C28    H36     1.084   .     S
C28    C534    1.389   .     S
C29    H37     1.084   .     S
C29    C531    1.389   .     S
C30    H38     1.084   .     S
C30    C532    1.389   1_554 S
C39    C208    1.359   .     S
C39    C211    1.525   .     S
C40    C375    1.359   1_545 S
C40    C383    1.525   1_545 S
N41    N98     1.282   .     S
N41    N107    1.382   .     S
N42    N153    1.282   1_455 S
N42    N166    1.382   1_455 S
C43    H45     1.111   .     S
C43    H46     1.110   .     S
C43    C375    1.525   1_545 S
C43    H380    1.112   1_545 S
H44    C211    1.112   .     S
C47    H49     1.110   .     S
C47    H50     1.111   .     S
C47    C208    1.525   .     S
C47    H216    1.112   .     S
H48    C383    1.112   1_545 S
N51    O53     1.300   .     A
N51    O52     1.301   .     A
N51    N153    1.382   1_455 S
N54    O55     1.301   .     A
N54    O56     1.300   .     A
N54    N98     1.382   .     S
O57    C61     1.276   .     A
O57    Zn69    1.976   .     S
O58    C62     1.276   .     A
O58    Zn70    1.976   .     S
O59    Zn70    1.983   .     S
O59    C61     1.292   .     A
O60    C62     1.292   .     A
O60    Zn69    1.983   .     S
C61    C95     1.404   .     S
C62    C96     1.404   .     S
O63    C67     1.290   .     A
O63    Zn69    1.997   .     S
O64    Zn70    1.997   .     S
O64    C68     1.290   .     A
O65    Zn70    2.027   .     S
O65    C67     1.297   .     A
O66    C68     1.297   .     A
O66    Zn69    2.027   .     S
C67    C74     1.433   .     S
C68    C73     1.433   .     S
Zn69   N98     2.026   .     S
Zn70   N97     2.026   .     S
C71    H87     1.080   .     S
C71    C81     1.383   .     A
C71    C73     1.394   .     A
C72    H88     1.080   .     S
C72    C82     1.383   .     A
C72    C74     1.394   .     A
C73    C75     1.398   .     A
C74    C76     1.398   .     A
C75    C77     1.382   .     A
C75    H89     1.085   .     S
C76    H90     1.085   .     S
C76    C78     1.382   .     A
C77    C83     1.400   .     A
C77    C79     1.410   .     A
C78    C84     1.400   .     A
C78    C80     1.410   .     A
C79    C81     1.412   .     A
C79    C584    1.390   1_554 S
C80    C82     1.412   .     A
C80    C583    1.390   .     S
C81    C86     1.400   .     A
C82    C85     1.400   .     A
C83    H91     1.084   .     S
C83    C589    1.389   1_554 S
C84    H92     1.084   .     S
C84    C590    1.389   .     S
C85    H93     1.084   .     S
C85    C587    1.389   .     S
C86    H94     1.084   .     S
C86    C588    1.389   1_554 S
C95    C264    1.359   .     S
C95    C267    1.525   .     S
C96    C431    1.359   1_545 S
C96    C439    1.525   1_545 S
N97    N154    1.282   .     S
N97    N163    1.382   .     S
C99    H101    1.111   .     S
C99    H102    1.110   .     S
C99    C431    1.525   1_545 S
C99    H436    1.112   1_545 S
H100   C267    1.112   .     S
C103   H105    1.110   .     S
C103   H106    1.111   .     S
C103   C264    1.525   .     S
C103   H272    1.112   .     S
H104   C439    1.112   1_545 S
N107   O109    1.300   .     A
N107   O108    1.301   .     A
N110   O111    1.301   .     A
N110   O112    1.300   .     A
N110   N154    1.382   .     S
O113   C117    1.276   .     A
O113   Zn125   1.976   .     S
O114   C118    1.276   .     A
O114   Zn126   1.976   .     S
O115   Zn126   1.983   .     S
O115   C117    1.292   .     A
O116   C118    1.292   .     A
O116   Zn125   1.983   .     S
C117   C151    1.404   .     S
C118   C152    1.404   .     S
O119   C123    1.290   .     A
O119   Zn125   1.997   .     S
O120   Zn126   1.997   .     S
O120   C124    1.290   .     A
O121   Zn126   2.027   .     S
O121   C123    1.297   .     A
O122   C124    1.297   .     A
O122   Zn125   2.027   .     S
C123   C130    1.433   .     S
C124   C129    1.433   .     S
Zn125  N154    2.026   .     S
Zn126  N153    2.026   .     S
C127   H143    1.080   .     S
C127   C137    1.383   .     A
C127   C129    1.394   .     A
C128   H144    1.080   .     S
C128   C138    1.383   .     A
C128   C130    1.394   .     A
C129   C131    1.398   .     A
C130   C132    1.398   .     A
C131   C133    1.382   .     A
C131   H145    1.085   .     S
C132   H146    1.085   .     S
C132   C134    1.382   .     A
C133   C139    1.400   .     A
C133   C135    1.410   .     A
C134   C140    1.400   .     A
C134   C136    1.410   .     A
C135   C137    1.412   .     A
C135   C640    1.390   1_554 S
C136   C138    1.412   .     A
C136   C639    1.390   .     S
C137   C142    1.400   .     A
C138   C141    1.400   .     A
C139   H147    1.084   .     S
C139   C645    1.389   1_554 S
C140   H148    1.084   .     S
C140   C646    1.389   .     S
C141   H149    1.084   .     S
C141   C643    1.389   .     S
C142   H150    1.084   .     S
C142   C644    1.389   1_554 S
C151   C320    1.359   .     S
C151   C323    1.525   .     S
C152   C487    1.359   1_545 S
C152   C495    1.525   1_545 S
N153   N42     1.282   1_655 S
N153   N51     1.382   1_655 S
C155   H157    1.111   .     S
C155   H158    1.110   .     S
C155   C487    1.525   1_545 S
C155   H492    1.112   1_545 S
H156   C323    1.112   .     S
C159   H161    1.110   .     S
C159   H162    1.111   .     S
C159   C320    1.525   .     S
C159   H328    1.112   .     S
H160   C495    1.112   1_545 S
N163   O165    1.300   .     A
N163   O164    1.301   .     A
N166   O167    1.301   .     A
N166   O168    1.300   .     A
N166   N42     1.382   1_655 S
O169   C173    1.276   .     A
O169   Zn181   1.976   .     S
O170   C174    1.276   .     A
O170   Zn182   1.976   .     S
O171   Zn182   1.983   .     S
O171   C173    1.292   .     A
O172   C174    1.292   .     A
O172   Zn181   1.983   .     S
C173   C207    1.404   .     S
C174   C208    1.404   .     S
O175   C179    1.290   .     A
O175   Zn181   1.997   .     S
O176   Zn182   1.997   .     S
O176   C180    1.290   .     A
O177   Zn182   2.027   .     S
O177   C179    1.297   .     A
O178   C180    1.297   .     A
O178   Zn181   2.027   .     S
C179   C186    1.433   .     S
C180   C185    1.433   .     S
Zn181  N210    2.026   .     S
Zn182  N209    2.026   .     S
C183   H199    1.080   .     S
C183   C193    1.383   .     A
C183   C185    1.394   .     A
C184   H200    1.080   .     S
C184   C194    1.383   .     A
C184   C186    1.394   .     A
C185   C187    1.398   .     A
C186   C188    1.398   .     A
C187   C189    1.382   .     A
C187   H201    1.085   .     S
C188   H202    1.085   .     S
C188   C190    1.382   .     A
C189   C195    1.400   .     A
C189   C191    1.410   .     A
C190   C196    1.400   .     A
C190   C192    1.410   .     A
C191   C193    1.412   .     A
C191   C696    1.390   1_554 S
C192   C194    1.412   .     A
C192   C695    1.390   .     S
C193   C198    1.400   .     A
C194   C197    1.400   .     A
C195   H203    1.084   .     S
C195   C701    1.389   1_554 S
C196   H204    1.084   .     S
C196   C702    1.389   .     S
C197   H205    1.084   .     S
C197   C699    1.389   .     S
C198   H206    1.084   .     S
C198   C700    1.389   1_554 S
C207   C376    1.359   .     S
C207   C379    1.525   .     S
N209   N266    1.282   .     S
N209   N275    1.382   .     S
N210   N321    1.282   1_455 S
N210   N334    1.382   1_455 S
C211   H213    1.111   .     S
C211   H214    1.110   .     S
H212   C379    1.112   .     S
C215   H217    1.110   .     S
C215   H218    1.111   .     S
C215   C376    1.525   .     S
C215   H384    1.112   .     S
N219   O221    1.300   .     A
N219   O220    1.301   .     A
N219   N321    1.382   1_455 S
N222   O223    1.301   .     A
N222   O224    1.300   .     A
N222   N266    1.382   .     S
O225   C229    1.276   .     A
O225   Zn237   1.976   .     S
O226   C230    1.276   .     A
O226   Zn238   1.976   .     S
O227   Zn238   1.983   .     S
O227   C229    1.292   .     A
O228   C230    1.292   .     A
O228   Zn237   1.983   .     S
C229   C263    1.404   .     S
C230   C264    1.404   .     S
O231   C235    1.290   .     A
O231   Zn237   1.997   .     S
O232   Zn238   1.997   .     S
O232   C236    1.290   .     A
O233   Zn238   2.027   .     S
O233   C235    1.297   .     A
O234   C236    1.297   .     A
O234   Zn237   2.027   .     S
C235   C242    1.433   .     S
C236   C241    1.433   .     S
Zn237  N266    2.026   .     S
Zn238  N265    2.026   .     S
C239   H255    1.080   .     S
C239   C249    1.383   .     A
C239   C241    1.394   .     A
C240   H256    1.080   .     S
C240   C250    1.383   .     A
C240   C242    1.394   .     A
C241   C243    1.398   .     A
C242   C244    1.398   .     A
C243   C245    1.382   .     A
C243   H257    1.085   .     S
C244   H258    1.085   .     S
C244   C246    1.382   .     A
C245   C251    1.400   .     A
C245   C247    1.410   .     A
C246   C252    1.400   .     A
C246   C248    1.410   .     A
C247   C249    1.412   .     A
C247   C752    1.390   1_554 S
C248   C250    1.412   .     A
C248   C751    1.390   .     S
C249   C254    1.400   .     A
C250   C253    1.400   .     A
C251   H259    1.084   .     S
C251   C757    1.389   1_554 S
C252   H260    1.084   .     S
C252   C758    1.389   .     S
C253   H261    1.084   .     S
C253   C755    1.389   .     S
C254   H262    1.084   .     S
C254   C756    1.389   1_554 S
C263   C432    1.359   .     S
C263   C435    1.525   .     S
N265   N322    1.282   .     S
N265   N331    1.382   .     S
C267   H269    1.111   .     S
C267   H270    1.110   .     S
H268   C435    1.112   .     S
C271   H273    1.110   .     S
C271   H274    1.111   .     S
C271   C432    1.525   .     S
C271   H440    1.112   .     S
N275   O277    1.300   .     A
N275   O276    1.301   .     A
N278   O279    1.301   .     A
N278   O280    1.300   .     A
N278   N322    1.382   .     S
O281   C285    1.276   .     A
O281   Zn293   1.976   .     S
O282   C286    1.276   .     A
O282   Zn294   1.976   .     S
O283   Zn294   1.983   .     S
O283   C285    1.292   .     A
O284   C286    1.292   .     A
O284   Zn293   1.983   .     S
C285   C319    1.404   .     S
C286   C320    1.404   .     S
O287   C291    1.290   .     A
O287   Zn293   1.997   .     S
O288   Zn294   1.997   .     S
O288   C292    1.290   .     A
O289   Zn294   2.027   .     S
O289   C291    1.297   .     A
O290   C292    1.297   .     A
O290   Zn293   2.027   .     S
C291   C298    1.433   .     S
C292   C297    1.433   .     S
Zn293  N322    2.026   .     S
Zn294  N321    2.026   .     S
C295   H311    1.080   .     S
C295   C305    1.383   .     A
C295   C297    1.394   .     A
C296   H312    1.080   .     S
C296   C306    1.383   .     A
C296   C298    1.394   .     A
C297   C299    1.398   .     A
C298   C300    1.398   .     A
C299   C301    1.382   .     A
C299   H313    1.085   .     S
C300   H314    1.085   .     S
C300   C302    1.382   .     A
C301   C307    1.400   .     A
C301   C303    1.410   .     A
C302   C308    1.400   .     A
C302   C304    1.410   .     A
C303   C305    1.412   .     A
C303   C808    1.390   1_554 S
C304   C306    1.412   .     A
C304   C807    1.390   .     S
C305   C310    1.400   .     A
C306   C309    1.400   .     A
C307   H315    1.084   .     S
C307   C813    1.389   1_554 S
C308   H316    1.084   .     S
C308   C814    1.389   .     S
C309   H317    1.084   .     S
C309   C811    1.389   .     S
C310   H318    1.084   .     S
C310   C812    1.389   1_554 S
C319   C488    1.359   .     S
C319   C491    1.525   .     S
N321   N210    1.282   1_655 S
N321   N219    1.382   1_655 S
C323   H325    1.111   .     S
C323   H326    1.110   .     S
H324   C491    1.112   .     S
C327   H329    1.110   .     S
C327   H330    1.111   .     S
C327   C488    1.525   .     S
C327   H496    1.112   .     S
N331   O333    1.300   .     A
N331   O332    1.301   .     A
N334   O335    1.301   .     A
N334   O336    1.300   .     A
N334   N210    1.382   1_655 S
O337   C341    1.276   .     A
O337   Zn349   1.976   .     S
O338   C342    1.276   .     A
O338   Zn350   1.976   .     S
O339   Zn350   1.983   .     S
O339   C341    1.292   .     A
O340   C342    1.292   .     A
O340   Zn349   1.983   .     S
C341   C375    1.404   .     S
C342   C376    1.404   .     S
O343   C347    1.290   .     A
O343   Zn349   1.997   .     S
O344   Zn350   1.997   .     S
O344   C348    1.290   .     A
O345   Zn350   2.027   .     S
O345   C347    1.297   .     A
O346   C348    1.297   .     A
O346   Zn349   2.027   .     S
C347   C354    1.433   .     S
C348   C353    1.433   .     S
Zn349  N378    2.026   .     S
Zn350  N377    2.026   .     S
C351   H367    1.080   .     S
C351   C361    1.383   .     A
C351   C353    1.394   .     A
C352   H368    1.080   .     S
C352   C362    1.383   .     A
C352   C354    1.394   .     A
C353   C355    1.398   .     A
C354   C356    1.398   .     A
C355   C357    1.382   .     A
C355   H369    1.085   .     S
C356   H370    1.085   .     S
C356   C358    1.382   .     A
C357   C363    1.400   .     A
C357   C359    1.410   .     A
C358   C364    1.400   .     A
C358   C360    1.410   .     A
C359   C361    1.412   .     A
C359   C864    1.390   1_554 S
C360   C362    1.412   .     A
C360   C863    1.390   .     S
C361   C366    1.400   .     A
C362   C365    1.400   .     A
C363   H371    1.084   .     S
C363   C869    1.389   1_554 S
C364   H372    1.084   .     S
C364   C870    1.389   .     S
C365   H373    1.084   .     S
C365   C867    1.389   .     S
C366   H374    1.084   .     S
C366   C868    1.389   1_554 S
C375   C40     1.359   1_565 S
C375   C43     1.525   1_565 S
N377   N434    1.282   .     S
N377   N443    1.382   .     S
N378   N489    1.282   1_455 S
N378   N502    1.382   1_455 S
C379   H381    1.111   .     S
C379   H382    1.110   .     S
H380   C43     1.112   1_565 S
C383   H385    1.110   .     S
C383   H386    1.111   .     S
C383   C40     1.525   1_565 S
C383   H48     1.112   1_565 S
N387   O389    1.300   .     A
N387   O388    1.301   .     A
N387   N489    1.382   1_455 S
N390   O391    1.301   .     A
N390   O392    1.300   .     A
N390   N434    1.382   .     S
O393   C397    1.276   .     A
O393   Zn405   1.976   .     S
O394   C398    1.276   .     A
O394   Zn406   1.976   .     S
O395   Zn406   1.983   .     S
O395   C397    1.292   .     A
O396   C398    1.292   .     A
O396   Zn405   1.983   .     S
C397   C431    1.404   .     S
C398   C432    1.404   .     S
O399   C403    1.290   .     A
O399   Zn405   1.997   .     S
O400   Zn406   1.997   .     S
O400   C404    1.290   .     A
O401   Zn406   2.027   .     S
O401   C403    1.297   .     A
O402   C404    1.297   .     A
O402   Zn405   2.027   .     S
C403   C410    1.433   .     S
C404   C409    1.433   .     S
Zn405  N434    2.026   .     S
Zn406  N433    2.026   .     S
C407   H423    1.080   .     S
C407   C417    1.383   .     A
C407   C409    1.394   .     A
C408   H424    1.080   .     S
C408   C418    1.383   .     A
C408   C410    1.394   .     A
C409   C411    1.398   .     A
C410   C412    1.398   .     A
C411   C413    1.382   .     A
C411   H425    1.085   .     S
C412   H426    1.085   .     S
C412   C414    1.382   .     A
C413   C419    1.400   .     A
C413   C415    1.410   .     A
C414   C420    1.400   .     A
C414   C416    1.410   .     A
C415   C417    1.412   .     A
C415   C920    1.390   1_554 S
C416   C418    1.412   .     A
C416   C919    1.390   .     S
C417   C422    1.400   .     A
C418   C421    1.400   .     A
C419   H427    1.084   .     S
C419   C925    1.389   1_554 S
C420   H428    1.084   .     S
C420   C926    1.389   .     S
C421   H429    1.084   .     S
C421   C923    1.389   .     S
C422   H430    1.084   .     S
C422   C924    1.389   1_554 S
C431   C96     1.359   1_565 S
C431   C99     1.525   1_565 S
N433   N490    1.282   .     S
N433   N499    1.382   .     S
C435   H437    1.111   .     S
C435   H438    1.110   .     S
H436   C99     1.112   1_565 S
C439   H441    1.110   .     S
C439   H442    1.111   .     S
C439   C96     1.525   1_565 S
C439   H104    1.112   1_565 S
N443   O445    1.300   .     A
N443   O444    1.301   .     A
N446   O447    1.301   .     A
N446   O448    1.300   .     A
N446   N490    1.382   .     S
O449   C453    1.276   .     A
O449   Zn461   1.976   .     S
O450   C454    1.276   .     A
O450   Zn462   1.976   .     S
O451   Zn462   1.983   .     S
O451   C453    1.292   .     A
O452   C454    1.292   .     A
O452   Zn461   1.983   .     S
C453   C487    1.404   .     S
C454   C488    1.404   .     S
O455   C459    1.290   .     A
O455   Zn461   1.997   .     S
O456   Zn462   1.997   .     S
O456   C460    1.290   .     A
O457   Zn462   2.027   .     S
O457   C459    1.297   .     A
O458   C460    1.297   .     A
O458   Zn461   2.027   .     S
C459   C466    1.433   .     S
C460   C465    1.433   .     S
Zn461  N490    2.026   .     S
Zn462  N489    2.026   .     S
C463   H479    1.080   .     S
C463   C473    1.383   .     A
C463   C465    1.394   .     A
C464   H480    1.080   .     S
C464   C474    1.383   .     A
C464   C466    1.394   .     A
C465   C467    1.398   .     A
C466   C468    1.398   .     A
C467   C469    1.382   .     A
C467   H481    1.085   .     S
C468   H482    1.085   .     S
C468   C470    1.382   .     A
C469   C475    1.400   .     A
C469   C471    1.410   .     A
C470   C476    1.400   .     A
C470   C472    1.410   .     A
C471   C473    1.412   .     A
C471   C976    1.390   1_554 S
C472   C474    1.412   .     A
C472   C975    1.390   .     S
C473   C478    1.400   .     A
C474   C477    1.400   .     A
C475   H483    1.084   .     S
C475   C981    1.389   1_554 S
C476   H484    1.084   .     S
C476   C982    1.389   .     S
C477   H485    1.084   .     S
C477   C979    1.389   .     S
C478   H486    1.084   .     S
C478   C980    1.389   1_554 S
C487   C152    1.359   1_565 S
C487   C155    1.525   1_565 S
N489   N378    1.282   1_655 S
N489   N387    1.382   1_655 S
C491   H493    1.111   .     S
C491   H494    1.110   .     S
H492   C155    1.112   1_565 S
C495   H497    1.110   .     S
C495   H498    1.111   .     S
C495   C152    1.525   1_565 S
C495   H160    1.112   1_565 S
N499   O501    1.300   .     A
N499   O500    1.301   .     A
N502   O503    1.301   .     A
N502   O504    1.300   .     A
N502   N378    1.382   1_655 S
O505   C509    1.276   .     A
O505   Zn517   1.976   .     S
O506   C510    1.276   .     A
O506   Zn518   1.976   .     S
O507   Zn518   1.983   .     S
O507   C509    1.292   .     A
O508   C510    1.292   .     A
O508   Zn517   1.983   .     S
C509   C543    1.404   .     S
C510   C544    1.404   .     S
O511   C515    1.290   .     A
O511   Zn517   1.997   .     S
O512   Zn518   1.997   .     S
O512   C516    1.290   .     A
O513   Zn518   2.027   .     S
O513   C515    1.297   .     A
O514   C516    1.297   .     A
O514   Zn517   2.027   .     S
C515   C522    1.433   .     S
C516   C521    1.433   .     S
Zn517  N546    2.026   .     S
Zn518  N545    2.026   .     S
C519   H535    1.080   .     S
C519   C529    1.383   .     A
C519   C521    1.394   .     A
C520   H536    1.080   .     S
C520   C530    1.383   .     A
C520   C522    1.394   .     A
C521   C523    1.398   .     A
C522   C524    1.398   .     A
C523   C525    1.382   .     A
C523   H537    1.085   .     S
C524   H538    1.085   .     S
C524   C526    1.382   .     A
C525   C531    1.400   .     A
C525   C527    1.410   .     A
C526   C532    1.400   .     A
C526   C528    1.410   .     A
C527   C529    1.412   .     A
C528   C530    1.412   .     A
C528   C23     1.390   1_556 S
C529   C534    1.400   .     A
C530   C533    1.400   .     A
C531   H539    1.084   .     S
C532   H540    1.084   .     S
C532   C30     1.389   1_556 S
C533   H541    1.084   .     S
C533   C27     1.389   1_556 S
C534   H542    1.084   .     S
C543   C712    1.359   .     S
C543   C715    1.525   .     S
C544   C879    1.359   1_545 S
C544   C887    1.525   1_545 S
N545   N602    1.282   .     S
N545   N611    1.382   .     S
N546   N657    1.282   1_455 S
N546   N670    1.382   1_455 S
C547   H549    1.111   .     S
C547   H550    1.110   .     S
C547   C879    1.525   1_545 S
C547   H884    1.112   1_545 S
H548   C715    1.112   .     S
C551   H553    1.110   .     S
C551   H554    1.111   .     S
C551   C712    1.525   .     S
C551   H720    1.112   .     S
H552   C887    1.112   1_545 S
N555   O557    1.300   .     A
N555   O556    1.301   .     A
N555   N657    1.382   1_455 S
N558   O559    1.301   .     A
N558   O560    1.300   .     A
N558   N602    1.382   .     S
O561   C565    1.276   .     A
O561   Zn573   1.976   .     S
O562   C566    1.276   .     A
O562   Zn574   1.976   .     S
O563   Zn574   1.983   .     S
O563   C565    1.292   .     A
O564   C566    1.292   .     A
O564   Zn573   1.983   .     S
C565   C599    1.404   .     S
C566   C600    1.404   .     S
O567   C571    1.290   .     A
O567   Zn573   1.997   .     S
O568   Zn574   1.997   .     S
O568   C572    1.290   .     A
O569   Zn574   2.027   .     S
O569   C571    1.297   .     A
O570   C572    1.297   .     A
O570   Zn573   2.027   .     S
C571   C578    1.433   .     S
C572   C577    1.433   .     S
Zn573  N602    2.026   .     S
Zn574  N601    2.026   .     S
C575   H591    1.080   .     S
C575   C585    1.383   .     A
C575   C577    1.394   .     A
C576   H592    1.080   .     S
C576   C586    1.383   .     A
C576   C578    1.394   .     A
C577   C579    1.398   .     A
C578   C580    1.398   .     A
C579   C581    1.382   .     A
C579   H593    1.085   .     S
C580   H594    1.085   .     S
C580   C582    1.382   .     A
C581   C587    1.400   .     A
C581   C583    1.410   .     A
C582   C588    1.400   .     A
C582   C584    1.410   .     A
C583   C585    1.412   .     A
C584   C586    1.412   .     A
C584   C79     1.390   1_556 S
C585   C590    1.400   .     A
C586   C589    1.400   .     A
C587   H595    1.084   .     S
C588   H596    1.084   .     S
C588   C86     1.389   1_556 S
C589   H597    1.084   .     S
C589   C83     1.389   1_556 S
C590   H598    1.084   .     S
C599   C768    1.359   .     S
C599   C771    1.525   .     S
C600   C935    1.359   1_545 S
C600   C943    1.525   1_545 S
N601   N658    1.282   .     S
N601   N667    1.382   .     S
C603   H605    1.111   .     S
C603   H606    1.110   .     S
C603   C935    1.525   1_545 S
C603   H940    1.112   1_545 S
H604   C771    1.112   .     S
C607   H609    1.110   .     S
C607   H610    1.111   .     S
C607   C768    1.525   .     S
C607   H776    1.112   .     S
H608   C943    1.112   1_545 S
N611   O613    1.300   .     A
N611   O612    1.301   .     A
N614   O615    1.301   .     A
N614   O616    1.300   .     A
N614   N658    1.382   .     S
O617   C621    1.276   .     A
O617   Zn629   1.976   .     S
O618   C622    1.276   .     A
O618   Zn630   1.976   .     S
O619   Zn630   1.983   .     S
O619   C621    1.292   .     A
O620   C622    1.292   .     A
O620   Zn629   1.983   .     S
C621   C655    1.404   .     S
C622   C656    1.404   .     S
O623   C627    1.290   .     A
O623   Zn629   1.997   .     S
O624   Zn630   1.997   .     S
O624   C628    1.290   .     A
O625   Zn630   2.027   .     S
O625   C627    1.297   .     A
O626   C628    1.297   .     A
O626   Zn629   2.027   .     S
C627   C634    1.433   .     S
C628   C633    1.433   .     S
Zn629  N658    2.026   .     S
Zn630  N657    2.026   .     S
C631   H647    1.080   .     S
C631   C641    1.383   .     A
C631   C633    1.394   .     A
C632   H648    1.080   .     S
C632   C642    1.383   .     A
C632   C634    1.394   .     A
C633   C635    1.398   .     A
C634   C636    1.398   .     A
C635   C637    1.382   .     A
C635   H649    1.085   .     S
C636   H650    1.085   .     S
C636   C638    1.382   .     A
C637   C643    1.400   .     A
C637   C639    1.410   .     A
C638   C644    1.400   .     A
C638   C640    1.410   .     A
C639   C641    1.412   .     A
C640   C642    1.412   .     A
C640   C135    1.390   1_556 S
C641   C646    1.400   .     A
C642   C645    1.400   .     A
C643   H651    1.084   .     S
C644   H652    1.084   .     S
C644   C142    1.389   1_556 S
C645   H653    1.084   .     S
C645   C139    1.389   1_556 S
C646   H654    1.084   .     S
C655   C824    1.359   .     S
C655   C827    1.525   .     S
C656   C991    1.359   1_545 S
C656   C999    1.525   1_545 S
N657   N546    1.282   1_655 S
N657   N555    1.382   1_655 S
C659   H661    1.111   .     S
C659   H662    1.110   .     S
C659   C991    1.525   1_545 S
C659   H996    1.112   1_545 S
H660   C827    1.112   .     S
C663   H665    1.110   .     S
C663   H666    1.111   .     S
C663   C824    1.525   .     S
C663   H832    1.112   .     S
H664   C999    1.112   1_545 S
N667   O669    1.300   .     A
N667   O668    1.301   .     A
N670   O671    1.301   .     A
N670   O672    1.300   .     A
N670   N546    1.382   1_655 S
O673   C677    1.276   .     A
O673   Zn685   1.976   .     S
O674   C678    1.276   .     A
O674   Zn686   1.976   .     S
O675   Zn686   1.983   .     S
O675   C677    1.292   .     A
O676   C678    1.292   .     A
O676   Zn685   1.983   .     S
C677   C711    1.404   .     S
C678   C712    1.404   .     S
O679   C683    1.290   .     A
O679   Zn685   1.997   .     S
O680   Zn686   1.997   .     S
O680   C684    1.290   .     A
O681   Zn686   2.027   .     S
O681   C683    1.297   .     A
O682   C684    1.297   .     A
O682   Zn685   2.027   .     S
C683   C690    1.433   .     S
C684   C689    1.433   .     S
Zn685  N714    2.026   .     S
Zn686  N713    2.026   .     S
C687   H703    1.080   .     S
C687   C697    1.383   .     A
C687   C689    1.394   .     A
C688   H704    1.080   .     S
C688   C698    1.383   .     A
C688   C690    1.394   .     A
C689   C691    1.398   .     A
C690   C692    1.398   .     A
C691   C693    1.382   .     A
C691   H705    1.085   .     S
C692   H706    1.085   .     S
C692   C694    1.382   .     A
C693   C699    1.400   .     A
C693   C695    1.410   .     A
C694   C700    1.400   .     A
C694   C696    1.410   .     A
C695   C697    1.412   .     A
C696   C698    1.412   .     A
C696   C191    1.390   1_556 S
C697   C702    1.400   .     A
C698   C701    1.400   .     A
C699   H707    1.084   .     S
C700   H708    1.084   .     S
C700   C198    1.389   1_556 S
C701   H709    1.084   .     S
C701   C195    1.389   1_556 S
C702   H710    1.084   .     S
C711   C880    1.359   .     S
C711   C883    1.525   .     S
N713   N770    1.282   .     S
N713   N779    1.382   .     S
N714   N825    1.282   1_455 S
N714   N838    1.382   1_455 S
C715   H717    1.111   .     S
C715   H718    1.110   .     S
H716   C883    1.112   .     S
C719   H721    1.110   .     S
C719   H722    1.111   .     S
C719   C880    1.525   .     S
C719   H888    1.112   .     S
N723   O725    1.300   .     A
N723   O724    1.301   .     A
N723   N825    1.382   1_455 S
N726   O727    1.301   .     A
N726   O728    1.300   .     A
N726   N770    1.382   .     S
O729   C733    1.276   .     A
O729   Zn741   1.976   .     S
O730   C734    1.276   .     A
O730   Zn742   1.976   .     S
O731   Zn742   1.983   .     S
O731   C733    1.292   .     A
O732   C734    1.292   .     A
O732   Zn741   1.983   .     S
C733   C767    1.404   .     S
C734   C768    1.404   .     S
O735   C739    1.290   .     A
O735   Zn741   1.997   .     S
O736   Zn742   1.997   .     S
O736   C740    1.290   .     A
O737   Zn742   2.027   .     S
O737   C739    1.297   .     A
O738   C740    1.297   .     A
O738   Zn741   2.027   .     S
C739   C746    1.433   .     S
C740   C745    1.433   .     S
Zn741  N770    2.026   .     S
Zn742  N769    2.026   .     S
C743   H759    1.080   .     S
C743   C753    1.383   .     A
C743   C745    1.394   .     A
C744   H760    1.080   .     S
C744   C754    1.383   .     A
C744   C746    1.394   .     A
C745   C747    1.398   .     A
C746   C748    1.398   .     A
C747   C749    1.382   .     A
C747   H761    1.085   .     S
C748   H762    1.085   .     S
C748   C750    1.382   .     A
C749   C755    1.400   .     A
C749   C751    1.410   .     A
C750   C756    1.400   .     A
C750   C752    1.410   .     A
C751   C753    1.412   .     A
C752   C754    1.412   .     A
C752   C247    1.390   1_556 S
C753   C758    1.400   .     A
C754   C757    1.400   .     A
C755   H763    1.084   .     S
C756   H764    1.084   .     S
C756   C254    1.389   1_556 S
C757   H765    1.084   .     S
C757   C251    1.389   1_556 S
C758   H766    1.084   .     S
C767   C936    1.359   .     S
C767   C939    1.525   .     S
N769   N826    1.282   .     S
N769   N835    1.382   .     S
C771   H773    1.111   .     S
C771   H774    1.110   .     S
H772   C939    1.112   .     S
C775   H777    1.110   .     S
C775   H778    1.111   .     S
C775   C936    1.525   .     S
C775   H944    1.112   .     S
N779   O781    1.300   .     A
N779   O780    1.301   .     A
N782   O783    1.301   .     A
N782   O784    1.300   .     A
N782   N826    1.382   .     S
O785   C789    1.276   .     A
O785   Zn797   1.976   .     S
O786   C790    1.276   .     A
O786   Zn798   1.976   .     S
O787   Zn798   1.983   .     S
O787   C789    1.292   .     A
O788   C790    1.292   .     A
O788   Zn797   1.983   .     S
C789   C823    1.404   .     S
C790   C824    1.404   .     S
O791   C795    1.290   .     A
O791   Zn797   1.997   .     S
O792   Zn798   1.997   .     S
O792   C796    1.290   .     A
O793   Zn798   2.027   .     S
O793   C795    1.297   .     A
O794   C796    1.297   .     A
O794   Zn797   2.027   .     S
C795   C802    1.433   .     S
C796   C801    1.433   .     S
Zn797  N826    2.026   .     S
Zn798  N825    2.026   .     S
C799   H815    1.080   .     S
C799   C809    1.383   .     A
C799   C801    1.394   .     A
C800   H816    1.080   .     S
C800   C810    1.383   .     A
C800   C802    1.394   .     A
C801   C803    1.398   .     A
C802   C804    1.398   .     A
C803   C805    1.382   .     A
C803   H817    1.085   .     S
C804   H818    1.085   .     S
C804   C806    1.382   .     A
C805   C811    1.400   .     A
C805   C807    1.410   .     A
C806   C812    1.400   .     A
C806   C808    1.410   .     A
C807   C809    1.412   .     A
C808   C810    1.412   .     A
C808   C303    1.390   1_556 S
C809   C814    1.400   .     A
C810   C813    1.400   .     A
C811   H819    1.084   .     S
C812   H820    1.084   .     S
C812   C310    1.389   1_556 S
C813   H821    1.084   .     S
C813   C307    1.389   1_556 S
C814   H822    1.084   .     S
C823   C992    1.359   .     S
C823   C995    1.525   .     S
N825   N714    1.282   1_655 S
N825   N723    1.382   1_655 S
C827   H829    1.111   .     S
C827   H830    1.110   .     S
H828   C995    1.112   .     S
C831   H833    1.110   .     S
C831   H834    1.111   .     S
C831   C992    1.525   .     S
C831   H1000   1.112   .     S
N835   O837    1.300   .     A
N835   O836    1.301   .     A
N838   O839    1.301   .     A
N838   O840    1.300   .     A
N838   N714    1.382   1_655 S
O841   C845    1.276   .     A
O841   Zn853   1.976   .     S
O842   C846    1.276   .     A
O842   Zn854   1.976   .     S
O843   Zn854   1.983   .     S
O843   C845    1.292   .     A
O844   C846    1.292   .     A
O844   Zn853   1.983   .     S
C845   C879    1.404   .     S
C846   C880    1.404   .     S
O847   C851    1.290   .     A
O847   Zn853   1.997   .     S
O848   Zn854   1.997   .     S
O848   C852    1.290   .     A
O849   Zn854   2.027   .     S
O849   C851    1.297   .     A
O850   C852    1.297   .     A
O850   Zn853   2.027   .     S
C851   C858    1.433   .     S
C852   C857    1.433   .     S
Zn853  N882    2.026   .     S
Zn854  N881    2.026   .     S
C855   H871    1.080   .     S
C855   C865    1.383   .     A
C855   C857    1.394   .     A
C856   H872    1.080   .     S
C856   C866    1.383   .     A
C856   C858    1.394   .     A
C857   C859    1.398   .     A
C858   C860    1.398   .     A
C859   C861    1.382   .     A
C859   H873    1.085   .     S
C860   H874    1.085   .     S
C860   C862    1.382   .     A
C861   C867    1.400   .     A
C861   C863    1.410   .     A
C862   C868    1.400   .     A
C862   C864    1.410   .     A
C863   C865    1.412   .     A
C864   C866    1.412   .     A
C864   C359    1.390   1_556 S
C865   C870    1.400   .     A
C866   C869    1.400   .     A
C867   H875    1.084   .     S
C868   H876    1.084   .     S
C868   C366    1.389   1_556 S
C869   H877    1.084   .     S
C869   C363    1.389   1_556 S
C870   H878    1.084   .     S
C879   C544    1.359   1_565 S
C879   C547    1.525   1_565 S
N881   N938    1.282   .     S
N881   N947    1.382   .     S
N882   N993    1.282   1_455 S
N882   N1006   1.382   1_455 S
C883   H885    1.111   .     S
C883   H886    1.110   .     S
H884   C547    1.112   1_565 S
C887   H889    1.110   .     S
C887   H890    1.111   .     S
C887   C544    1.525   1_565 S
C887   H552    1.112   1_565 S
N891   O893    1.300   .     A
N891   O892    1.301   .     A
N891   N993    1.382   1_455 S
N894   O895    1.301   .     A
N894   O896    1.300   .     A
N894   N938    1.382   .     S
O897   C901    1.276   .     A
O897   Zn909   1.976   .     S
O898   C902    1.276   .     A
O898   Zn910   1.976   .     S
O899   Zn910   1.983   .     S
O899   C901    1.292   .     A
O900   C902    1.292   .     A
O900   Zn909   1.983   .     S
C901   C935    1.404   .     S
C902   C936    1.404   .     S
O903   C907    1.290   .     A
O903   Zn909   1.997   .     S
O904   Zn910   1.997   .     S
O904   C908    1.290   .     A
O905   Zn910   2.027   .     S
O905   C907    1.297   .     A
O906   C908    1.297   .     A
O906   Zn909   2.027   .     S
C907   C914    1.433   .     S
C908   C913    1.433   .     S
Zn909  N938    2.026   .     S
Zn910  N937    2.026   .     S
C911   H927    1.080   .     S
C911   C921    1.383   .     A
C911   C913    1.394   .     A
C912   H928    1.080   .     S
C912   C922    1.383   .     A
C912   C914    1.394   .     A
C913   C915    1.398   .     A
C914   C916    1.398   .     A
C915   C917    1.382   .     A
C915   H929    1.085   .     S
C916   H930    1.085   .     S
C916   C918    1.382   .     A
C917   C923    1.400   .     A
C917   C919    1.410   .     A
C918   C924    1.400   .     A
C918   C920    1.410   .     A
C919   C921    1.412   .     A
C920   C922    1.412   .     A
C920   C415    1.390   1_556 S
C921   C926    1.400   .     A
C922   C925    1.400   .     A
C923   H931    1.084   .     S
C924   H932    1.084   .     S
C924   C422    1.389   1_556 S
C925   H933    1.084   .     S
C925   C419    1.389   1_556 S
C926   H934    1.084   .     S
C935   C600    1.359   1_565 S
C935   C603    1.525   1_565 S
N937   N994    1.282   .     S
N937   N1003   1.382   .     S
C939   H941    1.111   .     S
C939   H942    1.110   .     S
H940   C603    1.112   1_565 S
C943   H945    1.110   .     S
C943   H946    1.111   .     S
C943   C600    1.525   1_565 S
C943   H608    1.112   1_565 S
N947   O949    1.300   .     A
N947   O948    1.301   .     A
N950   O951    1.301   .     A
N950   O952    1.300   .     A
N950   N994    1.382   .     S
O953   C957    1.276   .     A
O953   Zn965   1.976   .     S
O954   C958    1.276   .     A
O954   Zn966   1.976   .     S
O955   Zn966   1.983   .     S
O955   C957    1.292   .     A
O956   C958    1.292   .     A
O956   Zn965   1.983   .     S
C957   C991    1.404   .     S
C958   C992    1.404   .     S
O959   C963    1.290   .     A
O959   Zn965   1.997   .     S
O960   Zn966   1.997   .     S
O960   C964    1.290   .     A
O961   Zn966   2.027   .     S
O961   C963    1.297   .     A
O962   C964    1.297   .     A
O962   Zn965   2.027   .     S
C963   C970    1.433   .     S
C964   C969    1.433   .     S
Zn965  N994    2.026   .     S
Zn966  N993    2.026   .     S
C967   H983    1.080   .     S
C967   C977    1.383   .     A
C967   C969    1.394   .     A
C968   H984    1.080   .     S
C968   C978    1.383   .     A
C968   C970    1.394   .     A
C969   C971    1.398   .     A
C970   C972    1.398   .     A
C971   C973    1.382   .     A
C971   H985    1.085   .     S
C972   H986    1.085   .     S
C972   C974    1.382   .     A
C973   C979    1.400   .     A
C973   C975    1.410   .     A
C974   C980    1.400   .     A
C974   C976    1.410   .     A
C975   C977    1.412   .     A
C976   C978    1.412   .     A
C976   C471    1.390   1_556 S
C977   C982    1.400   .     A
C978   C981    1.400   .     A
C979   H987    1.084   .     S
C980   H988    1.084   .     S
C980   C478    1.389   1_556 S
C981   H989    1.084   .     S
C981   C475    1.389   1_556 S
C982   H990    1.084   .     S
C991   C656    1.359   1_565 S
C991   C659    1.525   1_565 S
N993   N882    1.282   1_655 S
N993   N891    1.382   1_655 S
C995   H997    1.111   .     S
C995   H998    1.110   .     S
H996   C659    1.112   1_565 S
C999   H1001   1.110   .     S
C999   H1002   1.111   .     S
C999   C656    1.525   1_565 S
C999   H664    1.112   1_565 S
N1003  O1005   1.300   .     A
N1003  O1004   1.301   .     A
N1006  O1007   1.301   .     A
N1006  O1008   1.300   .     A
N1006  N882    1.382   1_655 S
