data_str_m1_o10_o16_pcu_sym.118
_audit_creation_date              2020-01-03
_audit_creation_method            'Materials Studio'
_symmetry_space_group_name_H-M    'P1'
_symmetry_Int_Tables_number       1
_symmetry_cell_setting            triclinic
loop_
_symmetry_equiv_pos_as_xyz
  x,y,z
_cell_length_a                    32.4646
_cell_length_b                    32.5749
_cell_length_c                    31.0835
_cell_angle_alpha                 96.4388
_cell_angle_beta                  74.8193
_cell_angle_gamma                 98.0124
loop_
_atom_site_label
_atom_site_type_symbol
_atom_site_fract_x
_atom_site_fract_y
_atom_site_fract_z
_atom_site_U_iso_or_equiv
_atom_site_adp_type
_atom_site_occupancy
C1     C     0.05273   0.15964   0.26025   0.00000  Uiso   1.00
C2     C     0.17553   0.16478   0.05890   0.00000  Uiso   1.00
C3     C     0.21044   0.10378   0.06018   0.00000  Uiso   1.00
C4     C     0.28073   0.17375   0.24007   0.00000  Uiso   1.00
C5     C     0.14067   0.19181   0.42019   0.00000  Uiso   1.00
C6     C     0.32659   0.17626   0.23602   0.00000  Uiso   1.00
C7     C     0.00743   0.15746   0.26440   0.00000  Uiso   1.00
C8     C     0.17773   0.32195   0.23644   0.00000  Uiso   1.00
C9     C     0.15150   0.01274   0.26605   0.00000  Uiso   1.00
C10    C     0.15674   0.05606   0.25990   0.00000  Uiso   1.00
C11    C     0.17618   0.27785   0.24044   0.00000  Uiso   1.00
C12    C     0.12579   0.24290   0.48420   0.00000  Uiso   1.00
C13    C     0.18516   0.14818   0.12956   0.00000  Uiso   1.00
C14    C     0.14761   0.18368   0.37118   0.00000  Uiso   1.00
C15    C     0.20885   0.09156   0.01577   0.00000  Uiso   1.00
C16    C     0.19238   0.13960   0.08159   0.00000  Uiso   1.00
C17    C     0.12518   0.22927   0.44011   0.00000  Uiso   1.00
C18    C     0.22854   0.05397   0.49277   0.00000  Uiso   1.00
C19    C     0.21022   0.01422   0.00583   0.00000  Uiso   1.00
C20    C     0.22898   0.31231   0.48390   0.00000  Uiso   1.00
C21    C     0.26586   0.31649   0.44867   0.00000  Uiso   1.00
C22    C     0.28418   0.02262   0.43540   0.00000  Uiso   1.00
C23    C     0.14291   0.21868   0.00833   0.00000  Uiso   1.00
C24    C     0.26564   0.05796   0.45736   0.00000  Uiso   1.00
C25    C     0.10982   0.28321   0.00467   0.00000  Uiso   1.00
C26    C     0.11585   0.31757   0.47891   0.00000  Uiso   1.00
C27    C     0.10035   0.02172   0.49828   0.00000  Uiso   1.00
C28    C     0.07927   0.02572   0.04357   0.00000  Uiso   1.00
C29    C     0.07314   0.32538   0.06954   0.00000  Uiso   1.00
C30    C     0.08807   0.28762   0.05027   0.00000  Uiso   1.00
C31    C     0.15656   0.17941   0.49032   0.00000  Uiso   1.00
C32    C     0.15323   0.16515   0.44639   0.00000  Uiso   1.00
C33    C     0.17388   0.15400   0.01433   0.00000  Uiso   1.00
C34    C     0.18882   0.11569   0.49353   0.00000  Uiso   1.00
C35    C     0.18131   0.10106   0.45191   0.00000  Uiso   1.00
C36    C     0.16214   0.12443   0.42989   0.00000  Uiso   1.00
H37    H     0.31912   0.14044   0.29113   0.00000  Uiso   1.00
H38    H     0.21502   0.28176   0.49427   0.00000  Uiso   1.00
H39    H     0.28029   0.28915   0.43172   0.00000  Uiso   1.00
H40    H     0.31278   0.02582   0.40813   0.00000  Uiso   1.00
H41    H     0.28011   0.08840   0.44684   0.00000  Uiso   1.00
H42    H     0.13317   0.31583   0.44402   0.00000  Uiso   1.00
H43    H     0.10474   0.04775   0.47816   0.00000  Uiso   1.00
H44    H     0.06754   0.05487   0.05851   0.00000  Uiso   1.00
H45    H     0.05653   0.32842   0.10460   0.00000  Uiso   1.00
H46    H     0.08208   0.26175   0.07096   0.00000  Uiso   1.00
H47    H     0.20103   0.00205   0.20811   0.00000  Uiso   1.00
H48    H     0.18868   0.07055   0.43661   0.00000  Uiso   1.00
H49    H     0.16162   0.19132   0.07813   0.00000  Uiso   1.00
H50    H     0.11343   0.24846   0.42070   0.00000  Uiso   1.00
H51    H     0.14618   0.23199   0.04068   0.00000  Uiso   1.00
H52    H     0.15381   0.10947   0.40005   0.00000  Uiso   1.00
H53    H     0.01561   0.19342   0.20979   0.00000  Uiso   1.00
H54    H     0.18163   0.01062   0.03306   0.00000  Uiso   1.00
I55    I     0.24073   0.06923   0.09554   0.00000  Uiso   1.00
I56    I     0.10649   0.33008   0.32727   0.00000  Uiso   1.00
O57    O     0.16667   0.16667   0.25000   0.00000  Uiso   1.00
O58    O     0.15451   0.12637   0.15459   0.00000  Uiso   1.00
O59    O     0.12940   0.20391   0.34968   0.00000  Uiso   1.00
O60    O     0.20824   0.17759   0.14606   0.00000  Uiso   1.00
O61    O     0.17451   0.15880   0.34968   0.00000  Uiso   1.00
O62    O     0.17930   0.08019   0.28214   0.00000  Uiso   1.00
O63    O     0.14632   0.26085   0.27014   0.00000  Uiso   1.00
O64    O     0.07412   0.13291   0.23413   0.00000  Uiso   1.00
O65    O     0.26693   0.19272   0.21361   0.00000  Uiso   1.00
O66    O     0.07071   0.18878   0.28213   0.00000  Uiso   1.00
O67    O     0.25491   0.15226   0.27014   0.00000  Uiso   1.00
O68    O     0.13760   0.06944   0.23413   0.00000  Uiso   1.00
O69    O     0.20345   0.25620   0.21361   0.00000  Uiso   1.00
Zn70   Zn    0.19338   0.13994   0.28734   0.00000  Uiso   1.00
Zn71   Zn    0.13379   0.12458   0.21876   0.00000  Uiso   1.00
Zn72   Zn    0.21056   0.19775   0.20657   0.00000  Uiso   1.00
Zn73   Zn    0.12893   0.20439   0.28734   0.00000  Uiso   1.00
C74    C     0.38606   0.15964   0.26025   0.00000  Uiso   1.00
C75    C     0.50887   0.16478   0.05890   0.00000  Uiso   1.00
C76    C     0.54377   0.10378   0.06018   0.00000  Uiso   1.00
C77    C     0.61407   0.17375   0.24007   0.00000  Uiso   1.00
C78    C     0.47400   0.19181   0.42019   0.00000  Uiso   1.00
C79    C     0.65992   0.17626   0.23602   0.00000  Uiso   1.00
C80    C     0.34076   0.15746   0.26440   0.00000  Uiso   1.00
C81    C     0.51107   0.32195   0.23644   0.00000  Uiso   1.00
C82    C     0.48484   0.01274   0.26605   0.00000  Uiso   1.00
C83    C     0.49007   0.05606   0.25990   0.00000  Uiso   1.00
C84    C     0.50952   0.27785   0.24044   0.00000  Uiso   1.00
C85    C     0.45912   0.24290   0.48420   0.00000  Uiso   1.00
C86    C     0.51850   0.14818   0.12956   0.00000  Uiso   1.00
C87    C     0.48094   0.18368   0.37118   0.00000  Uiso   1.00
C88    C     0.54218   0.09156   0.01577   0.00000  Uiso   1.00
C89    C     0.52572   0.13960   0.08159   0.00000  Uiso   1.00
C90    C     0.45852   0.22927   0.44011   0.00000  Uiso   1.00
C91    C     0.56188   0.05397   0.49277   0.00000  Uiso   1.00
C92    C     0.54356   0.01422   0.00583   0.00000  Uiso   1.00
C93    C     0.56231   0.31231   0.48390   0.00000  Uiso   1.00
C94    C     0.59920   0.31649   0.44867   0.00000  Uiso   1.00
C95    C     0.61751   0.02262   0.43540   0.00000  Uiso   1.00
C96    C     0.47625   0.21868   0.00833   0.00000  Uiso   1.00
C97    C     0.59897   0.05796   0.45736   0.00000  Uiso   1.00
C98    C     0.44316   0.28321   0.00467   0.00000  Uiso   1.00
C99    C     0.44919   0.31757   0.47891   0.00000  Uiso   1.00
C100   C     0.43368   0.02172   0.49828   0.00000  Uiso   1.00
C101   C     0.41260   0.02572   0.04357   0.00000  Uiso   1.00
C102   C     0.40648   0.32538   0.06954   0.00000  Uiso   1.00
C103   C     0.42141   0.28762   0.05027   0.00000  Uiso   1.00
C104   C     0.48989   0.17941   0.49032   0.00000  Uiso   1.00
C105   C     0.48657   0.16515   0.44639   0.00000  Uiso   1.00
C106   C     0.50721   0.15400   0.01433   0.00000  Uiso   1.00
C107   C     0.52215   0.11569   0.49353   0.00000  Uiso   1.00
C108   C     0.51464   0.10106   0.45191   0.00000  Uiso   1.00
C109   C     0.49548   0.12443   0.42989   0.00000  Uiso   1.00
H110   H     0.65245   0.14044   0.29113   0.00000  Uiso   1.00
H111   H     0.54835   0.28176   0.49427   0.00000  Uiso   1.00
H112   H     0.61362   0.28915   0.43172   0.00000  Uiso   1.00
H113   H     0.64611   0.02582   0.40813   0.00000  Uiso   1.00
H114   H     0.61344   0.08840   0.44684   0.00000  Uiso   1.00
H115   H     0.46650   0.31583   0.44402   0.00000  Uiso   1.00
H116   H     0.43808   0.04775   0.47816   0.00000  Uiso   1.00
H117   H     0.40088   0.05487   0.05851   0.00000  Uiso   1.00
H118   H     0.38987   0.32842   0.10460   0.00000  Uiso   1.00
H119   H     0.41542   0.26175   0.07096   0.00000  Uiso   1.00
H120   H     0.53437   0.00205   0.20811   0.00000  Uiso   1.00
H121   H     0.52202   0.07055   0.43661   0.00000  Uiso   1.00
H122   H     0.49495   0.19132   0.07813   0.00000  Uiso   1.00
H123   H     0.44677   0.24846   0.42070   0.00000  Uiso   1.00
H124   H     0.47951   0.23199   0.04068   0.00000  Uiso   1.00
H125   H     0.48715   0.10947   0.40005   0.00000  Uiso   1.00
H126   H     0.34894   0.19342   0.20979   0.00000  Uiso   1.00
H127   H     0.51496   0.01062   0.03306   0.00000  Uiso   1.00
I128   I     0.57406   0.06923   0.09554   0.00000  Uiso   1.00
I129   I     0.43983   0.33008   0.32727   0.00000  Uiso   1.00
O130   O     0.50000   0.16667   0.25000   0.00000  Uiso   1.00
O131   O     0.48784   0.12637   0.15459   0.00000  Uiso   1.00
O132   O     0.46274   0.20391   0.34968   0.00000  Uiso   1.00
O133   O     0.54157   0.17759   0.14606   0.00000  Uiso   1.00
O134   O     0.50785   0.15880   0.34968   0.00000  Uiso   1.00
O135   O     0.51264   0.08019   0.28214   0.00000  Uiso   1.00
O136   O     0.47965   0.26085   0.27014   0.00000  Uiso   1.00
O137   O     0.40745   0.13291   0.23413   0.00000  Uiso   1.00
O138   O     0.60026   0.19272   0.21361   0.00000  Uiso   1.00
O139   O     0.40405   0.18878   0.28213   0.00000  Uiso   1.00
O140   O     0.58824   0.15226   0.27014   0.00000  Uiso   1.00
O141   O     0.47093   0.06944   0.23413   0.00000  Uiso   1.00
O142   O     0.53678   0.25620   0.21361   0.00000  Uiso   1.00
Zn143  Zn    0.52672   0.13994   0.28734   0.00000  Uiso   1.00
Zn144  Zn    0.46713   0.12458   0.21876   0.00000  Uiso   1.00
Zn145  Zn    0.54389   0.19775   0.20657   0.00000  Uiso   1.00
Zn146  Zn    0.46226   0.20439   0.28734   0.00000  Uiso   1.00
C147   C     0.71939   0.15964   0.26025   0.00000  Uiso   1.00
C148   C     0.84220   0.16478   0.05890   0.00000  Uiso   1.00
C149   C     0.87710   0.10378   0.06018   0.00000  Uiso   1.00
C150   C     0.94740   0.17375   0.24007   0.00000  Uiso   1.00
C151   C     0.80733   0.19181   0.42019   0.00000  Uiso   1.00
C152   C     0.99326   0.17626   0.23602   0.00000  Uiso   1.00
C153   C     0.67409   0.15746   0.26440   0.00000  Uiso   1.00
C154   C     0.84440   0.32195   0.23644   0.00000  Uiso   1.00
C155   C     0.81817   0.01274   0.26605   0.00000  Uiso   1.00
C156   C     0.82340   0.05606   0.25990   0.00000  Uiso   1.00
C157   C     0.84285   0.27785   0.24044   0.00000  Uiso   1.00
C158   C     0.79245   0.24290   0.48420   0.00000  Uiso   1.00
C159   C     0.85183   0.14818   0.12956   0.00000  Uiso   1.00
C160   C     0.81427   0.18368   0.37118   0.00000  Uiso   1.00
C161   C     0.87552   0.09156   0.01577   0.00000  Uiso   1.00
C162   C     0.85905   0.13960   0.08159   0.00000  Uiso   1.00
C163   C     0.79185   0.22927   0.44011   0.00000  Uiso   1.00
C164   C     0.89521   0.05397   0.49277   0.00000  Uiso   1.00
C165   C     0.87689   0.01422   0.00583   0.00000  Uiso   1.00
C166   C     0.89564   0.31231   0.48390   0.00000  Uiso   1.00
C167   C     0.93253   0.31649   0.44867   0.00000  Uiso   1.00
C168   C     0.95085   0.02262   0.43540   0.00000  Uiso   1.00
C169   C     0.80958   0.21868   0.00833   0.00000  Uiso   1.00
C170   C     0.93230   0.05796   0.45736   0.00000  Uiso   1.00
C171   C     0.77649   0.28321   0.00467   0.00000  Uiso   1.00
C172   C     0.78252   0.31757   0.47891   0.00000  Uiso   1.00
C173   C     0.76702   0.02172   0.49828   0.00000  Uiso   1.00
C174   C     0.74593   0.02572   0.04357   0.00000  Uiso   1.00
C175   C     0.73981   0.32538   0.06954   0.00000  Uiso   1.00
C176   C     0.75474   0.28762   0.05027   0.00000  Uiso   1.00
C177   C     0.82323   0.17941   0.49032   0.00000  Uiso   1.00
C178   C     0.81990   0.16515   0.44639   0.00000  Uiso   1.00
C179   C     0.84054   0.15400   0.01433   0.00000  Uiso   1.00
C180   C     0.85549   0.11569   0.49353   0.00000  Uiso   1.00
C181   C     0.84797   0.10106   0.45191   0.00000  Uiso   1.00
C182   C     0.82881   0.12443   0.42989   0.00000  Uiso   1.00
H183   H     0.98579   0.14044   0.29113   0.00000  Uiso   1.00
H184   H     0.88168   0.28176   0.49427   0.00000  Uiso   1.00
H185   H     0.94696   0.28915   0.43172   0.00000  Uiso   1.00
H186   H     0.97944   0.02582   0.40813   0.00000  Uiso   1.00
H187   H     0.94678   0.08840   0.44684   0.00000  Uiso   1.00
H188   H     0.79983   0.31583   0.44402   0.00000  Uiso   1.00
H189   H     0.77141   0.04775   0.47816   0.00000  Uiso   1.00
H190   H     0.73421   0.05487   0.05851   0.00000  Uiso   1.00
H191   H     0.72320   0.32842   0.10460   0.00000  Uiso   1.00
H192   H     0.74875   0.26175   0.07096   0.00000  Uiso   1.00
H193   H     0.86770   0.00205   0.20811   0.00000  Uiso   1.00
H194   H     0.85535   0.07055   0.43661   0.00000  Uiso   1.00
H195   H     0.82828   0.19132   0.07813   0.00000  Uiso   1.00
H196   H     0.78010   0.24846   0.42070   0.00000  Uiso   1.00
H197   H     0.81285   0.23199   0.04068   0.00000  Uiso   1.00
H198   H     0.82048   0.10947   0.40005   0.00000  Uiso   1.00
H199   H     0.68227   0.19342   0.20979   0.00000  Uiso   1.00
H200   H     0.84829   0.01062   0.03306   0.00000  Uiso   1.00
I201   I     0.90740   0.06923   0.09554   0.00000  Uiso   1.00
I202   I     0.77316   0.33008   0.32727   0.00000  Uiso   1.00
O203   O     0.83333   0.16667   0.25000   0.00000  Uiso   1.00
O204   O     0.82118   0.12637   0.15459   0.00000  Uiso   1.00
O205   O     0.79607   0.20391   0.34968   0.00000  Uiso   1.00
O206   O     0.87491   0.17759   0.14606   0.00000  Uiso   1.00
O207   O     0.84118   0.15880   0.34968   0.00000  Uiso   1.00
O208   O     0.84597   0.08019   0.28214   0.00000  Uiso   1.00
O209   O     0.81298   0.26085   0.27014   0.00000  Uiso   1.00
O210   O     0.74078   0.13291   0.23413   0.00000  Uiso   1.00
O211   O     0.93360   0.19272   0.21361   0.00000  Uiso   1.00
O212   O     0.73738   0.18878   0.28213   0.00000  Uiso   1.00
O213   O     0.92158   0.15226   0.27014   0.00000  Uiso   1.00
O214   O     0.80426   0.06944   0.23413   0.00000  Uiso   1.00
O215   O     0.87012   0.25620   0.21361   0.00000  Uiso   1.00
Zn216  Zn    0.86005   0.13994   0.28734   0.00000  Uiso   1.00
Zn217  Zn    0.80046   0.12458   0.21876   0.00000  Uiso   1.00
Zn218  Zn    0.87723   0.19775   0.20657   0.00000  Uiso   1.00
Zn219  Zn    0.79560   0.20439   0.28734   0.00000  Uiso   1.00
C220   C     0.05273   0.49298   0.26025   0.00000  Uiso   1.00
C221   C     0.17553   0.49811   0.05890   0.00000  Uiso   1.00
C222   C     0.21044   0.43711   0.06018   0.00000  Uiso   1.00
C223   C     0.28073   0.50709   0.24007   0.00000  Uiso   1.00
C224   C     0.14067   0.52514   0.42019   0.00000  Uiso   1.00
C225   C     0.32659   0.50959   0.23602   0.00000  Uiso   1.00
C226   C     0.00743   0.49079   0.26440   0.00000  Uiso   1.00
C227   C     0.17773   0.65528   0.23644   0.00000  Uiso   1.00
C228   C     0.15150   0.34608   0.26605   0.00000  Uiso   1.00
C229   C     0.15674   0.38940   0.25990   0.00000  Uiso   1.00
C230   C     0.17618   0.61119   0.24044   0.00000  Uiso   1.00
C231   C     0.12579   0.57623   0.48420   0.00000  Uiso   1.00
C232   C     0.18516   0.48151   0.12956   0.00000  Uiso   1.00
C233   C     0.14761   0.51702   0.37118   0.00000  Uiso   1.00
C234   C     0.20885   0.42489   0.01577   0.00000  Uiso   1.00
C235   C     0.19238   0.47293   0.08159   0.00000  Uiso   1.00
C236   C     0.12518   0.56260   0.44011   0.00000  Uiso   1.00
C237   C     0.22854   0.38731   0.49277   0.00000  Uiso   1.00
C238   C     0.21022   0.34755   0.00583   0.00000  Uiso   1.00
C239   C     0.22898   0.64564   0.48390   0.00000  Uiso   1.00
C240   C     0.26586   0.64982   0.44867   0.00000  Uiso   1.00
C241   C     0.28418   0.35595   0.43540   0.00000  Uiso   1.00
C242   C     0.14291   0.55201   0.00833   0.00000  Uiso   1.00
C243   C     0.26564   0.39129   0.45736   0.00000  Uiso   1.00
C244   C     0.10982   0.61654   0.00467   0.00000  Uiso   1.00
C245   C     0.11585   0.65090   0.47891   0.00000  Uiso   1.00
C246   C     0.10035   0.35506   0.49828   0.00000  Uiso   1.00
C247   C     0.07927   0.35905   0.04357   0.00000  Uiso   1.00
C248   C     0.07314   0.65871   0.06954   0.00000  Uiso   1.00
C249   C     0.08807   0.62095   0.05027   0.00000  Uiso   1.00
C250   C     0.15656   0.51274   0.49032   0.00000  Uiso   1.00
C251   C     0.15323   0.49848   0.44639   0.00000  Uiso   1.00
C252   C     0.17388   0.48733   0.01433   0.00000  Uiso   1.00
C253   C     0.18882   0.44902   0.49353   0.00000  Uiso   1.00
C254   C     0.18131   0.43439   0.45191   0.00000  Uiso   1.00
C255   C     0.16214   0.45777   0.42989   0.00000  Uiso   1.00
H256   H     0.31912   0.47377   0.29113   0.00000  Uiso   1.00
H257   H     0.21502   0.61510   0.49427   0.00000  Uiso   1.00
H258   H     0.28029   0.62249   0.43172   0.00000  Uiso   1.00
H259   H     0.31278   0.35916   0.40813   0.00000  Uiso   1.00
H260   H     0.28011   0.42173   0.44684   0.00000  Uiso   1.00
H261   H     0.13317   0.64917   0.44402   0.00000  Uiso   1.00
H262   H     0.10474   0.38108   0.47816   0.00000  Uiso   1.00
H263   H     0.06754   0.38821   0.05851   0.00000  Uiso   1.00
H264   H     0.05653   0.66176   0.10460   0.00000  Uiso   1.00
H265   H     0.08208   0.59509   0.07096   0.00000  Uiso   1.00
H266   H     0.20103   0.33539   0.20811   0.00000  Uiso   1.00
H267   H     0.18868   0.40388   0.43661   0.00000  Uiso   1.00
H268   H     0.16162   0.52465   0.07813   0.00000  Uiso   1.00
H269   H     0.11343   0.58179   0.42070   0.00000  Uiso   1.00
H270   H     0.14618   0.56532   0.04068   0.00000  Uiso   1.00
H271   H     0.15381   0.44280   0.40005   0.00000  Uiso   1.00
H272   H     0.01561   0.52676   0.20979   0.00000  Uiso   1.00
H273   H     0.18163   0.34395   0.03306   0.00000  Uiso   1.00
I274   I     0.24073   0.40257   0.09554   0.00000  Uiso   1.00
I275   I     0.10649   0.66341   0.32727   0.00000  Uiso   1.00
O276   O     0.16667   0.50000   0.25000   0.00000  Uiso   1.00
O277   O     0.15451   0.45970   0.15459   0.00000  Uiso   1.00
O278   O     0.12940   0.53724   0.34968   0.00000  Uiso   1.00
O279   O     0.20824   0.51092   0.14606   0.00000  Uiso   1.00
O280   O     0.17451   0.49213   0.34968   0.00000  Uiso   1.00
O281   O     0.17930   0.41352   0.28214   0.00000  Uiso   1.00
O282   O     0.14632   0.59418   0.27014   0.00000  Uiso   1.00
O283   O     0.07412   0.46625   0.23413   0.00000  Uiso   1.00
O284   O     0.26693   0.52605   0.21361   0.00000  Uiso   1.00
O285   O     0.07071   0.52211   0.28213   0.00000  Uiso   1.00
O286   O     0.25491   0.48559   0.27014   0.00000  Uiso   1.00
O287   O     0.13760   0.40277   0.23413   0.00000  Uiso   1.00
O288   O     0.20345   0.58953   0.21361   0.00000  Uiso   1.00
Zn289  Zn    0.19338   0.47327   0.28734   0.00000  Uiso   1.00
Zn290  Zn    0.13379   0.45791   0.21876   0.00000  Uiso   1.00
Zn291  Zn    0.21056   0.53109   0.20657   0.00000  Uiso   1.00
Zn292  Zn    0.12893   0.53773   0.28734   0.00000  Uiso   1.00
C293   C     0.38606   0.49298   0.26025   0.00000  Uiso   1.00
C294   C     0.50887   0.49811   0.05890   0.00000  Uiso   1.00
C295   C     0.54377   0.43711   0.06018   0.00000  Uiso   1.00
C296   C     0.61407   0.50709   0.24007   0.00000  Uiso   1.00
C297   C     0.47400   0.52514   0.42019   0.00000  Uiso   1.00
C298   C     0.65992   0.50959   0.23602   0.00000  Uiso   1.00
C299   C     0.34076   0.49079   0.26440   0.00000  Uiso   1.00
C300   C     0.51107   0.65528   0.23644   0.00000  Uiso   1.00
C301   C     0.48484   0.34608   0.26605   0.00000  Uiso   1.00
C302   C     0.49007   0.38940   0.25990   0.00000  Uiso   1.00
C303   C     0.50952   0.61119   0.24044   0.00000  Uiso   1.00
C304   C     0.45912   0.57623   0.48420   0.00000  Uiso   1.00
C305   C     0.51850   0.48151   0.12956   0.00000  Uiso   1.00
C306   C     0.48094   0.51702   0.37118   0.00000  Uiso   1.00
C307   C     0.54218   0.42489   0.01577   0.00000  Uiso   1.00
C308   C     0.52572   0.47293   0.08159   0.00000  Uiso   1.00
C309   C     0.45852   0.56260   0.44011   0.00000  Uiso   1.00
C310   C     0.56188   0.38731   0.49277   0.00000  Uiso   1.00
C311   C     0.54356   0.34755   0.00583   0.00000  Uiso   1.00
C312   C     0.56231   0.64564   0.48390   0.00000  Uiso   1.00
C313   C     0.59920   0.64982   0.44867   0.00000  Uiso   1.00
C314   C     0.61751   0.35595   0.43540   0.00000  Uiso   1.00
C315   C     0.47625   0.55201   0.00833   0.00000  Uiso   1.00
C316   C     0.59897   0.39129   0.45736   0.00000  Uiso   1.00
C317   C     0.44316   0.61654   0.00467   0.00000  Uiso   1.00
C318   C     0.44919   0.65090   0.47891   0.00000  Uiso   1.00
C319   C     0.43368   0.35506   0.49828   0.00000  Uiso   1.00
C320   C     0.41260   0.35905   0.04357   0.00000  Uiso   1.00
C321   C     0.40648   0.65871   0.06954   0.00000  Uiso   1.00
C322   C     0.42141   0.62095   0.05027   0.00000  Uiso   1.00
C323   C     0.48989   0.51274   0.49032   0.00000  Uiso   1.00
C324   C     0.48657   0.49848   0.44639   0.00000  Uiso   1.00
C325   C     0.50721   0.48733   0.01433   0.00000  Uiso   1.00
C326   C     0.52215   0.44902   0.49353   0.00000  Uiso   1.00
C327   C     0.51464   0.43439   0.45191   0.00000  Uiso   1.00
C328   C     0.49548   0.45777   0.42989   0.00000  Uiso   1.00
H329   H     0.65245   0.47377   0.29113   0.00000  Uiso   1.00
H330   H     0.54835   0.61510   0.49427   0.00000  Uiso   1.00
H331   H     0.61362   0.62249   0.43172   0.00000  Uiso   1.00
H332   H     0.64611   0.35916   0.40813   0.00000  Uiso   1.00
H333   H     0.61344   0.42173   0.44684   0.00000  Uiso   1.00
H334   H     0.46650   0.64917   0.44402   0.00000  Uiso   1.00
H335   H     0.43808   0.38108   0.47816   0.00000  Uiso   1.00
H336   H     0.40088   0.38821   0.05851   0.00000  Uiso   1.00
H337   H     0.38987   0.66176   0.10460   0.00000  Uiso   1.00
H338   H     0.41542   0.59509   0.07096   0.00000  Uiso   1.00
H339   H     0.53437   0.33539   0.20811   0.00000  Uiso   1.00
H340   H     0.52202   0.40388   0.43661   0.00000  Uiso   1.00
H341   H     0.49495   0.52465   0.07813   0.00000  Uiso   1.00
H342   H     0.44677   0.58179   0.42070   0.00000  Uiso   1.00
H343   H     0.47951   0.56532   0.04068   0.00000  Uiso   1.00
H344   H     0.48715   0.44280   0.40005   0.00000  Uiso   1.00
H345   H     0.34894   0.52676   0.20979   0.00000  Uiso   1.00
H346   H     0.51496   0.34395   0.03306   0.00000  Uiso   1.00
I347   I     0.57406   0.40257   0.09554   0.00000  Uiso   1.00
I348   I     0.43983   0.66341   0.32727   0.00000  Uiso   1.00
O349   O     0.50000   0.50000   0.25000   0.00000  Uiso   1.00
O350   O     0.48784   0.45970   0.15459   0.00000  Uiso   1.00
O351   O     0.46274   0.53724   0.34968   0.00000  Uiso   1.00
O352   O     0.54157   0.51092   0.14606   0.00000  Uiso   1.00
O353   O     0.50785   0.49213   0.34968   0.00000  Uiso   1.00
O354   O     0.51264   0.41352   0.28214   0.00000  Uiso   1.00
O355   O     0.47965   0.59418   0.27014   0.00000  Uiso   1.00
O356   O     0.40745   0.46625   0.23413   0.00000  Uiso   1.00
O357   O     0.60026   0.52605   0.21361   0.00000  Uiso   1.00
O358   O     0.40405   0.52211   0.28213   0.00000  Uiso   1.00
O359   O     0.58824   0.48559   0.27014   0.00000  Uiso   1.00
O360   O     0.47093   0.40277   0.23413   0.00000  Uiso   1.00
O361   O     0.53678   0.58953   0.21361   0.00000  Uiso   1.00
Zn362  Zn    0.52672   0.47327   0.28734   0.00000  Uiso   1.00
Zn363  Zn    0.46713   0.45791   0.21876   0.00000  Uiso   1.00
Zn364  Zn    0.54389   0.53109   0.20657   0.00000  Uiso   1.00
Zn365  Zn    0.46226   0.53773   0.28734   0.00000  Uiso   1.00
C366   C     0.71939   0.49298   0.26025   0.00000  Uiso   1.00
C367   C     0.84220   0.49811   0.05890   0.00000  Uiso   1.00
C368   C     0.87710   0.43711   0.06018   0.00000  Uiso   1.00
C369   C     0.94740   0.50709   0.24007   0.00000  Uiso   1.00
C370   C     0.80733   0.52514   0.42019   0.00000  Uiso   1.00
C371   C     0.99326   0.50959   0.23602   0.00000  Uiso   1.00
C372   C     0.67409   0.49079   0.26440   0.00000  Uiso   1.00
C373   C     0.84440   0.65528   0.23644   0.00000  Uiso   1.00
C374   C     0.81817   0.34608   0.26605   0.00000  Uiso   1.00
C375   C     0.82340   0.38940   0.25990   0.00000  Uiso   1.00
C376   C     0.84285   0.61119   0.24044   0.00000  Uiso   1.00
C377   C     0.79245   0.57623   0.48420   0.00000  Uiso   1.00
C378   C     0.85183   0.48151   0.12956   0.00000  Uiso   1.00
C379   C     0.81427   0.51702   0.37118   0.00000  Uiso   1.00
C380   C     0.87552   0.42489   0.01577   0.00000  Uiso   1.00
C381   C     0.85905   0.47293   0.08159   0.00000  Uiso   1.00
C382   C     0.79185   0.56260   0.44011   0.00000  Uiso   1.00
C383   C     0.89521   0.38731   0.49277   0.00000  Uiso   1.00
C384   C     0.87689   0.34755   0.00583   0.00000  Uiso   1.00
C385   C     0.89564   0.64564   0.48390   0.00000  Uiso   1.00
C386   C     0.93253   0.64982   0.44867   0.00000  Uiso   1.00
C387   C     0.95085   0.35595   0.43540   0.00000  Uiso   1.00
C388   C     0.80958   0.55201   0.00833   0.00000  Uiso   1.00
C389   C     0.93230   0.39129   0.45736   0.00000  Uiso   1.00
C390   C     0.77649   0.61654   0.00467   0.00000  Uiso   1.00
C391   C     0.78252   0.65090   0.47891   0.00000  Uiso   1.00
C392   C     0.76702   0.35506   0.49828   0.00000  Uiso   1.00
C393   C     0.74593   0.35905   0.04357   0.00000  Uiso   1.00
C394   C     0.73981   0.65871   0.06954   0.00000  Uiso   1.00
C395   C     0.75474   0.62095   0.05027   0.00000  Uiso   1.00
C396   C     0.82323   0.51274   0.49032   0.00000  Uiso   1.00
C397   C     0.81990   0.49848   0.44639   0.00000  Uiso   1.00
C398   C     0.84054   0.48733   0.01433   0.00000  Uiso   1.00
C399   C     0.85549   0.44902   0.49353   0.00000  Uiso   1.00
C400   C     0.84797   0.43439   0.45191   0.00000  Uiso   1.00
C401   C     0.82881   0.45777   0.42989   0.00000  Uiso   1.00
H402   H     0.98579   0.47377   0.29113   0.00000  Uiso   1.00
H403   H     0.88168   0.61510   0.49427   0.00000  Uiso   1.00
H404   H     0.94696   0.62249   0.43172   0.00000  Uiso   1.00
H405   H     0.97944   0.35916   0.40813   0.00000  Uiso   1.00
H406   H     0.94678   0.42173   0.44684   0.00000  Uiso   1.00
H407   H     0.79983   0.64917   0.44402   0.00000  Uiso   1.00
H408   H     0.77141   0.38108   0.47816   0.00000  Uiso   1.00
H409   H     0.73421   0.38821   0.05851   0.00000  Uiso   1.00
H410   H     0.72320   0.66176   0.10460   0.00000  Uiso   1.00
H411   H     0.74875   0.59509   0.07096   0.00000  Uiso   1.00
H412   H     0.86770   0.33539   0.20811   0.00000  Uiso   1.00
H413   H     0.85535   0.40388   0.43661   0.00000  Uiso   1.00
H414   H     0.82828   0.52465   0.07813   0.00000  Uiso   1.00
H415   H     0.78010   0.58179   0.42070   0.00000  Uiso   1.00
H416   H     0.81285   0.56532   0.04068   0.00000  Uiso   1.00
H417   H     0.82048   0.44280   0.40005   0.00000  Uiso   1.00
H418   H     0.68227   0.52676   0.20979   0.00000  Uiso   1.00
H419   H     0.84829   0.34395   0.03306   0.00000  Uiso   1.00
I420   I     0.90740   0.40257   0.09554   0.00000  Uiso   1.00
I421   I     0.77316   0.66341   0.32727   0.00000  Uiso   1.00
O422   O     0.83333   0.50000   0.25000   0.00000  Uiso   1.00
O423   O     0.82118   0.45970   0.15459   0.00000  Uiso   1.00
O424   O     0.79607   0.53724   0.34968   0.00000  Uiso   1.00
O425   O     0.87491   0.51092   0.14606   0.00000  Uiso   1.00
O426   O     0.84118   0.49213   0.34968   0.00000  Uiso   1.00
O427   O     0.84597   0.41352   0.28214   0.00000  Uiso   1.00
O428   O     0.81298   0.59418   0.27014   0.00000  Uiso   1.00
O429   O     0.74078   0.46625   0.23413   0.00000  Uiso   1.00
O430   O     0.93360   0.52605   0.21361   0.00000  Uiso   1.00
O431   O     0.73738   0.52211   0.28213   0.00000  Uiso   1.00
O432   O     0.92158   0.48559   0.27014   0.00000  Uiso   1.00
O433   O     0.80426   0.40277   0.23413   0.00000  Uiso   1.00
O434   O     0.87012   0.58953   0.21361   0.00000  Uiso   1.00
Zn435  Zn    0.86005   0.47327   0.28734   0.00000  Uiso   1.00
Zn436  Zn    0.80046   0.45791   0.21876   0.00000  Uiso   1.00
Zn437  Zn    0.87723   0.53109   0.20657   0.00000  Uiso   1.00
Zn438  Zn    0.79560   0.53773   0.28734   0.00000  Uiso   1.00
C439   C     0.05273   0.82631   0.26025   0.00000  Uiso   1.00
C440   C     0.17553   0.83144   0.05890   0.00000  Uiso   1.00
C441   C     0.21044   0.77045   0.06018   0.00000  Uiso   1.00
C442   C     0.28073   0.84042   0.24007   0.00000  Uiso   1.00
C443   C     0.14067   0.85848   0.42019   0.00000  Uiso   1.00
C444   C     0.32659   0.84292   0.23602   0.00000  Uiso   1.00
C445   C     0.00743   0.82412   0.26440   0.00000  Uiso   1.00
C446   C     0.17773   0.98861   0.23644   0.00000  Uiso   1.00
C447   C     0.15150   0.67941   0.26605   0.00000  Uiso   1.00
C448   C     0.15674   0.72273   0.25990   0.00000  Uiso   1.00
C449   C     0.17618   0.94452   0.24044   0.00000  Uiso   1.00
C450   C     0.12579   0.90956   0.48420   0.00000  Uiso   1.00
C451   C     0.18516   0.81484   0.12956   0.00000  Uiso   1.00
C452   C     0.14761   0.85035   0.37118   0.00000  Uiso   1.00
C453   C     0.20885   0.75823   0.01577   0.00000  Uiso   1.00
C454   C     0.19238   0.80627   0.08159   0.00000  Uiso   1.00
C455   C     0.12518   0.89593   0.44011   0.00000  Uiso   1.00
C456   C     0.22854   0.72064   0.49277   0.00000  Uiso   1.00
C457   C     0.21022   0.68088   0.00583   0.00000  Uiso   1.00
C458   C     0.22898   0.97897   0.48390   0.00000  Uiso   1.00
C459   C     0.26586   0.98315   0.44867   0.00000  Uiso   1.00
C460   C     0.28418   0.68928   0.43540   0.00000  Uiso   1.00
C461   C     0.14291   0.88535   0.00833   0.00000  Uiso   1.00
C462   C     0.26564   0.72462   0.45736   0.00000  Uiso   1.00
C463   C     0.10982   0.94987   0.00467   0.00000  Uiso   1.00
C464   C     0.11585   0.98423   0.47891   0.00000  Uiso   1.00
C465   C     0.10035   0.68839   0.49828   0.00000  Uiso   1.00
C466   C     0.07927   0.69239   0.04357   0.00000  Uiso   1.00
C467   C     0.07314   0.99204   0.06954   0.00000  Uiso   1.00
C468   C     0.08807   0.95429   0.05027   0.00000  Uiso   1.00
C469   C     0.15656   0.84607   0.49032   0.00000  Uiso   1.00
C470   C     0.15323   0.83182   0.44639   0.00000  Uiso   1.00
C471   C     0.17388   0.82066   0.01433   0.00000  Uiso   1.00
C472   C     0.18882   0.78236   0.49353   0.00000  Uiso   1.00
C473   C     0.18131   0.76773   0.45191   0.00000  Uiso   1.00
C474   C     0.16214   0.79110   0.42989   0.00000  Uiso   1.00
H475   H     0.31912   0.80710   0.29113   0.00000  Uiso   1.00
H476   H     0.21502   0.94843   0.49427   0.00000  Uiso   1.00
H477   H     0.28029   0.95582   0.43172   0.00000  Uiso   1.00
H478   H     0.31278   0.69249   0.40813   0.00000  Uiso   1.00
H479   H     0.28011   0.75507   0.44684   0.00000  Uiso   1.00
H480   H     0.13317   0.98250   0.44402   0.00000  Uiso   1.00
H481   H     0.10474   0.71442   0.47816   0.00000  Uiso   1.00
H482   H     0.06754   0.72154   0.05851   0.00000  Uiso   1.00
H483   H     0.05653   0.99509   0.10460   0.00000  Uiso   1.00
H484   H     0.08208   0.92842   0.07096   0.00000  Uiso   1.00
H485   H     0.20103   0.66872   0.20811   0.00000  Uiso   1.00
H486   H     0.18868   0.73722   0.43661   0.00000  Uiso   1.00
H487   H     0.16162   0.85798   0.07813   0.00000  Uiso   1.00
H488   H     0.11343   0.91512   0.42070   0.00000  Uiso   1.00
H489   H     0.14618   0.89866   0.04068   0.00000  Uiso   1.00
H490   H     0.15381   0.77613   0.40005   0.00000  Uiso   1.00
H491   H     0.01561   0.86009   0.20979   0.00000  Uiso   1.00
H492   H     0.18163   0.67729   0.03306   0.00000  Uiso   1.00
I493   I     0.24073   0.73590   0.09554   0.00000  Uiso   1.00
I494   I     0.10649   0.99675   0.32727   0.00000  Uiso   1.00
O495   O     0.16667   0.83333   0.25000   0.00000  Uiso   1.00
O496   O     0.15451   0.79304   0.15459   0.00000  Uiso   1.00
O497   O     0.12940   0.87058   0.34968   0.00000  Uiso   1.00
O498   O     0.20824   0.84425   0.14606   0.00000  Uiso   1.00
O499   O     0.17451   0.82546   0.34968   0.00000  Uiso   1.00
O500   O     0.17930   0.74686   0.28214   0.00000  Uiso   1.00
O501   O     0.14632   0.92751   0.27014   0.00000  Uiso   1.00
O502   O     0.07412   0.79958   0.23413   0.00000  Uiso   1.00
O503   O     0.26693   0.85939   0.21361   0.00000  Uiso   1.00
O504   O     0.07071   0.85544   0.28213   0.00000  Uiso   1.00
O505   O     0.25491   0.81892   0.27014   0.00000  Uiso   1.00
O506   O     0.13760   0.73610   0.23413   0.00000  Uiso   1.00
O507   O     0.20345   0.92286   0.21361   0.00000  Uiso   1.00
Zn508  Zn    0.19338   0.80661   0.28734   0.00000  Uiso   1.00
Zn509  Zn    0.13379   0.79124   0.21876   0.00000  Uiso   1.00
Zn510  Zn    0.21056   0.86442   0.20657   0.00000  Uiso   1.00
Zn511  Zn    0.12893   0.87106   0.28734   0.00000  Uiso   1.00
C512   C     0.38606   0.82631   0.26025   0.00000  Uiso   1.00
C513   C     0.50887   0.83144   0.05890   0.00000  Uiso   1.00
C514   C     0.54377   0.77045   0.06018   0.00000  Uiso   1.00
C515   C     0.61407   0.84042   0.24007   0.00000  Uiso   1.00
C516   C     0.47400   0.85848   0.42019   0.00000  Uiso   1.00
C517   C     0.65992   0.84292   0.23602   0.00000  Uiso   1.00
C518   C     0.34076   0.82412   0.26440   0.00000  Uiso   1.00
C519   C     0.51107   0.98861   0.23644   0.00000  Uiso   1.00
C520   C     0.48484   0.67941   0.26605   0.00000  Uiso   1.00
C521   C     0.49007   0.72273   0.25990   0.00000  Uiso   1.00
C522   C     0.50952   0.94452   0.24044   0.00000  Uiso   1.00
C523   C     0.45912   0.90956   0.48420   0.00000  Uiso   1.00
C524   C     0.51850   0.81484   0.12956   0.00000  Uiso   1.00
C525   C     0.48094   0.85035   0.37118   0.00000  Uiso   1.00
C526   C     0.54218   0.75823   0.01577   0.00000  Uiso   1.00
C527   C     0.52572   0.80627   0.08159   0.00000  Uiso   1.00
C528   C     0.45852   0.89593   0.44011   0.00000  Uiso   1.00
C529   C     0.56188   0.72064   0.49277   0.00000  Uiso   1.00
C530   C     0.54356   0.68088   0.00583   0.00000  Uiso   1.00
C531   C     0.56231   0.97897   0.48390   0.00000  Uiso   1.00
C532   C     0.59920   0.98315   0.44867   0.00000  Uiso   1.00
C533   C     0.61751   0.68928   0.43540   0.00000  Uiso   1.00
C534   C     0.47625   0.88535   0.00833   0.00000  Uiso   1.00
C535   C     0.59897   0.72462   0.45736   0.00000  Uiso   1.00
C536   C     0.44316   0.94987   0.00467   0.00000  Uiso   1.00
C537   C     0.44919   0.98423   0.47891   0.00000  Uiso   1.00
C538   C     0.43368   0.68839   0.49828   0.00000  Uiso   1.00
C539   C     0.41260   0.69239   0.04357   0.00000  Uiso   1.00
C540   C     0.40648   0.99204   0.06954   0.00000  Uiso   1.00
C541   C     0.42141   0.95429   0.05027   0.00000  Uiso   1.00
C542   C     0.48989   0.84607   0.49032   0.00000  Uiso   1.00
C543   C     0.48657   0.83182   0.44639   0.00000  Uiso   1.00
C544   C     0.50721   0.82066   0.01433   0.00000  Uiso   1.00
C545   C     0.52215   0.78236   0.49353   0.00000  Uiso   1.00
C546   C     0.51464   0.76773   0.45191   0.00000  Uiso   1.00
C547   C     0.49548   0.79110   0.42989   0.00000  Uiso   1.00
H548   H     0.65245   0.80710   0.29113   0.00000  Uiso   1.00
H549   H     0.54835   0.94843   0.49427   0.00000  Uiso   1.00
H550   H     0.61362   0.95582   0.43172   0.00000  Uiso   1.00
H551   H     0.64611   0.69249   0.40813   0.00000  Uiso   1.00
H552   H     0.61344   0.75507   0.44684   0.00000  Uiso   1.00
H553   H     0.46650   0.98250   0.44402   0.00000  Uiso   1.00
H554   H     0.43808   0.71442   0.47816   0.00000  Uiso   1.00
H555   H     0.40088   0.72154   0.05851   0.00000  Uiso   1.00
H556   H     0.38987   0.99509   0.10460   0.00000  Uiso   1.00
H557   H     0.41542   0.92842   0.07096   0.00000  Uiso   1.00
H558   H     0.53437   0.66872   0.20811   0.00000  Uiso   1.00
H559   H     0.52202   0.73722   0.43661   0.00000  Uiso   1.00
H560   H     0.49495   0.85798   0.07813   0.00000  Uiso   1.00
H561   H     0.44677   0.91512   0.42070   0.00000  Uiso   1.00
H562   H     0.47951   0.89866   0.04068   0.00000  Uiso   1.00
H563   H     0.48715   0.77613   0.40005   0.00000  Uiso   1.00
H564   H     0.34894   0.86009   0.20979   0.00000  Uiso   1.00
H565   H     0.51496   0.67729   0.03306   0.00000  Uiso   1.00
I566   I     0.57406   0.73590   0.09554   0.00000  Uiso   1.00
I567   I     0.43983   0.99675   0.32727   0.00000  Uiso   1.00
O568   O     0.50000   0.83333   0.25000   0.00000  Uiso   1.00
O569   O     0.48784   0.79304   0.15459   0.00000  Uiso   1.00
O570   O     0.46274   0.87058   0.34968   0.00000  Uiso   1.00
O571   O     0.54157   0.84425   0.14606   0.00000  Uiso   1.00
O572   O     0.50785   0.82546   0.34968   0.00000  Uiso   1.00
O573   O     0.51264   0.74686   0.28214   0.00000  Uiso   1.00
O574   O     0.47965   0.92751   0.27014   0.00000  Uiso   1.00
O575   O     0.40745   0.79958   0.23413   0.00000  Uiso   1.00
O576   O     0.60026   0.85939   0.21361   0.00000  Uiso   1.00
O577   O     0.40405   0.85544   0.28213   0.00000  Uiso   1.00
O578   O     0.58824   0.81892   0.27014   0.00000  Uiso   1.00
O579   O     0.47093   0.73610   0.23413   0.00000  Uiso   1.00
O580   O     0.53678   0.92286   0.21361   0.00000  Uiso   1.00
Zn581  Zn    0.52672   0.80661   0.28734   0.00000  Uiso   1.00
Zn582  Zn    0.46713   0.79124   0.21876   0.00000  Uiso   1.00
Zn583  Zn    0.54389   0.86442   0.20657   0.00000  Uiso   1.00
Zn584  Zn    0.46226   0.87106   0.28734   0.00000  Uiso   1.00
C585   C     0.71939   0.82631   0.26025   0.00000  Uiso   1.00
C586   C     0.84220   0.83144   0.05890   0.00000  Uiso   1.00
C587   C     0.87710   0.77045   0.06018   0.00000  Uiso   1.00
C588   C     0.94740   0.84042   0.24007   0.00000  Uiso   1.00
C589   C     0.80733   0.85848   0.42019   0.00000  Uiso   1.00
C590   C     0.99326   0.84292   0.23602   0.00000  Uiso   1.00
C591   C     0.67409   0.82412   0.26440   0.00000  Uiso   1.00
C592   C     0.84440   0.98861   0.23644   0.00000  Uiso   1.00
C593   C     0.81817   0.67941   0.26605   0.00000  Uiso   1.00
C594   C     0.82340   0.72273   0.25990   0.00000  Uiso   1.00
C595   C     0.84285   0.94452   0.24044   0.00000  Uiso   1.00
C596   C     0.79245   0.90956   0.48420   0.00000  Uiso   1.00
C597   C     0.85183   0.81484   0.12956   0.00000  Uiso   1.00
C598   C     0.81427   0.85035   0.37118   0.00000  Uiso   1.00
C599   C     0.87552   0.75823   0.01577   0.00000  Uiso   1.00
C600   C     0.85905   0.80627   0.08159   0.00000  Uiso   1.00
C601   C     0.79185   0.89593   0.44011   0.00000  Uiso   1.00
C602   C     0.89521   0.72064   0.49277   0.00000  Uiso   1.00
C603   C     0.87689   0.68088   0.00583   0.00000  Uiso   1.00
C604   C     0.89564   0.97897   0.48390   0.00000  Uiso   1.00
C605   C     0.93253   0.98315   0.44867   0.00000  Uiso   1.00
C606   C     0.95085   0.68928   0.43540   0.00000  Uiso   1.00
C607   C     0.80958   0.88535   0.00833   0.00000  Uiso   1.00
C608   C     0.93230   0.72462   0.45736   0.00000  Uiso   1.00
C609   C     0.77649   0.94987   0.00467   0.00000  Uiso   1.00
C610   C     0.78252   0.98423   0.47891   0.00000  Uiso   1.00
C611   C     0.76702   0.68839   0.49828   0.00000  Uiso   1.00
C612   C     0.74593   0.69239   0.04357   0.00000  Uiso   1.00
C613   C     0.73981   0.99204   0.06954   0.00000  Uiso   1.00
C614   C     0.75474   0.95429   0.05027   0.00000  Uiso   1.00
C615   C     0.82323   0.84607   0.49032   0.00000  Uiso   1.00
C616   C     0.81990   0.83182   0.44639   0.00000  Uiso   1.00
C617   C     0.84054   0.82066   0.01433   0.00000  Uiso   1.00
C618   C     0.85549   0.78236   0.49353   0.00000  Uiso   1.00
C619   C     0.84797   0.76773   0.45191   0.00000  Uiso   1.00
C620   C     0.82881   0.79110   0.42989   0.00000  Uiso   1.00
H621   H     0.98579   0.80710   0.29113   0.00000  Uiso   1.00
H622   H     0.88168   0.94843   0.49427   0.00000  Uiso   1.00
H623   H     0.94696   0.95582   0.43172   0.00000  Uiso   1.00
H624   H     0.97944   0.69249   0.40813   0.00000  Uiso   1.00
H625   H     0.94678   0.75507   0.44684   0.00000  Uiso   1.00
H626   H     0.79983   0.98250   0.44402   0.00000  Uiso   1.00
H627   H     0.77141   0.71442   0.47816   0.00000  Uiso   1.00
H628   H     0.73421   0.72154   0.05851   0.00000  Uiso   1.00
H629   H     0.72320   0.99509   0.10460   0.00000  Uiso   1.00
H630   H     0.74875   0.92842   0.07096   0.00000  Uiso   1.00
H631   H     0.86770   0.66872   0.20811   0.00000  Uiso   1.00
H632   H     0.85535   0.73722   0.43661   0.00000  Uiso   1.00
H633   H     0.82828   0.85798   0.07813   0.00000  Uiso   1.00
H634   H     0.78010   0.91512   0.42070   0.00000  Uiso   1.00
H635   H     0.81285   0.89866   0.04068   0.00000  Uiso   1.00
H636   H     0.82048   0.77613   0.40005   0.00000  Uiso   1.00
H637   H     0.68227   0.86009   0.20979   0.00000  Uiso   1.00
H638   H     0.84829   0.67729   0.03306   0.00000  Uiso   1.00
I639   I     0.90740   0.73590   0.09554   0.00000  Uiso   1.00
I640   I     0.77316   0.99675   0.32727   0.00000  Uiso   1.00
O641   O     0.83333   0.83333   0.25000   0.00000  Uiso   1.00
O642   O     0.82118   0.79304   0.15459   0.00000  Uiso   1.00
O643   O     0.79607   0.87058   0.34968   0.00000  Uiso   1.00
O644   O     0.87491   0.84425   0.14606   0.00000  Uiso   1.00
O645   O     0.84118   0.82546   0.34968   0.00000  Uiso   1.00
O646   O     0.84597   0.74686   0.28214   0.00000  Uiso   1.00
O647   O     0.81298   0.92751   0.27014   0.00000  Uiso   1.00
O648   O     0.74078   0.79958   0.23413   0.00000  Uiso   1.00
O649   O     0.93360   0.85939   0.21361   0.00000  Uiso   1.00
O650   O     0.73738   0.85544   0.28213   0.00000  Uiso   1.00
O651   O     0.92158   0.81892   0.27014   0.00000  Uiso   1.00
O652   O     0.80426   0.73610   0.23413   0.00000  Uiso   1.00
O653   O     0.87012   0.92286   0.21361   0.00000  Uiso   1.00
Zn654  Zn    0.86005   0.80661   0.28734   0.00000  Uiso   1.00
Zn655  Zn    0.80046   0.79124   0.21876   0.00000  Uiso   1.00
Zn656  Zn    0.87723   0.86442   0.20657   0.00000  Uiso   1.00
Zn657  Zn    0.79560   0.87106   0.28734   0.00000  Uiso   1.00
C658   C     0.05273   0.15964   0.76025   0.00000  Uiso   1.00
C659   C     0.17553   0.16478   0.55890   0.00000  Uiso   1.00
C660   C     0.21044   0.10378   0.56018   0.00000  Uiso   1.00
C661   C     0.28073   0.17375   0.74007   0.00000  Uiso   1.00
C662   C     0.14067   0.19181   0.92019   0.00000  Uiso   1.00
C663   C     0.32659   0.17626   0.73602   0.00000  Uiso   1.00
C664   C     0.00743   0.15746   0.76440   0.00000  Uiso   1.00
C665   C     0.17773   0.32195   0.73644   0.00000  Uiso   1.00
C666   C     0.15150   0.01274   0.76605   0.00000  Uiso   1.00
C667   C     0.15674   0.05606   0.75990   0.00000  Uiso   1.00
C668   C     0.17618   0.27785   0.74044   0.00000  Uiso   1.00
C669   C     0.12579   0.24290   0.98420   0.00000  Uiso   1.00
C670   C     0.18516   0.14818   0.62956   0.00000  Uiso   1.00
C671   C     0.14761   0.18368   0.87118   0.00000  Uiso   1.00
C672   C     0.20885   0.09156   0.51577   0.00000  Uiso   1.00
C673   C     0.19238   0.13960   0.58159   0.00000  Uiso   1.00
C674   C     0.12518   0.22927   0.94011   0.00000  Uiso   1.00
C675   C     0.22854   0.05397   0.99277   0.00000  Uiso   1.00
C676   C     0.21022   0.01422   0.50583   0.00000  Uiso   1.00
C677   C     0.22898   0.31231   0.98390   0.00000  Uiso   1.00
C678   C     0.26586   0.31649   0.94867   0.00000  Uiso   1.00
C679   C     0.28418   0.02262   0.93540   0.00000  Uiso   1.00
C680   C     0.14291   0.21868   0.50833   0.00000  Uiso   1.00
C681   C     0.26564   0.05796   0.95736   0.00000  Uiso   1.00
C682   C     0.10982   0.28321   0.50467   0.00000  Uiso   1.00
C683   C     0.11585   0.31757   0.97891   0.00000  Uiso   1.00
C684   C     0.10035   0.02172   0.99828   0.00000  Uiso   1.00
C685   C     0.07927   0.02572   0.54357   0.00000  Uiso   1.00
C686   C     0.07314   0.32538   0.56954   0.00000  Uiso   1.00
C687   C     0.08807   0.28762   0.55027   0.00000  Uiso   1.00
C688   C     0.15656   0.17941   0.99032   0.00000  Uiso   1.00
C689   C     0.15323   0.16515   0.94639   0.00000  Uiso   1.00
C690   C     0.17388   0.15400   0.51433   0.00000  Uiso   1.00
C691   C     0.18882   0.11569   0.99353   0.00000  Uiso   1.00
C692   C     0.18131   0.10106   0.95191   0.00000  Uiso   1.00
C693   C     0.16214   0.12443   0.92989   0.00000  Uiso   1.00
H694   H     0.31912   0.14044   0.79113   0.00000  Uiso   1.00
H695   H     0.21502   0.28176   0.99427   0.00000  Uiso   1.00
H696   H     0.28029   0.28915   0.93172   0.00000  Uiso   1.00
H697   H     0.31278   0.02582   0.90813   0.00000  Uiso   1.00
H698   H     0.28011   0.08840   0.94684   0.00000  Uiso   1.00
H699   H     0.13317   0.31583   0.94402   0.00000  Uiso   1.00
H700   H     0.10474   0.04775   0.97816   0.00000  Uiso   1.00
H701   H     0.06754   0.05487   0.55851   0.00000  Uiso   1.00
H702   H     0.05653   0.32842   0.60460   0.00000  Uiso   1.00
H703   H     0.08208   0.26175   0.57096   0.00000  Uiso   1.00
H704   H     0.20103   0.00205   0.70811   0.00000  Uiso   1.00
H705   H     0.18868   0.07055   0.93661   0.00000  Uiso   1.00
H706   H     0.16162   0.19132   0.57813   0.00000  Uiso   1.00
H707   H     0.11343   0.24846   0.92070   0.00000  Uiso   1.00
H708   H     0.14618   0.23199   0.54068   0.00000  Uiso   1.00
H709   H     0.15381   0.10947   0.90005   0.00000  Uiso   1.00
H710   H     0.01561   0.19342   0.70979   0.00000  Uiso   1.00
H711   H     0.18163   0.01062   0.53306   0.00000  Uiso   1.00
I712   I     0.24073   0.06923   0.59554   0.00000  Uiso   1.00
I713   I     0.10649   0.33008   0.82727   0.00000  Uiso   1.00
O714   O     0.16667   0.16667   0.75000   0.00000  Uiso   1.00
O715   O     0.15451   0.12637   0.65459   0.00000  Uiso   1.00
O716   O     0.12940   0.20391   0.84968   0.00000  Uiso   1.00
O717   O     0.20824   0.17759   0.64606   0.00000  Uiso   1.00
O718   O     0.17451   0.15880   0.84968   0.00000  Uiso   1.00
O719   O     0.17930   0.08019   0.78214   0.00000  Uiso   1.00
O720   O     0.14632   0.26085   0.77014   0.00000  Uiso   1.00
O721   O     0.07412   0.13291   0.73413   0.00000  Uiso   1.00
O722   O     0.26693   0.19272   0.71361   0.00000  Uiso   1.00
O723   O     0.07071   0.18878   0.78213   0.00000  Uiso   1.00
O724   O     0.25491   0.15226   0.77014   0.00000  Uiso   1.00
O725   O     0.13760   0.06944   0.73413   0.00000  Uiso   1.00
O726   O     0.20345   0.25620   0.71361   0.00000  Uiso   1.00
Zn727  Zn    0.19338   0.13994   0.78734   0.00000  Uiso   1.00
Zn728  Zn    0.13379   0.12458   0.71876   0.00000  Uiso   1.00
Zn729  Zn    0.21056   0.19775   0.70657   0.00000  Uiso   1.00
Zn730  Zn    0.12893   0.20439   0.78734   0.00000  Uiso   1.00
C731   C     0.38606   0.15964   0.76025   0.00000  Uiso   1.00
C732   C     0.50887   0.16478   0.55890   0.00000  Uiso   1.00
C733   C     0.54377   0.10378   0.56018   0.00000  Uiso   1.00
C734   C     0.61407   0.17375   0.74007   0.00000  Uiso   1.00
C735   C     0.47400   0.19181   0.92019   0.00000  Uiso   1.00
C736   C     0.65992   0.17626   0.73602   0.00000  Uiso   1.00
C737   C     0.34076   0.15746   0.76440   0.00000  Uiso   1.00
C738   C     0.51107   0.32195   0.73644   0.00000  Uiso   1.00
C739   C     0.48484   0.01274   0.76605   0.00000  Uiso   1.00
C740   C     0.49007   0.05606   0.75990   0.00000  Uiso   1.00
C741   C     0.50952   0.27785   0.74044   0.00000  Uiso   1.00
C742   C     0.45912   0.24290   0.98420   0.00000  Uiso   1.00
C743   C     0.51850   0.14818   0.62956   0.00000  Uiso   1.00
C744   C     0.48094   0.18368   0.87118   0.00000  Uiso   1.00
C745   C     0.54218   0.09156   0.51577   0.00000  Uiso   1.00
C746   C     0.52572   0.13960   0.58159   0.00000  Uiso   1.00
C747   C     0.45852   0.22927   0.94011   0.00000  Uiso   1.00
C748   C     0.56188   0.05397   0.99277   0.00000  Uiso   1.00
C749   C     0.54356   0.01422   0.50583   0.00000  Uiso   1.00
C750   C     0.56231   0.31231   0.98390   0.00000  Uiso   1.00
C751   C     0.59920   0.31649   0.94867   0.00000  Uiso   1.00
C752   C     0.61751   0.02262   0.93540   0.00000  Uiso   1.00
C753   C     0.47625   0.21868   0.50833   0.00000  Uiso   1.00
C754   C     0.59897   0.05796   0.95736   0.00000  Uiso   1.00
C755   C     0.44316   0.28321   0.50467   0.00000  Uiso   1.00
C756   C     0.44919   0.31757   0.97891   0.00000  Uiso   1.00
C757   C     0.43368   0.02172   0.99828   0.00000  Uiso   1.00
C758   C     0.41260   0.02572   0.54357   0.00000  Uiso   1.00
C759   C     0.40648   0.32538   0.56954   0.00000  Uiso   1.00
C760   C     0.42141   0.28762   0.55027   0.00000  Uiso   1.00
C761   C     0.48989   0.17941   0.99032   0.00000  Uiso   1.00
C762   C     0.48657   0.16515   0.94639   0.00000  Uiso   1.00
C763   C     0.50721   0.15400   0.51433   0.00000  Uiso   1.00
C764   C     0.52215   0.11569   0.99353   0.00000  Uiso   1.00
C765   C     0.51464   0.10106   0.95191   0.00000  Uiso   1.00
C766   C     0.49548   0.12443   0.92989   0.00000  Uiso   1.00
H767   H     0.65245   0.14044   0.79113   0.00000  Uiso   1.00
H768   H     0.54835   0.28176   0.99427   0.00000  Uiso   1.00
H769   H     0.61362   0.28915   0.93172   0.00000  Uiso   1.00
H770   H     0.64611   0.02582   0.90813   0.00000  Uiso   1.00
H771   H     0.61344   0.08840   0.94684   0.00000  Uiso   1.00
H772   H     0.46650   0.31583   0.94402   0.00000  Uiso   1.00
H773   H     0.43808   0.04775   0.97816   0.00000  Uiso   1.00
H774   H     0.40088   0.05487   0.55851   0.00000  Uiso   1.00
H775   H     0.38987   0.32842   0.60460   0.00000  Uiso   1.00
H776   H     0.41542   0.26175   0.57096   0.00000  Uiso   1.00
H777   H     0.53437   0.00205   0.70811   0.00000  Uiso   1.00
H778   H     0.52202   0.07055   0.93661   0.00000  Uiso   1.00
H779   H     0.49495   0.19132   0.57813   0.00000  Uiso   1.00
H780   H     0.44677   0.24846   0.92070   0.00000  Uiso   1.00
H781   H     0.47951   0.23199   0.54068   0.00000  Uiso   1.00
H782   H     0.48715   0.10947   0.90005   0.00000  Uiso   1.00
H783   H     0.34894   0.19342   0.70979   0.00000  Uiso   1.00
H784   H     0.51496   0.01062   0.53306   0.00000  Uiso   1.00
I785   I     0.57406   0.06923   0.59554   0.00000  Uiso   1.00
I786   I     0.43983   0.33008   0.82727   0.00000  Uiso   1.00
O787   O     0.50000   0.16667   0.75000   0.00000  Uiso   1.00
O788   O     0.48784   0.12637   0.65459   0.00000  Uiso   1.00
O789   O     0.46274   0.20391   0.84968   0.00000  Uiso   1.00
O790   O     0.54157   0.17759   0.64606   0.00000  Uiso   1.00
O791   O     0.50785   0.15880   0.84968   0.00000  Uiso   1.00
O792   O     0.51264   0.08019   0.78214   0.00000  Uiso   1.00
O793   O     0.47965   0.26085   0.77014   0.00000  Uiso   1.00
O794   O     0.40745   0.13291   0.73413   0.00000  Uiso   1.00
O795   O     0.60026   0.19272   0.71361   0.00000  Uiso   1.00
O796   O     0.40405   0.18878   0.78213   0.00000  Uiso   1.00
O797   O     0.58824   0.15226   0.77014   0.00000  Uiso   1.00
O798   O     0.47093   0.06944   0.73413   0.00000  Uiso   1.00
O799   O     0.53678   0.25620   0.71361   0.00000  Uiso   1.00
Zn800  Zn    0.52672   0.13994   0.78734   0.00000  Uiso   1.00
Zn801  Zn    0.46713   0.12458   0.71876   0.00000  Uiso   1.00
Zn802  Zn    0.54389   0.19775   0.70657   0.00000  Uiso   1.00
Zn803  Zn    0.46226   0.20439   0.78734   0.00000  Uiso   1.00
C804   C     0.71939   0.15964   0.76025   0.00000  Uiso   1.00
C805   C     0.84220   0.16478   0.55890   0.00000  Uiso   1.00
C806   C     0.87710   0.10378   0.56018   0.00000  Uiso   1.00
C807   C     0.94740   0.17375   0.74007   0.00000  Uiso   1.00
C808   C     0.80733   0.19181   0.92019   0.00000  Uiso   1.00
C809   C     0.99326   0.17626   0.73602   0.00000  Uiso   1.00
C810   C     0.67409   0.15746   0.76440   0.00000  Uiso   1.00
C811   C     0.84440   0.32195   0.73644   0.00000  Uiso   1.00
C812   C     0.81817   0.01274   0.76605   0.00000  Uiso   1.00
C813   C     0.82340   0.05606   0.75990   0.00000  Uiso   1.00
C814   C     0.84285   0.27785   0.74044   0.00000  Uiso   1.00
C815   C     0.79245   0.24290   0.98420   0.00000  Uiso   1.00
C816   C     0.85183   0.14818   0.62956   0.00000  Uiso   1.00
C817   C     0.81427   0.18368   0.87118   0.00000  Uiso   1.00
C818   C     0.87552   0.09156   0.51577   0.00000  Uiso   1.00
C819   C     0.85905   0.13960   0.58159   0.00000  Uiso   1.00
C820   C     0.79185   0.22927   0.94011   0.00000  Uiso   1.00
C821   C     0.89521   0.05397   0.99277   0.00000  Uiso   1.00
C822   C     0.87689   0.01422   0.50583   0.00000  Uiso   1.00
C823   C     0.89564   0.31231   0.98390   0.00000  Uiso   1.00
C824   C     0.93253   0.31649   0.94867   0.00000  Uiso   1.00
C825   C     0.95085   0.02262   0.93540   0.00000  Uiso   1.00
C826   C     0.80958   0.21868   0.50833   0.00000  Uiso   1.00
C827   C     0.93230   0.05796   0.95736   0.00000  Uiso   1.00
C828   C     0.77649   0.28321   0.50467   0.00000  Uiso   1.00
C829   C     0.78252   0.31757   0.97891   0.00000  Uiso   1.00
C830   C     0.76702   0.02172   0.99828   0.00000  Uiso   1.00
C831   C     0.74593   0.02572   0.54357   0.00000  Uiso   1.00
C832   C     0.73981   0.32538   0.56954   0.00000  Uiso   1.00
C833   C     0.75474   0.28762   0.55027   0.00000  Uiso   1.00
C834   C     0.82323   0.17941   0.99032   0.00000  Uiso   1.00
C835   C     0.81990   0.16515   0.94639   0.00000  Uiso   1.00
C836   C     0.84054   0.15400   0.51433   0.00000  Uiso   1.00
C837   C     0.85549   0.11569   0.99353   0.00000  Uiso   1.00
C838   C     0.84797   0.10106   0.95191   0.00000  Uiso   1.00
C839   C     0.82881   0.12443   0.92989   0.00000  Uiso   1.00
H840   H     0.98579   0.14044   0.79113   0.00000  Uiso   1.00
H841   H     0.88168   0.28176   0.99427   0.00000  Uiso   1.00
H842   H     0.94696   0.28915   0.93172   0.00000  Uiso   1.00
H843   H     0.97944   0.02582   0.90813   0.00000  Uiso   1.00
H844   H     0.94678   0.08840   0.94684   0.00000  Uiso   1.00
H845   H     0.79983   0.31583   0.94402   0.00000  Uiso   1.00
H846   H     0.77141   0.04775   0.97816   0.00000  Uiso   1.00
H847   H     0.73421   0.05487   0.55851   0.00000  Uiso   1.00
H848   H     0.72320   0.32842   0.60460   0.00000  Uiso   1.00
H849   H     0.74875   0.26175   0.57096   0.00000  Uiso   1.00
H850   H     0.86770   0.00205   0.70811   0.00000  Uiso   1.00
H851   H     0.85535   0.07055   0.93661   0.00000  Uiso   1.00
H852   H     0.82828   0.19132   0.57813   0.00000  Uiso   1.00
H853   H     0.78010   0.24846   0.92070   0.00000  Uiso   1.00
H854   H     0.81285   0.23199   0.54068   0.00000  Uiso   1.00
H855   H     0.82048   0.10947   0.90005   0.00000  Uiso   1.00
H856   H     0.68227   0.19342   0.70979   0.00000  Uiso   1.00
H857   H     0.84829   0.01062   0.53306   0.00000  Uiso   1.00
I858   I     0.90740   0.06923   0.59554   0.00000  Uiso   1.00
I859   I     0.77316   0.33008   0.82727   0.00000  Uiso   1.00
O860   O     0.83333   0.16667   0.75000   0.00000  Uiso   1.00
O861   O     0.82118   0.12637   0.65459   0.00000  Uiso   1.00
O862   O     0.79607   0.20391   0.84968   0.00000  Uiso   1.00
O863   O     0.87491   0.17759   0.64606   0.00000  Uiso   1.00
O864   O     0.84118   0.15880   0.84968   0.00000  Uiso   1.00
O865   O     0.84597   0.08019   0.78214   0.00000  Uiso   1.00
O866   O     0.81298   0.26085   0.77014   0.00000  Uiso   1.00
O867   O     0.74078   0.13291   0.73413   0.00000  Uiso   1.00
O868   O     0.93360   0.19272   0.71361   0.00000  Uiso   1.00
O869   O     0.73738   0.18878   0.78213   0.00000  Uiso   1.00
O870   O     0.92158   0.15226   0.77014   0.00000  Uiso   1.00
O871   O     0.80426   0.06944   0.73413   0.00000  Uiso   1.00
O872   O     0.87012   0.25620   0.71361   0.00000  Uiso   1.00
Zn873  Zn    0.86005   0.13994   0.78734   0.00000  Uiso   1.00
Zn874  Zn    0.80046   0.12458   0.71876   0.00000  Uiso   1.00
Zn875  Zn    0.87723   0.19775   0.70657   0.00000  Uiso   1.00
Zn876  Zn    0.79560   0.20439   0.78734   0.00000  Uiso   1.00
C877   C     0.05273   0.49298   0.76025   0.00000  Uiso   1.00
C878   C     0.17553   0.49811   0.55890   0.00000  Uiso   1.00
C879   C     0.21044   0.43711   0.56018   0.00000  Uiso   1.00
C880   C     0.28073   0.50709   0.74007   0.00000  Uiso   1.00
C881   C     0.14067   0.52514   0.92019   0.00000  Uiso   1.00
C882   C     0.32659   0.50959   0.73602   0.00000  Uiso   1.00
C883   C     0.00743   0.49079   0.76440   0.00000  Uiso   1.00
C884   C     0.17773   0.65528   0.73644   0.00000  Uiso   1.00
C885   C     0.15150   0.34608   0.76605   0.00000  Uiso   1.00
C886   C     0.15674   0.38940   0.75990   0.00000  Uiso   1.00
C887   C     0.17618   0.61119   0.74044   0.00000  Uiso   1.00
C888   C     0.12579   0.57623   0.98420   0.00000  Uiso   1.00
C889   C     0.18516   0.48151   0.62956   0.00000  Uiso   1.00
C890   C     0.14761   0.51702   0.87118   0.00000  Uiso   1.00
C891   C     0.20885   0.42489   0.51577   0.00000  Uiso   1.00
C892   C     0.19238   0.47293   0.58159   0.00000  Uiso   1.00
C893   C     0.12518   0.56260   0.94011   0.00000  Uiso   1.00
C894   C     0.22854   0.38731   0.99277   0.00000  Uiso   1.00
C895   C     0.21022   0.34755   0.50583   0.00000  Uiso   1.00
C896   C     0.22898   0.64564   0.98390   0.00000  Uiso   1.00
C897   C     0.26586   0.64982   0.94867   0.00000  Uiso   1.00
C898   C     0.28418   0.35595   0.93540   0.00000  Uiso   1.00
C899   C     0.14291   0.55201   0.50833   0.00000  Uiso   1.00
C900   C     0.26564   0.39129   0.95736   0.00000  Uiso   1.00
C901   C     0.10982   0.61654   0.50467   0.00000  Uiso   1.00
C902   C     0.11585   0.65090   0.97891   0.00000  Uiso   1.00
C903   C     0.10035   0.35506   0.99828   0.00000  Uiso   1.00
C904   C     0.07927   0.35905   0.54357   0.00000  Uiso   1.00
C905   C     0.07314   0.65871   0.56954   0.00000  Uiso   1.00
C906   C     0.08807   0.62095   0.55027   0.00000  Uiso   1.00
C907   C     0.15656   0.51274   0.99032   0.00000  Uiso   1.00
C908   C     0.15323   0.49848   0.94639   0.00000  Uiso   1.00
C909   C     0.17388   0.48733   0.51433   0.00000  Uiso   1.00
C910   C     0.18882   0.44902   0.99353   0.00000  Uiso   1.00
C911   C     0.18131   0.43439   0.95191   0.00000  Uiso   1.00
C912   C     0.16214   0.45777   0.92989   0.00000  Uiso   1.00
H913   H     0.31912   0.47377   0.79113   0.00000  Uiso   1.00
H914   H     0.21502   0.61510   0.99427   0.00000  Uiso   1.00
H915   H     0.28029   0.62249   0.93172   0.00000  Uiso   1.00
H916   H     0.31278   0.35916   0.90813   0.00000  Uiso   1.00
H917   H     0.28011   0.42173   0.94684   0.00000  Uiso   1.00
H918   H     0.13317   0.64917   0.94402   0.00000  Uiso   1.00
H919   H     0.10474   0.38108   0.97816   0.00000  Uiso   1.00
H920   H     0.06754   0.38821   0.55851   0.00000  Uiso   1.00
H921   H     0.05653   0.66176   0.60460   0.00000  Uiso   1.00
H922   H     0.08208   0.59509   0.57096   0.00000  Uiso   1.00
H923   H     0.20103   0.33539   0.70811   0.00000  Uiso   1.00
H924   H     0.18868   0.40388   0.93661   0.00000  Uiso   1.00
H925   H     0.16162   0.52465   0.57813   0.00000  Uiso   1.00
H926   H     0.11343   0.58179   0.92070   0.00000  Uiso   1.00
H927   H     0.14618   0.56532   0.54068   0.00000  Uiso   1.00
H928   H     0.15381   0.44280   0.90005   0.00000  Uiso   1.00
H929   H     0.01561   0.52676   0.70979   0.00000  Uiso   1.00
H930   H     0.18163   0.34395   0.53306   0.00000  Uiso   1.00
I931   I     0.24073   0.40257   0.59554   0.00000  Uiso   1.00
I932   I     0.10649   0.66341   0.82727   0.00000  Uiso   1.00
O933   O     0.16667   0.50000   0.75000   0.00000  Uiso   1.00
O934   O     0.15451   0.45970   0.65459   0.00000  Uiso   1.00
O935   O     0.12940   0.53724   0.84968   0.00000  Uiso   1.00
O936   O     0.20824   0.51092   0.64606   0.00000  Uiso   1.00
O937   O     0.17451   0.49213   0.84968   0.00000  Uiso   1.00
O938   O     0.17930   0.41352   0.78214   0.00000  Uiso   1.00
O939   O     0.14632   0.59418   0.77014   0.00000  Uiso   1.00
O940   O     0.07412   0.46625   0.73413   0.00000  Uiso   1.00
O941   O     0.26693   0.52605   0.71361   0.00000  Uiso   1.00
O942   O     0.07071   0.52211   0.78213   0.00000  Uiso   1.00
O943   O     0.25491   0.48559   0.77014   0.00000  Uiso   1.00
O944   O     0.13760   0.40277   0.73413   0.00000  Uiso   1.00
O945   O     0.20345   0.58953   0.71361   0.00000  Uiso   1.00
Zn946  Zn    0.19338   0.47327   0.78734   0.00000  Uiso   1.00
Zn947  Zn    0.13379   0.45791   0.71876   0.00000  Uiso   1.00
Zn948  Zn    0.21056   0.53109   0.70657   0.00000  Uiso   1.00
Zn949  Zn    0.12893   0.53773   0.78734   0.00000  Uiso   1.00
C950   C     0.38606   0.49298   0.76025   0.00000  Uiso   1.00
C951   C     0.50887   0.49811   0.55890   0.00000  Uiso   1.00
C952   C     0.54377   0.43711   0.56018   0.00000  Uiso   1.00
C953   C     0.61407   0.50709   0.74007   0.00000  Uiso   1.00
C954   C     0.47400   0.52514   0.92019   0.00000  Uiso   1.00
C955   C     0.65992   0.50959   0.73602   0.00000  Uiso   1.00
C956   C     0.34076   0.49079   0.76440   0.00000  Uiso   1.00
C957   C     0.51107   0.65528   0.73644   0.00000  Uiso   1.00
C958   C     0.48484   0.34608   0.76605   0.00000  Uiso   1.00
C959   C     0.49007   0.38940   0.75990   0.00000  Uiso   1.00
C960   C     0.50952   0.61119   0.74044   0.00000  Uiso   1.00
C961   C     0.45912   0.57623   0.98420   0.00000  Uiso   1.00
C962   C     0.51850   0.48151   0.62956   0.00000  Uiso   1.00
C963   C     0.48094   0.51702   0.87118   0.00000  Uiso   1.00
C964   C     0.54218   0.42489   0.51577   0.00000  Uiso   1.00
C965   C     0.52572   0.47293   0.58159   0.00000  Uiso   1.00
C966   C     0.45852   0.56260   0.94011   0.00000  Uiso   1.00
C967   C     0.56188   0.38731   0.99277   0.00000  Uiso   1.00
C968   C     0.54356   0.34755   0.50583   0.00000  Uiso   1.00
C969   C     0.56231   0.64564   0.98390   0.00000  Uiso   1.00
C970   C     0.59920   0.64982   0.94867   0.00000  Uiso   1.00
C971   C     0.61751   0.35595   0.93540   0.00000  Uiso   1.00
C972   C     0.47625   0.55201   0.50833   0.00000  Uiso   1.00
C973   C     0.59897   0.39129   0.95736   0.00000  Uiso   1.00
C974   C     0.44316   0.61654   0.50467   0.00000  Uiso   1.00
C975   C     0.44919   0.65090   0.97891   0.00000  Uiso   1.00
C976   C     0.43368   0.35506   0.99828   0.00000  Uiso   1.00
C977   C     0.41260   0.35905   0.54357   0.00000  Uiso   1.00
C978   C     0.40648   0.65871   0.56954   0.00000  Uiso   1.00
C979   C     0.42141   0.62095   0.55027   0.00000  Uiso   1.00
C980   C     0.48989   0.51274   0.99032   0.00000  Uiso   1.00
C981   C     0.48657   0.49848   0.94639   0.00000  Uiso   1.00
C982   C     0.50721   0.48733   0.51433   0.00000  Uiso   1.00
C983   C     0.52215   0.44902   0.99353   0.00000  Uiso   1.00
C984   C     0.51464   0.43439   0.95191   0.00000  Uiso   1.00
C985   C     0.49548   0.45777   0.92989   0.00000  Uiso   1.00
H986   H     0.65245   0.47377   0.79113   0.00000  Uiso   1.00
H987   H     0.54835   0.61510   0.99427   0.00000  Uiso   1.00
H988   H     0.61362   0.62249   0.93172   0.00000  Uiso   1.00
H989   H     0.64611   0.35916   0.90813   0.00000  Uiso   1.00
H990   H     0.61344   0.42173   0.94684   0.00000  Uiso   1.00
H991   H     0.46650   0.64917   0.94402   0.00000  Uiso   1.00
H992   H     0.43808   0.38108   0.97816   0.00000  Uiso   1.00
H993   H     0.40088   0.38821   0.55851   0.00000  Uiso   1.00
H994   H     0.38987   0.66176   0.60460   0.00000  Uiso   1.00
H995   H     0.41542   0.59509   0.57096   0.00000  Uiso   1.00
H996   H     0.53437   0.33539   0.70811   0.00000  Uiso   1.00
H997   H     0.52202   0.40388   0.93661   0.00000  Uiso   1.00
H998   H     0.49495   0.52465   0.57813   0.00000  Uiso   1.00
H999   H     0.44677   0.58179   0.92070   0.00000  Uiso   1.00
H1000  H     0.47951   0.56532   0.54068   0.00000  Uiso   1.00
H1001  H     0.48715   0.44280   0.90005   0.00000  Uiso   1.00
H1002  H     0.34894   0.52676   0.70979   0.00000  Uiso   1.00
H1003  H     0.51496   0.34395   0.53306   0.00000  Uiso   1.00
I1004  I     0.57406   0.40257   0.59554   0.00000  Uiso   1.00
I1005  I     0.43983   0.66341   0.82727   0.00000  Uiso   1.00
O1006  O     0.50000   0.50000   0.75000   0.00000  Uiso   1.00
O1007  O     0.48784   0.45970   0.65459   0.00000  Uiso   1.00
O1008  O     0.46274   0.53724   0.84968   0.00000  Uiso   1.00
O1009  O     0.54157   0.51092   0.64606   0.00000  Uiso   1.00
O1010  O     0.50785   0.49213   0.84968   0.00000  Uiso   1.00
O1011  O     0.51264   0.41352   0.78214   0.00000  Uiso   1.00
O1012  O     0.47965   0.59418   0.77014   0.00000  Uiso   1.00
O1013  O     0.40745   0.46625   0.73413   0.00000  Uiso   1.00
O1014  O     0.60026   0.52605   0.71361   0.00000  Uiso   1.00
O1015  O     0.40405   0.52211   0.78213   0.00000  Uiso   1.00
O1016  O     0.58824   0.48559   0.77014   0.00000  Uiso   1.00
O1017  O     0.47093   0.40277   0.73413   0.00000  Uiso   1.00
O1018  O     0.53678   0.58953   0.71361   0.00000  Uiso   1.00
Zn1019 Zn    0.52672   0.47327   0.78734   0.00000  Uiso   1.00
Zn1020 Zn    0.46713   0.45791   0.71876   0.00000  Uiso   1.00
Zn1021 Zn    0.54389   0.53109   0.70657   0.00000  Uiso   1.00
Zn1022 Zn    0.46226   0.53773   0.78734   0.00000  Uiso   1.00
C1023  C     0.71939   0.49298   0.76025   0.00000  Uiso   1.00
C1024  C     0.84220   0.49811   0.55890   0.00000  Uiso   1.00
C1025  C     0.87710   0.43711   0.56018   0.00000  Uiso   1.00
C1026  C     0.94740   0.50709   0.74007   0.00000  Uiso   1.00
C1027  C     0.80733   0.52514   0.92019   0.00000  Uiso   1.00
C1028  C     0.99326   0.50959   0.73602   0.00000  Uiso   1.00
C1029  C     0.67409   0.49079   0.76440   0.00000  Uiso   1.00
C1030  C     0.84440   0.65528   0.73644   0.00000  Uiso   1.00
C1031  C     0.81817   0.34608   0.76605   0.00000  Uiso   1.00
C1032  C     0.82340   0.38940   0.75990   0.00000  Uiso   1.00
C1033  C     0.84285   0.61119   0.74044   0.00000  Uiso   1.00
C1034  C     0.79245   0.57623   0.98420   0.00000  Uiso   1.00
C1035  C     0.85183   0.48151   0.62956   0.00000  Uiso   1.00
C1036  C     0.81427   0.51702   0.87118   0.00000  Uiso   1.00
C1037  C     0.87552   0.42489   0.51577   0.00000  Uiso   1.00
C1038  C     0.85905   0.47293   0.58159   0.00000  Uiso   1.00
C1039  C     0.79185   0.56260   0.94011   0.00000  Uiso   1.00
C1040  C     0.89521   0.38731   0.99277   0.00000  Uiso   1.00
C1041  C     0.87689   0.34755   0.50583   0.00000  Uiso   1.00
C1042  C     0.89564   0.64564   0.98390   0.00000  Uiso   1.00
C1043  C     0.93253   0.64982   0.94867   0.00000  Uiso   1.00
C1044  C     0.95085   0.35595   0.93540   0.00000  Uiso   1.00
C1045  C     0.80958   0.55201   0.50833   0.00000  Uiso   1.00
C1046  C     0.93230   0.39129   0.95736   0.00000  Uiso   1.00
C1047  C     0.77649   0.61654   0.50467   0.00000  Uiso   1.00
C1048  C     0.78252   0.65090   0.97891   0.00000  Uiso   1.00
C1049  C     0.76702   0.35506   0.99828   0.00000  Uiso   1.00
C1050  C     0.74593   0.35905   0.54357   0.00000  Uiso   1.00
C1051  C     0.73981   0.65871   0.56954   0.00000  Uiso   1.00
C1052  C     0.75474   0.62095   0.55027   0.00000  Uiso   1.00
C1053  C     0.82323   0.51274   0.99032   0.00000  Uiso   1.00
C1054  C     0.81990   0.49848   0.94639   0.00000  Uiso   1.00
C1055  C     0.84054   0.48733   0.51433   0.00000  Uiso   1.00
C1056  C     0.85549   0.44902   0.99353   0.00000  Uiso   1.00
C1057  C     0.84797   0.43439   0.95191   0.00000  Uiso   1.00
C1058  C     0.82881   0.45777   0.92989   0.00000  Uiso   1.00
H1059  H     0.98579   0.47377   0.79113   0.00000  Uiso   1.00
H1060  H     0.88168   0.61510   0.99427   0.00000  Uiso   1.00
H1061  H     0.94696   0.62249   0.93172   0.00000  Uiso   1.00
H1062  H     0.97944   0.35916   0.90813   0.00000  Uiso   1.00
H1063  H     0.94678   0.42173   0.94684   0.00000  Uiso   1.00
H1064  H     0.79983   0.64917   0.94402   0.00000  Uiso   1.00
H1065  H     0.77141   0.38108   0.97816   0.00000  Uiso   1.00
H1066  H     0.73421   0.38821   0.55851   0.00000  Uiso   1.00
H1067  H     0.72320   0.66176   0.60460   0.00000  Uiso   1.00
H1068  H     0.74875   0.59509   0.57096   0.00000  Uiso   1.00
H1069  H     0.86770   0.33539   0.70811   0.00000  Uiso   1.00
H1070  H     0.85535   0.40388   0.93661   0.00000  Uiso   1.00
H1071  H     0.82828   0.52465   0.57813   0.00000  Uiso   1.00
H1072  H     0.78010   0.58179   0.92070   0.00000  Uiso   1.00
H1073  H     0.81285   0.56532   0.54068   0.00000  Uiso   1.00
H1074  H     0.82048   0.44280   0.90005   0.00000  Uiso   1.00
H1075  H     0.68227   0.52676   0.70979   0.00000  Uiso   1.00
H1076  H     0.84829   0.34395   0.53306   0.00000  Uiso   1.00
I1077  I     0.90740   0.40257   0.59554   0.00000  Uiso   1.00
I1078  I     0.77316   0.66341   0.82727   0.00000  Uiso   1.00
O1079  O     0.83333   0.50000   0.75000   0.00000  Uiso   1.00
O1080  O     0.82118   0.45970   0.65459   0.00000  Uiso   1.00
O1081  O     0.79607   0.53724   0.84968   0.00000  Uiso   1.00
O1082  O     0.87491   0.51092   0.64606   0.00000  Uiso   1.00
O1083  O     0.84118   0.49213   0.84968   0.00000  Uiso   1.00
O1084  O     0.84597   0.41352   0.78214   0.00000  Uiso   1.00
O1085  O     0.81298   0.59418   0.77014   0.00000  Uiso   1.00
O1086  O     0.74078   0.46625   0.73413   0.00000  Uiso   1.00
O1087  O     0.93360   0.52605   0.71361   0.00000  Uiso   1.00
O1088  O     0.73738   0.52211   0.78213   0.00000  Uiso   1.00
O1089  O     0.92158   0.48559   0.77014   0.00000  Uiso   1.00
O1090  O     0.80426   0.40277   0.73413   0.00000  Uiso   1.00
O1091  O     0.87012   0.58953   0.71361   0.00000  Uiso   1.00
Zn1092 Zn    0.86005   0.47327   0.78734   0.00000  Uiso   1.00
Zn1093 Zn    0.80046   0.45791   0.71876   0.00000  Uiso   1.00
Zn1094 Zn    0.87723   0.53109   0.70657   0.00000  Uiso   1.00
Zn1095 Zn    0.79560   0.53773   0.78734   0.00000  Uiso   1.00
C1096  C     0.05273   0.82631   0.76025   0.00000  Uiso   1.00
C1097  C     0.17553   0.83144   0.55890   0.00000  Uiso   1.00
C1098  C     0.21044   0.77045   0.56018   0.00000  Uiso   1.00
C1099  C     0.28073   0.84042   0.74007   0.00000  Uiso   1.00
C1100  C     0.14067   0.85848   0.92019   0.00000  Uiso   1.00
C1101  C     0.32659   0.84292   0.73602   0.00000  Uiso   1.00
C1102  C     0.00743   0.82412   0.76440   0.00000  Uiso   1.00
C1103  C     0.17773   0.98861   0.73644   0.00000  Uiso   1.00
C1104  C     0.15150   0.67941   0.76605   0.00000  Uiso   1.00
C1105  C     0.15674   0.72273   0.75990   0.00000  Uiso   1.00
C1106  C     0.17618   0.94452   0.74044   0.00000  Uiso   1.00
C1107  C     0.12579   0.90956   0.98420   0.00000  Uiso   1.00
C1108  C     0.18516   0.81484   0.62956   0.00000  Uiso   1.00
C1109  C     0.14761   0.85035   0.87118   0.00000  Uiso   1.00
C1110  C     0.20885   0.75823   0.51577   0.00000  Uiso   1.00
C1111  C     0.19238   0.80627   0.58159   0.00000  Uiso   1.00
C1112  C     0.12518   0.89593   0.94011   0.00000  Uiso   1.00
C1113  C     0.22854   0.72064   0.99277   0.00000  Uiso   1.00
C1114  C     0.21022   0.68088   0.50583   0.00000  Uiso   1.00
C1115  C     0.22898   0.97897   0.98390   0.00000  Uiso   1.00
C1116  C     0.26586   0.98315   0.94867   0.00000  Uiso   1.00
C1117  C     0.28418   0.68928   0.93540   0.00000  Uiso   1.00
C1118  C     0.14291   0.88535   0.50833   0.00000  Uiso   1.00
C1119  C     0.26564   0.72462   0.95736   0.00000  Uiso   1.00
C1120  C     0.10982   0.94987   0.50467   0.00000  Uiso   1.00
C1121  C     0.11585   0.98423   0.97891   0.00000  Uiso   1.00
C1122  C     0.10035   0.68839   0.99828   0.00000  Uiso   1.00
C1123  C     0.07927   0.69239   0.54357   0.00000  Uiso   1.00
C1124  C     0.07314   0.99204   0.56954   0.00000  Uiso   1.00
C1125  C     0.08807   0.95429   0.55027   0.00000  Uiso   1.00
C1126  C     0.15656   0.84607   0.99032   0.00000  Uiso   1.00
C1127  C     0.15323   0.83182   0.94639   0.00000  Uiso   1.00
C1128  C     0.17388   0.82066   0.51433   0.00000  Uiso   1.00
C1129  C     0.18882   0.78236   0.99353   0.00000  Uiso   1.00
C1130  C     0.18131   0.76773   0.95191   0.00000  Uiso   1.00
C1131  C     0.16214   0.79110   0.92989   0.00000  Uiso   1.00
H1132  H     0.31912   0.80710   0.79113   0.00000  Uiso   1.00
H1133  H     0.21502   0.94843   0.99427   0.00000  Uiso   1.00
H1134  H     0.28029   0.95582   0.93172   0.00000  Uiso   1.00
H1135  H     0.31278   0.69249   0.90813   0.00000  Uiso   1.00
H1136  H     0.28011   0.75507   0.94684   0.00000  Uiso   1.00
H1137  H     0.13317   0.98250   0.94402   0.00000  Uiso   1.00
H1138  H     0.10474   0.71442   0.97816   0.00000  Uiso   1.00
H1139  H     0.06754   0.72154   0.55851   0.00000  Uiso   1.00
H1140  H     0.05653   0.99509   0.60460   0.00000  Uiso   1.00
H1141  H     0.08208   0.92842   0.57096   0.00000  Uiso   1.00
H1142  H     0.20103   0.66872   0.70811   0.00000  Uiso   1.00
H1143  H     0.18868   0.73722   0.93661   0.00000  Uiso   1.00
H1144  H     0.16162   0.85798   0.57813   0.00000  Uiso   1.00
H1145  H     0.11343   0.91512   0.92070   0.00000  Uiso   1.00
H1146  H     0.14618   0.89866   0.54068   0.00000  Uiso   1.00
H1147  H     0.15381   0.77613   0.90005   0.00000  Uiso   1.00
H1148  H     0.01561   0.86009   0.70979   0.00000  Uiso   1.00
H1149  H     0.18163   0.67729   0.53306   0.00000  Uiso   1.00
I1150  I     0.24073   0.73590   0.59554   0.00000  Uiso   1.00
I1151  I     0.10649   0.99675   0.82727   0.00000  Uiso   1.00
O1152  O     0.16667   0.83333   0.75000   0.00000  Uiso   1.00
O1153  O     0.15451   0.79304   0.65459   0.00000  Uiso   1.00
O1154  O     0.12940   0.87058   0.84968   0.00000  Uiso   1.00
O1155  O     0.20824   0.84425   0.64606   0.00000  Uiso   1.00
O1156  O     0.17451   0.82546   0.84968   0.00000  Uiso   1.00
O1157  O     0.17930   0.74686   0.78214   0.00000  Uiso   1.00
O1158  O     0.14632   0.92751   0.77014   0.00000  Uiso   1.00
O1159  O     0.07412   0.79958   0.73413   0.00000  Uiso   1.00
O1160  O     0.26693   0.85939   0.71361   0.00000  Uiso   1.00
O1161  O     0.07071   0.85544   0.78213   0.00000  Uiso   1.00
O1162  O     0.25491   0.81892   0.77014   0.00000  Uiso   1.00
O1163  O     0.13760   0.73610   0.73413   0.00000  Uiso   1.00
O1164  O     0.20345   0.92286   0.71361   0.00000  Uiso   1.00
Zn1165 Zn    0.19338   0.80661   0.78734   0.00000  Uiso   1.00
Zn1166 Zn    0.13379   0.79124   0.71876   0.00000  Uiso   1.00
Zn1167 Zn    0.21056   0.86442   0.70657   0.00000  Uiso   1.00
Zn1168 Zn    0.12893   0.87106   0.78734   0.00000  Uiso   1.00
C1169  C     0.38606   0.82631   0.76025   0.00000  Uiso   1.00
C1170  C     0.50887   0.83144   0.55890   0.00000  Uiso   1.00
C1171  C     0.54377   0.77045   0.56018   0.00000  Uiso   1.00
C1172  C     0.61407   0.84042   0.74007   0.00000  Uiso   1.00
C1173  C     0.47400   0.85848   0.92019   0.00000  Uiso   1.00
C1174  C     0.65992   0.84292   0.73602   0.00000  Uiso   1.00
C1175  C     0.34076   0.82412   0.76440   0.00000  Uiso   1.00
C1176  C     0.51107   0.98861   0.73644   0.00000  Uiso   1.00
C1177  C     0.48484   0.67941   0.76605   0.00000  Uiso   1.00
C1178  C     0.49007   0.72273   0.75990   0.00000  Uiso   1.00
C1179  C     0.50952   0.94452   0.74044   0.00000  Uiso   1.00
C1180  C     0.45912   0.90956   0.98420   0.00000  Uiso   1.00
C1181  C     0.51850   0.81484   0.62956   0.00000  Uiso   1.00
C1182  C     0.48094   0.85035   0.87118   0.00000  Uiso   1.00
C1183  C     0.54218   0.75823   0.51577   0.00000  Uiso   1.00
C1184  C     0.52572   0.80627   0.58159   0.00000  Uiso   1.00
C1185  C     0.45852   0.89593   0.94011   0.00000  Uiso   1.00
C1186  C     0.56188   0.72064   0.99277   0.00000  Uiso   1.00
C1187  C     0.54356   0.68088   0.50583   0.00000  Uiso   1.00
C1188  C     0.56231   0.97897   0.98390   0.00000  Uiso   1.00
C1189  C     0.59920   0.98315   0.94867   0.00000  Uiso   1.00
C1190  C     0.61751   0.68928   0.93540   0.00000  Uiso   1.00
C1191  C     0.47625   0.88535   0.50833   0.00000  Uiso   1.00
C1192  C     0.59897   0.72462   0.95736   0.00000  Uiso   1.00
C1193  C     0.44316   0.94987   0.50467   0.00000  Uiso   1.00
C1194  C     0.44919   0.98423   0.97891   0.00000  Uiso   1.00
C1195  C     0.43368   0.68839   0.99828   0.00000  Uiso   1.00
C1196  C     0.41260   0.69239   0.54357   0.00000  Uiso   1.00
C1197  C     0.40648   0.99204   0.56954   0.00000  Uiso   1.00
C1198  C     0.42141   0.95429   0.55027   0.00000  Uiso   1.00
C1199  C     0.48989   0.84607   0.99032   0.00000  Uiso   1.00
C1200  C     0.48657   0.83182   0.94639   0.00000  Uiso   1.00
C1201  C     0.50721   0.82066   0.51433   0.00000  Uiso   1.00
C1202  C     0.52215   0.78236   0.99353   0.00000  Uiso   1.00
C1203  C     0.51464   0.76773   0.95191   0.00000  Uiso   1.00
C1204  C     0.49548   0.79110   0.92989   0.00000  Uiso   1.00
H1205  H     0.65245   0.80710   0.79113   0.00000  Uiso   1.00
H1206  H     0.54835   0.94843   0.99427   0.00000  Uiso   1.00
H1207  H     0.61362   0.95582   0.93172   0.00000  Uiso   1.00
H1208  H     0.64611   0.69249   0.90813   0.00000  Uiso   1.00
H1209  H     0.61344   0.75507   0.94684   0.00000  Uiso   1.00
H1210  H     0.46650   0.98250   0.94402   0.00000  Uiso   1.00
H1211  H     0.43808   0.71442   0.97816   0.00000  Uiso   1.00
H1212  H     0.40088   0.72154   0.55851   0.00000  Uiso   1.00
H1213  H     0.38987   0.99509   0.60460   0.00000  Uiso   1.00
H1214  H     0.41542   0.92842   0.57096   0.00000  Uiso   1.00
H1215  H     0.53437   0.66872   0.70811   0.00000  Uiso   1.00
H1216  H     0.52202   0.73722   0.93661   0.00000  Uiso   1.00
H1217  H     0.49495   0.85798   0.57813   0.00000  Uiso   1.00
H1218  H     0.44677   0.91512   0.92070   0.00000  Uiso   1.00
H1219  H     0.47951   0.89866   0.54068   0.00000  Uiso   1.00
H1220  H     0.48715   0.77613   0.90005   0.00000  Uiso   1.00
H1221  H     0.34894   0.86009   0.70979   0.00000  Uiso   1.00
H1222  H     0.51496   0.67729   0.53306   0.00000  Uiso   1.00
I1223  I     0.57406   0.73590   0.59554   0.00000  Uiso   1.00
I1224  I     0.43983   0.99675   0.82727   0.00000  Uiso   1.00
O1225  O     0.50000   0.83333   0.75000   0.00000  Uiso   1.00
O1226  O     0.48784   0.79304   0.65459   0.00000  Uiso   1.00
O1227  O     0.46274   0.87058   0.84968   0.00000  Uiso   1.00
O1228  O     0.54157   0.84425   0.64606   0.00000  Uiso   1.00
O1229  O     0.50785   0.82546   0.84968   0.00000  Uiso   1.00
O1230  O     0.51264   0.74686   0.78214   0.00000  Uiso   1.00
O1231  O     0.47965   0.92751   0.77014   0.00000  Uiso   1.00
O1232  O     0.40745   0.79958   0.73413   0.00000  Uiso   1.00
O1233  O     0.60026   0.85939   0.71361   0.00000  Uiso   1.00
O1234  O     0.40405   0.85544   0.78213   0.00000  Uiso   1.00
O1235  O     0.58824   0.81892   0.77014   0.00000  Uiso   1.00
O1236  O     0.47093   0.73610   0.73413   0.00000  Uiso   1.00
O1237  O     0.53678   0.92286   0.71361   0.00000  Uiso   1.00
Zn1238 Zn    0.52672   0.80661   0.78734   0.00000  Uiso   1.00
Zn1239 Zn    0.46713   0.79124   0.71876   0.00000  Uiso   1.00
Zn1240 Zn    0.54389   0.86442   0.70657   0.00000  Uiso   1.00
Zn1241 Zn    0.46226   0.87106   0.78734   0.00000  Uiso   1.00
C1242  C     0.71939   0.82631   0.76025   0.00000  Uiso   1.00
C1243  C     0.84220   0.83144   0.55890   0.00000  Uiso   1.00
C1244  C     0.87710   0.77045   0.56018   0.00000  Uiso   1.00
C1245  C     0.94740   0.84042   0.74007   0.00000  Uiso   1.00
C1246  C     0.80733   0.85848   0.92019   0.00000  Uiso   1.00
C1247  C     0.99326   0.84292   0.73602   0.00000  Uiso   1.00
C1248  C     0.67409   0.82412   0.76440   0.00000  Uiso   1.00
C1249  C     0.84440   0.98861   0.73644   0.00000  Uiso   1.00
C1250  C     0.81817   0.67941   0.76605   0.00000  Uiso   1.00
C1251  C     0.82340   0.72273   0.75990   0.00000  Uiso   1.00
C1252  C     0.84285   0.94452   0.74044   0.00000  Uiso   1.00
C1253  C     0.79245   0.90956   0.98420   0.00000  Uiso   1.00
C1254  C     0.85183   0.81484   0.62956   0.00000  Uiso   1.00
C1255  C     0.81427   0.85035   0.87118   0.00000  Uiso   1.00
C1256  C     0.87552   0.75823   0.51577   0.00000  Uiso   1.00
C1257  C     0.85905   0.80627   0.58159   0.00000  Uiso   1.00
C1258  C     0.79185   0.89593   0.94011   0.00000  Uiso   1.00
C1259  C     0.89521   0.72064   0.99277   0.00000  Uiso   1.00
C1260  C     0.87689   0.68088   0.50583   0.00000  Uiso   1.00
C1261  C     0.89564   0.97897   0.98390   0.00000  Uiso   1.00
C1262  C     0.93253   0.98315   0.94867   0.00000  Uiso   1.00
C1263  C     0.95085   0.68928   0.93540   0.00000  Uiso   1.00
C1264  C     0.80958   0.88535   0.50833   0.00000  Uiso   1.00
C1265  C     0.93230   0.72462   0.95736   0.00000  Uiso   1.00
C1266  C     0.77649   0.94987   0.50467   0.00000  Uiso   1.00
C1267  C     0.78252   0.98423   0.97891   0.00000  Uiso   1.00
C1268  C     0.76702   0.68839   0.99828   0.00000  Uiso   1.00
C1269  C     0.74593   0.69239   0.54357   0.00000  Uiso   1.00
C1270  C     0.73981   0.99204   0.56954   0.00000  Uiso   1.00
C1271  C     0.75474   0.95429   0.55027   0.00000  Uiso   1.00
C1272  C     0.82323   0.84607   0.99032   0.00000  Uiso   1.00
C1273  C     0.81990   0.83182   0.94639   0.00000  Uiso   1.00
C1274  C     0.84054   0.82066   0.51433   0.00000  Uiso   1.00
C1275  C     0.85549   0.78236   0.99353   0.00000  Uiso   1.00
C1276  C     0.84797   0.76773   0.95191   0.00000  Uiso   1.00
C1277  C     0.82881   0.79110   0.92989   0.00000  Uiso   1.00
H1278  H     0.98579   0.80710   0.79113   0.00000  Uiso   1.00
H1279  H     0.88168   0.94843   0.99427   0.00000  Uiso   1.00
H1280  H     0.94696   0.95582   0.93172   0.00000  Uiso   1.00
H1281  H     0.97944   0.69249   0.90813   0.00000  Uiso   1.00
H1282  H     0.94678   0.75507   0.94684   0.00000  Uiso   1.00
H1283  H     0.79983   0.98250   0.94402   0.00000  Uiso   1.00
H1284  H     0.77141   0.71442   0.97816   0.00000  Uiso   1.00
H1285  H     0.73421   0.72154   0.55851   0.00000  Uiso   1.00
H1286  H     0.72320   0.99509   0.60460   0.00000  Uiso   1.00
H1287  H     0.74875   0.92842   0.57096   0.00000  Uiso   1.00
H1288  H     0.86770   0.66872   0.70811   0.00000  Uiso   1.00
H1289  H     0.85535   0.73722   0.93661   0.00000  Uiso   1.00
H1290  H     0.82828   0.85798   0.57813   0.00000  Uiso   1.00
H1291  H     0.78010   0.91512   0.92070   0.00000  Uiso   1.00
H1292  H     0.81285   0.89866   0.54068   0.00000  Uiso   1.00
H1293  H     0.82048   0.77613   0.90005   0.00000  Uiso   1.00
H1294  H     0.68227   0.86009   0.70979   0.00000  Uiso   1.00
H1295  H     0.84829   0.67729   0.53306   0.00000  Uiso   1.00
I1296  I     0.90740   0.73590   0.59554   0.00000  Uiso   1.00
I1297  I     0.77316   0.99675   0.82727   0.00000  Uiso   1.00
O1298  O     0.83333   0.83333   0.75000   0.00000  Uiso   1.00
O1299  O     0.82118   0.79304   0.65459   0.00000  Uiso   1.00
O1300  O     0.79607   0.87058   0.84968   0.00000  Uiso   1.00
O1301  O     0.87491   0.84425   0.64606   0.00000  Uiso   1.00
O1302  O     0.84118   0.82546   0.84968   0.00000  Uiso   1.00
O1303  O     0.84597   0.74686   0.78214   0.00000  Uiso   1.00
O1304  O     0.81298   0.92751   0.77014   0.00000  Uiso   1.00
O1305  O     0.74078   0.79958   0.73413   0.00000  Uiso   1.00
O1306  O     0.93360   0.85939   0.71361   0.00000  Uiso   1.00
O1307  O     0.73738   0.85544   0.78213   0.00000  Uiso   1.00
O1308  O     0.92158   0.81892   0.77014   0.00000  Uiso   1.00
O1309  O     0.80426   0.73610   0.73413   0.00000  Uiso   1.00
O1310  O     0.87012   0.92286   0.71361   0.00000  Uiso   1.00
Zn1311 Zn    0.86005   0.80661   0.78734   0.00000  Uiso   1.00
Zn1312 Zn    0.80046   0.79124   0.71876   0.00000  Uiso   1.00
Zn1313 Zn    0.87723   0.86442   0.70657   0.00000  Uiso   1.00
Zn1314 Zn    0.79560   0.87106   0.78734   0.00000  Uiso   1.00
loop_
_geom_bond_atom_site_label_1
_geom_bond_atom_site_label_2
_geom_bond_distance
_geom_bond_site_symmetry_2
_ccdc_geom_bond_type
C1     O66     1.270   .     A
C1     O64     1.271   .     A
C1     C7      1.435   .     S
C2     C16     1.388   .     A
C2     H49     1.077   .     S
C2     C33     1.404   .     A
C3     I55     2.143   .     S
C3     C15     1.405   .     A
C3     C16     1.400   .     A
C4     O65     1.282   .     A
C4     C6      1.452   .     S
C4     O67     1.280   .     A
C5     C17     1.401   .     A
C5     C32     1.419   .     A
C5     C14     1.479   .     S
C6     C80     1.333   .     S
C6     H126    1.088   .     S
C7     C152    1.333   1_455 S
C7     H183    1.086   1_455 S
C8     C11     1.448   .     S
C8     C228    1.343   .     S
C8     H266    1.088   .     S
C9     C10     1.426   .     S
C9     C446    1.343   1_545 S
C9     I494    2.140   1_545 S
C10    O62     1.271   .     A
C10    O68     1.277   .     A
C11    O63     1.263   .     A
C11    O69     1.278   .     A
C12    C17     1.397   .     A
C12    C680    1.403   .     S
C12    C682    1.492   .     S
C13    O60     1.278   .     A
C13    O58     1.273   .     A
C13    C16     1.448   .     S
C14    O59     1.282   .     A
C14    O61     1.280   .     A
C15    C675    1.484   1_554 S
C15    C691    1.421   1_554 S
C17    H50     1.083   .     S
C18    C24     1.405   .     A
C18    C672    1.484   .     S
C18    C676    1.404   .     S
C19    H54     1.083   .     S
C19    C675    1.404   1_554 S
C19    C1115   1.398   1_544 S
C20    H38     1.081   .     S
C20    C21     1.397   .     A
C20    C895    1.398   .     S
C21    H39     1.082   .     S
C21    C241    1.398   .     S
C22    H40     1.082   .     S
C22    C24     1.398   .     A
C22    C459    1.398   1_545 S
C23    H51     1.075   .     S
C23    C669    1.403   1_554 S
C23    C688    1.419   1_554 S
C24    H41     1.083   .     S
C25    C30     1.409   .     A
C25    C669    1.492   1_554 S
C25    C683    1.411   1_554 S
C26    H42     1.082   .     S
C26    C682    1.411   .     S
C26    C246    1.398   .     S
C27    H43     1.081   .     S
C27    C464    1.398   1_545 S
C27    C685    1.395   .     S
C28    H44     1.082   .     S
C28    C684    1.395   1_554 S
C28    C467    1.396   1_545 S
C29    H45     1.082   .     S
C29    C30     1.398   .     A
C29    C247    1.396   .     S
C30    H46     1.083   .     S
C31    C32     1.419   .     A
C31    C680    1.419   .     S
C31    C690    1.430   .     S
C32    C36     1.408   .     A
C33    C688    1.430   1_554 S
C33    C691    1.426   1_554 S
C34    C35     1.398   .     A
C34    C690    1.426   .     S
C34    C672    1.421   .     S
C35    C36     1.381   .     A
C35    H48     1.083   .     S
C36    H52     1.079   .     S
H37    C80     1.086   .     S
H47    C446    1.088   1_545 S
H53    C152    1.088   1_455 S
I56    C228    2.140   .     S
O57    Zn73    1.927   .     S
O57    Zn70    1.955   .     S
O57    Zn71    1.949   .     S
O57    Zn72    1.943   .     S
O58    Zn71    1.936   .     S
O59    Zn73    1.944   .     S
O60    Zn72    1.939   .     S
O61    Zn70    1.930   .     S
O62    Zn70    1.935   .     S
O63    Zn73    1.939   .     S
O64    Zn71    1.920   .     S
O65    Zn72    1.930   .     S
O66    Zn73    1.931   .     S
O67    Zn70    1.924   .     S
O68    Zn71    1.938   .     S
O69    Zn72    1.931   .     S
C74    O139    1.270   .     A
C74    O137    1.271   .     A
C74    C80     1.435   .     S
C75    C89     1.388   .     A
C75    H122    1.077   .     S
C75    C106    1.404   .     A
C76    I128    2.143   .     S
C76    C88     1.405   .     A
C76    C89     1.400   .     A
C77    O138    1.282   .     A
C77    C79     1.452   .     S
C77    O140    1.280   .     A
C78    C90     1.401   .     A
C78    C105    1.419   .     A
C78    C87     1.479   .     S
C79    C153    1.333   .     S
C79    H199    1.088   .     S
C81    C84     1.448   .     S
C81    C301    1.343   .     S
C81    H339    1.088   .     S
C82    C83     1.426   .     S
C82    C519    1.343   1_545 S
C82    I567    2.140   1_545 S
C83    O135    1.271   .     A
C83    O141    1.277   .     A
C84    O136    1.263   .     A
C84    O142    1.278   .     A
C85    C90     1.397   .     A
C85    C753    1.403   .     S
C85    C755    1.492   .     S
C86    O133    1.278   .     A
C86    O131    1.273   .     A
C86    C89     1.448   .     S
C87    O132    1.282   .     A
C87    O134    1.280   .     A
C88    C748    1.484   1_554 S
C88    C764    1.421   1_554 S
C90    H123    1.083   .     S
C91    C97     1.405   .     A
C91    C745    1.484   .     S
C91    C749    1.404   .     S
C92    H127    1.083   .     S
C92    C748    1.404   1_554 S
C92    C1188   1.398   1_544 S
C93    H111    1.081   .     S
C93    C94     1.397   .     A
C93    C968    1.398   .     S
C94    H112    1.082   .     S
C94    C314    1.398   .     S
C95    H113    1.082   .     S
C95    C97     1.398   .     A
C95    C532    1.398   1_545 S
C96    H124    1.075   .     S
C96    C742    1.403   1_554 S
C96    C761    1.419   1_554 S
C97    H114    1.083   .     S
C98    C103    1.409   .     A
C98    C742    1.492   1_554 S
C98    C756    1.411   1_554 S
C99    H115    1.082   .     S
C99    C755    1.411   .     S
C99    C319    1.398   .     S
C100   H116    1.081   .     S
C100   C537    1.398   1_545 S
C100   C758    1.395   .     S
C101   H117    1.082   .     S
C101   C757    1.395   1_554 S
C101   C540    1.396   1_545 S
C102   H118    1.082   .     S
C102   C103    1.398   .     A
C102   C320    1.396   .     S
C103   H119    1.083   .     S
C104   C105    1.419   .     A
C104   C753    1.419   .     S
C104   C763    1.430   .     S
C105   C109    1.408   .     A
C106   C761    1.430   1_554 S
C106   C764    1.426   1_554 S
C107   C108    1.398   .     A
C107   C763    1.426   .     S
C107   C745    1.421   .     S
C108   C109    1.381   .     A
C108   H121    1.083   .     S
C109   H125    1.079   .     S
H110   C153    1.086   .     S
H120   C519    1.088   1_545 S
I129   C301    2.140   .     S
O130   Zn146   1.927   .     S
O130   Zn143   1.955   .     S
O130   Zn144   1.949   .     S
O130   Zn145   1.943   .     S
O131   Zn144   1.936   .     S
O132   Zn146   1.944   .     S
O133   Zn145   1.939   .     S
O134   Zn143   1.930   .     S
O135   Zn143   1.935   .     S
O136   Zn146   1.939   .     S
O137   Zn144   1.920   .     S
O138   Zn145   1.930   .     S
O139   Zn146   1.931   .     S
O140   Zn143   1.924   .     S
O141   Zn144   1.938   .     S
O142   Zn145   1.931   .     S
C147   O212    1.270   .     A
C147   O210    1.271   .     A
C147   C153    1.435   .     S
C148   C162    1.388   .     A
C148   H195    1.077   .     S
C148   C179    1.404   .     A
C149   I201    2.143   .     S
C149   C161    1.405   .     A
C149   C162    1.400   .     A
C150   O211    1.282   .     A
C150   C152    1.452   .     S
C150   O213    1.280   .     A
C151   C163    1.401   .     A
C151   C178    1.419   .     A
C151   C160    1.479   .     S
C152   C7      1.333   1_655 S
C152   H53     1.088   1_655 S
C154   C157    1.448   .     S
C154   C374    1.343   .     S
C154   H412    1.088   .     S
C155   C156    1.426   .     S
C155   C592    1.343   1_545 S
C155   I640    2.140   1_545 S
C156   O208    1.271   .     A
C156   O214    1.277   .     A
C157   O209    1.263   .     A
C157   O215    1.278   .     A
C158   C163    1.397   .     A
C158   C826    1.403   .     S
C158   C828    1.492   .     S
C159   O206    1.278   .     A
C159   O204    1.273   .     A
C159   C162    1.448   .     S
C160   O205    1.282   .     A
C160   O207    1.280   .     A
C161   C821    1.484   1_554 S
C161   C837    1.421   1_554 S
C163   H196    1.083   .     S
C164   C170    1.405   .     A
C164   C818    1.484   .     S
C164   C822    1.404   .     S
C165   H200    1.083   .     S
C165   C821    1.404   1_554 S
C165   C1261   1.398   1_544 S
C166   H184    1.081   .     S
C166   C167    1.397   .     A
C166   C1041   1.398   .     S
C167   H185    1.082   .     S
C167   C387    1.398   .     S
C168   H186    1.082   .     S
C168   C170    1.398   .     A
C168   C605    1.398   1_545 S
C169   H197    1.075   .     S
C169   C815    1.403   1_554 S
C169   C834    1.419   1_554 S
C170   H187    1.083   .     S
C171   C176    1.409   .     A
C171   C815    1.492   1_554 S
C171   C829    1.411   1_554 S
C172   H188    1.082   .     S
C172   C828    1.411   .     S
C172   C392    1.398   .     S
C173   H189    1.081   .     S
C173   C610    1.398   1_545 S
C173   C831    1.395   .     S
C174   H190    1.082   .     S
C174   C830    1.395   1_554 S
C174   C613    1.396   1_545 S
C175   H191    1.082   .     S
C175   C176    1.398   .     A
C175   C393    1.396   .     S
C176   H192    1.083   .     S
C177   C178    1.419   .     A
C177   C826    1.419   .     S
C177   C836    1.430   .     S
C178   C182    1.408   .     A
C179   C834    1.430   1_554 S
C179   C837    1.426   1_554 S
C180   C181    1.398   .     A
C180   C836    1.426   .     S
C180   C818    1.421   .     S
C181   C182    1.381   .     A
C181   H194    1.083   .     S
C182   H198    1.079   .     S
H183   C7      1.086   1_655 S
H193   C592    1.088   1_545 S
I202   C374    2.140   .     S
O203   Zn219   1.927   .     S
O203   Zn216   1.955   .     S
O203   Zn217   1.949   .     S
O203   Zn218   1.943   .     S
O204   Zn217   1.936   .     S
O205   Zn219   1.944   .     S
O206   Zn218   1.939   .     S
O207   Zn216   1.930   .     S
O208   Zn216   1.935   .     S
O209   Zn219   1.939   .     S
O210   Zn217   1.920   .     S
O211   Zn218   1.930   .     S
O212   Zn219   1.931   .     S
O213   Zn216   1.924   .     S
O214   Zn217   1.938   .     S
O215   Zn218   1.931   .     S
C220   O285    1.270   .     A
C220   O283    1.271   .     A
C220   C226    1.435   .     S
C221   C235    1.388   .     A
C221   H268    1.077   .     S
C221   C252    1.404   .     A
C222   I274    2.143   .     S
C222   C234    1.405   .     A
C222   C235    1.400   .     A
C223   O284    1.282   .     A
C223   C225    1.452   .     S
C223   O286    1.280   .     A
C224   C236    1.401   .     A
C224   C251    1.419   .     A
C224   C233    1.479   .     S
C225   C299    1.333   .     S
C225   H345    1.088   .     S
C226   C371    1.333   1_455 S
C226   H402    1.086   1_455 S
C227   C230    1.448   .     S
C227   C447    1.343   .     S
C227   H485    1.088   .     S
C228   C229    1.426   .     S
C229   O281    1.271   .     A
C229   O287    1.277   .     A
C230   O282    1.263   .     A
C230   O288    1.278   .     A
C231   C236    1.397   .     A
C231   C899    1.403   .     S
C231   C901    1.492   .     S
C232   O279    1.278   .     A
C232   O277    1.273   .     A
C232   C235    1.448   .     S
C233   O278    1.282   .     A
C233   O280    1.280   .     A
C234   C894    1.484   1_554 S
C234   C910    1.421   1_554 S
C236   H269    1.083   .     S
C237   C243    1.405   .     A
C237   C891    1.484   .     S
C237   C895    1.404   .     S
C238   H273    1.083   .     S
C238   C894    1.404   1_554 S
C238   C677    1.398   1_554 S
C239   H257    1.081   .     S
C239   C240    1.397   .     A
C239   C1114   1.398   .     S
C240   H258    1.082   .     S
C240   C460    1.398   .     S
C241   H259    1.082   .     S
C241   C243    1.398   .     A
C242   H270    1.075   .     S
C242   C888    1.403   1_554 S
C242   C907    1.419   1_554 S
C243   H260    1.083   .     S
C244   C249    1.409   .     A
C244   C888    1.492   1_554 S
C244   C902    1.411   1_554 S
C245   H261    1.082   .     S
C245   C901    1.411   .     S
C245   C465    1.398   .     S
C246   H262    1.081   .     S
C246   C904    1.395   .     S
C247   H263    1.082   .     S
C247   C903    1.395   1_554 S
C248   H264    1.082   .     S
C248   C249    1.398   .     A
C248   C466    1.396   .     S
C249   H265    1.083   .     S
C250   C251    1.419   .     A
C250   C899    1.419   .     S
C250   C909    1.430   .     S
C251   C255    1.408   .     A
C252   C907    1.430   1_554 S
C252   C910    1.426   1_554 S
C253   C254    1.398   .     A
C253   C909    1.426   .     S
C253   C891    1.421   .     S
C254   C255    1.381   .     A
C254   H267    1.083   .     S
C255   H271    1.079   .     S
H256   C299    1.086   .     S
H272   C371    1.088   1_455 S
I275   C447    2.140   .     S
O276   Zn292   1.927   .     S
O276   Zn289   1.955   .     S
O276   Zn290   1.949   .     S
O276   Zn291   1.943   .     S
O277   Zn290   1.936   .     S
O278   Zn292   1.944   .     S
O279   Zn291   1.939   .     S
O280   Zn289   1.930   .     S
O281   Zn289   1.935   .     S
O282   Zn292   1.939   .     S
O283   Zn290   1.920   .     S
O284   Zn291   1.930   .     S
O285   Zn292   1.931   .     S
O286   Zn289   1.924   .     S
O287   Zn290   1.938   .     S
O288   Zn291   1.931   .     S
C293   O358    1.270   .     A
C293   O356    1.271   .     A
C293   C299    1.435   .     S
C294   C308    1.388   .     A
C294   H341    1.077   .     S
C294   C325    1.404   .     A
C295   I347    2.143   .     S
C295   C307    1.405   .     A
C295   C308    1.400   .     A
C296   O357    1.282   .     A
C296   C298    1.452   .     S
C296   O359    1.280   .     A
C297   C309    1.401   .     A
C297   C324    1.419   .     A
C297   C306    1.479   .     S
C298   C372    1.333   .     S
C298   H418    1.088   .     S
C300   C303    1.448   .     S
C300   C520    1.343   .     S
C300   H558    1.088   .     S
C301   C302    1.426   .     S
C302   O354    1.271   .     A
C302   O360    1.277   .     A
C303   O355    1.263   .     A
C303   O361    1.278   .     A
C304   C309    1.397   .     A
C304   C972    1.403   .     S
C304   C974    1.492   .     S
C305   O352    1.278   .     A
C305   O350    1.273   .     A
C305   C308    1.448   .     S
C306   O351    1.282   .     A
C306   O353    1.280   .     A
C307   C967    1.484   1_554 S
C307   C983    1.421   1_554 S
C309   H342    1.083   .     S
C310   C316    1.405   .     A
C310   C964    1.484   .     S
C310   C968    1.404   .     S
C311   H346    1.083   .     S
C311   C967    1.404   1_554 S
C311   C750    1.398   1_554 S
C312   H330    1.081   .     S
C312   C313    1.397   .     A
C312   C1187   1.398   .     S
C313   H331    1.082   .     S
C313   C533    1.398   .     S
C314   H332    1.082   .     S
C314   C316    1.398   .     A
C315   H343    1.075   .     S
C315   C961    1.403   1_554 S
C315   C980    1.419   1_554 S
C316   H333    1.083   .     S
C317   C322    1.409   .     A
C317   C961    1.492   1_554 S
C317   C975    1.411   1_554 S
C318   H334    1.082   .     S
C318   C974    1.411   .     S
C318   C538    1.398   .     S
C319   H335    1.081   .     S
C319   C977    1.395   .     S
C320   H336    1.082   .     S
C320   C976    1.395   1_554 S
C321   H337    1.082   .     S
C321   C322    1.398   .     A
C321   C539    1.396   .     S
C322   H338    1.083   .     S
C323   C324    1.419   .     A
C323   C972    1.419   .     S
C323   C982    1.430   .     S
C324   C328    1.408   .     A
C325   C980    1.430   1_554 S
C325   C983    1.426   1_554 S
C326   C327    1.398   .     A
C326   C982    1.426   .     S
C326   C964    1.421   .     S
C327   C328    1.381   .     A
C327   H340    1.083   .     S
C328   H344    1.079   .     S
H329   C372    1.086   .     S
I348   C520    2.140   .     S
O349   Zn365   1.927   .     S
O349   Zn362   1.955   .     S
O349   Zn363   1.949   .     S
O349   Zn364   1.943   .     S
O350   Zn363   1.936   .     S
O351   Zn365   1.944   .     S
O352   Zn364   1.939   .     S
O353   Zn362   1.930   .     S
O354   Zn362   1.935   .     S
O355   Zn365   1.939   .     S
O356   Zn363   1.920   .     S
O357   Zn364   1.930   .     S
O358   Zn365   1.931   .     S
O359   Zn362   1.924   .     S
O360   Zn363   1.938   .     S
O361   Zn364   1.931   .     S
C366   O431    1.270   .     A
C366   O429    1.271   .     A
C366   C372    1.435   .     S
C367   C381    1.388   .     A
C367   H414    1.077   .     S
C367   C398    1.404   .     A
C368   I420    2.143   .     S
C368   C380    1.405   .     A
C368   C381    1.400   .     A
C369   O430    1.282   .     A
C369   C371    1.452   .     S
C369   O432    1.280   .     A
C370   C382    1.401   .     A
C370   C397    1.419   .     A
C370   C379    1.479   .     S
C371   C226    1.333   1_655 S
C371   H272    1.088   1_655 S
C373   C376    1.448   .     S
C373   C593    1.343   .     S
C373   H631    1.088   .     S
C374   C375    1.426   .     S
C375   O427    1.271   .     A
C375   O433    1.277   .     A
C376   O428    1.263   .     A
C376   O434    1.278   .     A
C377   C382    1.397   .     A
C377   C1045   1.403   .     S
C377   C1047   1.492   .     S
C378   O425    1.278   .     A
C378   O423    1.273   .     A
C378   C381    1.448   .     S
C379   O424    1.282   .     A
C379   O426    1.280   .     A
C380   C1040   1.484   1_554 S
C380   C1056   1.421   1_554 S
C382   H415    1.083   .     S
C383   C389    1.405   .     A
C383   C1037   1.484   .     S
C383   C1041   1.404   .     S
C384   H419    1.083   .     S
C384   C1040   1.404   1_554 S
C384   C823    1.398   1_554 S
C385   H403    1.081   .     S
C385   C386    1.397   .     A
C385   C1260   1.398   .     S
C386   H404    1.082   .     S
C386   C606    1.398   .     S
C387   H405    1.082   .     S
C387   C389    1.398   .     A
C388   H416    1.075   .     S
C388   C1034   1.403   1_554 S
C388   C1053   1.419   1_554 S
C389   H406    1.083   .     S
C390   C395    1.409   .     A
C390   C1034   1.492   1_554 S
C390   C1048   1.411   1_554 S
C391   H407    1.082   .     S
C391   C1047   1.411   .     S
C391   C611    1.398   .     S
C392   H408    1.081   .     S
C392   C1050   1.395   .     S
C393   H409    1.082   .     S
C393   C1049   1.395   1_554 S
C394   H410    1.082   .     S
C394   C395    1.398   .     A
C394   C612    1.396   .     S
C395   H411    1.083   .     S
C396   C397    1.419   .     A
C396   C1045   1.419   .     S
C396   C1055   1.430   .     S
C397   C401    1.408   .     A
C398   C1053   1.430   1_554 S
C398   C1056   1.426   1_554 S
C399   C400    1.398   .     A
C399   C1055   1.426   .     S
C399   C1037   1.421   .     S
C400   C401    1.381   .     A
C400   H413    1.083   .     S
C401   H417    1.079   .     S
H402   C226    1.086   1_655 S
I421   C593    2.140   .     S
O422   Zn438   1.927   .     S
O422   Zn435   1.955   .     S
O422   Zn436   1.949   .     S
O422   Zn437   1.943   .     S
O423   Zn436   1.936   .     S
O424   Zn438   1.944   .     S
O425   Zn437   1.939   .     S
O426   Zn435   1.930   .     S
O427   Zn435   1.935   .     S
O428   Zn438   1.939   .     S
O429   Zn436   1.920   .     S
O430   Zn437   1.930   .     S
O431   Zn438   1.931   .     S
O432   Zn435   1.924   .     S
O433   Zn436   1.938   .     S
O434   Zn437   1.931   .     S
C439   O504    1.270   .     A
C439   O502    1.271   .     A
C439   C445    1.435   .     S
C440   C454    1.388   .     A
C440   H487    1.077   .     S
C440   C471    1.404   .     A
C441   I493    2.143   .     S
C441   C453    1.405   .     A
C441   C454    1.400   .     A
C442   O503    1.282   .     A
C442   C444    1.452   .     S
C442   O505    1.280   .     A
C443   C455    1.401   .     A
C443   C470    1.419   .     A
C443   C452    1.479   .     S
C444   C518    1.333   .     S
C444   H564    1.088   .     S
C445   C590    1.333   1_455 S
C445   H621    1.086   1_455 S
C446   C449    1.448   .     S
C446   C9      1.343   1_565 S
C446   H47     1.088   1_565 S
C447   C448    1.426   .     S
C448   O500    1.271   .     A
C448   O506    1.277   .     A
C449   O501    1.263   .     A
C449   O507    1.278   .     A
C450   C455    1.397   .     A
C450   C1118   1.403   .     S
C450   C1120   1.492   .     S
C451   O498    1.278   .     A
C451   O496    1.273   .     A
C451   C454    1.448   .     S
C452   O497    1.282   .     A
C452   O499    1.280   .     A
C453   C1113   1.484   1_554 S
C453   C1129   1.421   1_554 S
C455   H488    1.083   .     S
C456   C462    1.405   .     A
C456   C1110   1.484   .     S
C456   C1114   1.404   .     S
C457   H492    1.083   .     S
C457   C1113   1.404   1_554 S
C457   C896    1.398   1_554 S
C458   H476    1.081   .     S
C458   C459    1.397   .     A
C458   C676    1.398   1_565 S
C459   H477    1.082   .     S
C459   C22     1.398   1_565 S
C460   H478    1.082   .     S
C460   C462    1.398   .     A
C461   H489    1.075   .     S
C461   C1107   1.403   1_554 S
C461   C1126   1.419   1_554 S
C462   H479    1.083   .     S
C463   C468    1.409   .     A
C463   C1107   1.492   1_554 S
C463   C1121   1.411   1_554 S
C464   H480    1.082   .     S
C464   C1120   1.411   .     S
C464   C27     1.398   1_565 S
C465   H481    1.081   .     S
C465   C1123   1.395   .     S
C466   H482    1.082   .     S
C466   C1122   1.395   1_554 S
C467   H483    1.082   .     S
C467   C468    1.398   .     A
C467   C28     1.396   1_565 S
C468   H484    1.083   .     S
C469   C470    1.419   .     A
C469   C1118   1.419   .     S
C469   C1128   1.430   .     S
C470   C474    1.408   .     A
C471   C1126   1.430   1_554 S
C471   C1129   1.426   1_554 S
C472   C473    1.398   .     A
C472   C1128   1.426   .     S
C472   C1110   1.421   .     S
C473   C474    1.381   .     A
C473   H486    1.083   .     S
C474   H490    1.079   .     S
H475   C518    1.086   .     S
H491   C590    1.088   1_455 S
I494   C9      2.140   1_565 S
O495   Zn511   1.927   .     S
O495   Zn508   1.955   .     S
O495   Zn509   1.949   .     S
O495   Zn510   1.943   .     S
O496   Zn509   1.936   .     S
O497   Zn511   1.944   .     S
O498   Zn510   1.939   .     S
O499   Zn508   1.930   .     S
O500   Zn508   1.935   .     S
O501   Zn511   1.939   .     S
O502   Zn509   1.920   .     S
O503   Zn510   1.930   .     S
O504   Zn511   1.931   .     S
O505   Zn508   1.924   .     S
O506   Zn509   1.938   .     S
O507   Zn510   1.931   .     S
C512   O577    1.270   .     A
C512   O575    1.271   .     A
C512   C518    1.435   .     S
C513   C527    1.388   .     A
C513   H560    1.077   .     S
C513   C544    1.404   .     A
C514   I566    2.143   .     S
C514   C526    1.405   .     A
C514   C527    1.400   .     A
C515   O576    1.282   .     A
C515   C517    1.452   .     S
C515   O578    1.280   .     A
C516   C528    1.401   .     A
C516   C543    1.419   .     A
C516   C525    1.479   .     S
C517   C591    1.333   .     S
C517   H637    1.088   .     S
C519   C522    1.448   .     S
C519   C82     1.343   1_565 S
C519   H120    1.088   1_565 S
C520   C521    1.426   .     S
C521   O573    1.271   .     A
C521   O579    1.277   .     A
C522   O574    1.263   .     A
C522   O580    1.278   .     A
C523   C528    1.397   .     A
C523   C1191   1.403   .     S
C523   C1193   1.492   .     S
C524   O571    1.278   .     A
C524   O569    1.273   .     A
C524   C527    1.448   .     S
C525   O570    1.282   .     A
C525   O572    1.280   .     A
C526   C1186   1.484   1_554 S
C526   C1202   1.421   1_554 S
C528   H561    1.083   .     S
C529   C535    1.405   .     A
C529   C1183   1.484   .     S
C529   C1187   1.404   .     S
C530   H565    1.083   .     S
C530   C1186   1.404   1_554 S
C530   C969    1.398   1_554 S
C531   H549    1.081   .     S
C531   C532    1.397   .     A
C531   C749    1.398   1_565 S
C532   H550    1.082   .     S
C532   C95     1.398   1_565 S
C533   H551    1.082   .     S
C533   C535    1.398   .     A
C534   H562    1.075   .     S
C534   C1180   1.403   1_554 S
C534   C1199   1.419   1_554 S
C535   H552    1.083   .     S
C536   C541    1.409   .     A
C536   C1180   1.492   1_554 S
C536   C1194   1.411   1_554 S
C537   H553    1.082   .     S
C537   C1193   1.411   .     S
C537   C100    1.398   1_565 S
C538   H554    1.081   .     S
C538   C1196   1.395   .     S
C539   H555    1.082   .     S
C539   C1195   1.395   1_554 S
C540   H556    1.082   .     S
C540   C541    1.398   .     A
C540   C101    1.396   1_565 S
C541   H557    1.083   .     S
C542   C543    1.419   .     A
C542   C1191   1.419   .     S
C542   C1201   1.430   .     S
C543   C547    1.408   .     A
C544   C1199   1.430   1_554 S
C544   C1202   1.426   1_554 S
C545   C546    1.398   .     A
C545   C1201   1.426   .     S
C545   C1183   1.421   .     S
C546   C547    1.381   .     A
C546   H559    1.083   .     S
C547   H563    1.079   .     S
H548   C591    1.086   .     S
I567   C82     2.140   1_565 S
O568   Zn584   1.927   .     S
O568   Zn581   1.955   .     S
O568   Zn582   1.949   .     S
O568   Zn583   1.943   .     S
O569   Zn582   1.936   .     S
O570   Zn584   1.944   .     S
O571   Zn583   1.939   .     S
O572   Zn581   1.930   .     S
O573   Zn581   1.935   .     S
O574   Zn584   1.939   .     S
O575   Zn582   1.920   .     S
O576   Zn583   1.930   .     S
O577   Zn584   1.931   .     S
O578   Zn581   1.924   .     S
O579   Zn582   1.938   .     S
O580   Zn583   1.931   .     S
C585   O650    1.270   .     A
C585   O648    1.271   .     A
C585   C591    1.435   .     S
C586   C600    1.388   .     A
C586   H633    1.077   .     S
C586   C617    1.404   .     A
C587   I639    2.143   .     S
C587   C599    1.405   .     A
C587   C600    1.400   .     A
C588   O649    1.282   .     A
C588   C590    1.452   .     S
C588   O651    1.280   .     A
C589   C601    1.401   .     A
C589   C616    1.419   .     A
C589   C598    1.479   .     S
C590   C445    1.333   1_655 S
C590   H491    1.088   1_655 S
C592   C595    1.448   .     S
C592   C155    1.343   1_565 S
C592   H193    1.088   1_565 S
C593   C594    1.426   .     S
C594   O646    1.271   .     A
C594   O652    1.277   .     A
C595   O647    1.263   .     A
C595   O653    1.278   .     A
C596   C601    1.397   .     A
C596   C1264   1.403   .     S
C596   C1266   1.492   .     S
C597   O644    1.278   .     A
C597   O642    1.273   .     A
C597   C600    1.448   .     S
C598   O643    1.282   .     A
C598   O645    1.280   .     A
C599   C1259   1.484   1_554 S
C599   C1275   1.421   1_554 S
C601   H634    1.083   .     S
C602   C608    1.405   .     A
C602   C1256   1.484   .     S
C602   C1260   1.404   .     S
C603   H638    1.083   .     S
C603   C1259   1.404   1_554 S
C603   C1042   1.398   1_554 S
C604   H622    1.081   .     S
C604   C605    1.397   .     A
C604   C822    1.398   1_565 S
C605   H623    1.082   .     S
C605   C168    1.398   1_565 S
C606   H624    1.082   .     S
C606   C608    1.398   .     A
C607   H635    1.075   .     S
C607   C1253   1.403   1_554 S
C607   C1272   1.419   1_554 S
C608   H625    1.083   .     S
C609   C614    1.409   .     A
C609   C1253   1.492   1_554 S
C609   C1267   1.411   1_554 S
C610   H626    1.082   .     S
C610   C1266   1.411   .     S
C610   C173    1.398   1_565 S
C611   H627    1.081   .     S
C611   C1269   1.395   .     S
C612   H628    1.082   .     S
C612   C1268   1.395   1_554 S
C613   H629    1.082   .     S
C613   C614    1.398   .     A
C613   C174    1.396   1_565 S
C614   H630    1.083   .     S
C615   C616    1.419   .     A
C615   C1264   1.419   .     S
C615   C1274   1.430   .     S
C616   C620    1.408   .     A
C617   C1272   1.430   1_554 S
C617   C1275   1.426   1_554 S
C618   C619    1.398   .     A
C618   C1274   1.426   .     S
C618   C1256   1.421   .     S
C619   C620    1.381   .     A
C619   H632    1.083   .     S
C620   H636    1.079   .     S
H621   C445    1.086   1_655 S
I640   C155    2.140   1_565 S
O641   Zn657   1.927   .     S
O641   Zn654   1.955   .     S
O641   Zn655   1.949   .     S
O641   Zn656   1.943   .     S
O642   Zn655   1.936   .     S
O643   Zn657   1.944   .     S
O644   Zn656   1.939   .     S
O645   Zn654   1.930   .     S
O646   Zn654   1.935   .     S
O647   Zn657   1.939   .     S
O648   Zn655   1.920   .     S
O649   Zn656   1.930   .     S
O650   Zn657   1.931   .     S
O651   Zn654   1.924   .     S
O652   Zn655   1.938   .     S
O653   Zn656   1.931   .     S
C658   O723    1.270   .     A
C658   O721    1.271   .     A
C658   C664    1.435   .     S
C659   C673    1.388   .     A
C659   H706    1.077   .     S
C659   C690    1.404   .     A
C660   I712    2.143   .     S
C660   C672    1.405   .     A
C660   C673    1.400   .     A
C661   O722    1.282   .     A
C661   C663    1.452   .     S
C661   O724    1.280   .     A
C662   C674    1.401   .     A
C662   C689    1.419   .     A
C662   C671    1.479   .     S
C663   C737    1.333   .     S
C663   H783    1.088   .     S
C664   C809    1.333   1_455 S
C664   H840    1.086   1_455 S
C665   C668    1.448   .     S
C665   C885    1.343   .     S
C665   H923    1.088   .     S
C666   C667    1.426   .     S
C666   C1103   1.343   1_545 S
C666   I1151   2.140   1_545 S
C667   O719    1.271   .     A
C667   O725    1.277   .     A
C668   O720    1.263   .     A
C668   O726    1.278   .     A
C669   C674    1.397   .     A
C669   C23     1.403   1_556 S
C669   C25     1.492   1_556 S
C670   O717    1.278   .     A
C670   O715    1.273   .     A
C670   C673    1.448   .     S
C671   O716    1.282   .     A
C671   O718    1.280   .     A
C674   H707    1.083   .     S
C675   C681    1.405   .     A
C675   C15     1.484   1_556 S
C675   C19     1.404   1_556 S
C676   H711    1.083   .     S
C676   C458    1.398   1_545 S
C677   H695    1.081   .     S
C677   C678    1.397   .     A
C677   C238    1.398   1_556 S
C678   H696    1.082   .     S
C678   C898    1.398   .     S
C679   H697    1.082   .     S
C679   C681    1.398   .     A
C679   C1116   1.398   1_545 S
C680   H708    1.075   .     S
C681   H698    1.083   .     S
C682   C687    1.409   .     A
C683   H699    1.082   .     S
C683   C25     1.411   1_556 S
C683   C903    1.398   .     S
C684   H700    1.081   .     S
C684   C1121   1.398   1_545 S
C684   C28     1.395   1_556 S
C685   H701    1.082   .     S
C685   C1124   1.396   1_545 S
C686   H702    1.082   .     S
C686   C687    1.398   .     A
C686   C904    1.396   .     S
C687   H703    1.083   .     S
C688   C689    1.419   .     A
C688   C23     1.419   1_556 S
C688   C33     1.430   1_556 S
C689   C693    1.408   .     A
C691   C692    1.398   .     A
C691   C33     1.426   1_556 S
C691   C15     1.421   1_556 S
C692   C693    1.381   .     A
C692   H705    1.083   .     S
C693   H709    1.079   .     S
H694   C737    1.086   .     S
H704   C1103   1.088   1_545 S
H710   C809    1.088   1_455 S
I713   C885    2.140   .     S
O714   Zn730   1.927   .     S
O714   Zn727   1.955   .     S
O714   Zn728   1.949   .     S
O714   Zn729   1.943   .     S
O715   Zn728   1.936   .     S
O716   Zn730   1.944   .     S
O717   Zn729   1.939   .     S
O718   Zn727   1.930   .     S
O719   Zn727   1.935   .     S
O720   Zn730   1.939   .     S
O721   Zn728   1.920   .     S
O722   Zn729   1.930   .     S
O723   Zn730   1.931   .     S
O724   Zn727   1.924   .     S
O725   Zn728   1.938   .     S
O726   Zn729   1.931   .     S
C731   O796    1.270   .     A
C731   O794    1.271   .     A
C731   C737    1.435   .     S
C732   C746    1.388   .     A
C732   H779    1.077   .     S
C732   C763    1.404   .     A
C733   I785    2.143   .     S
C733   C745    1.405   .     A
C733   C746    1.400   .     A
C734   O795    1.282   .     A
C734   C736    1.452   .     S
C734   O797    1.280   .     A
C735   C747    1.401   .     A
C735   C762    1.419   .     A
C735   C744    1.479   .     S
C736   C810    1.333   .     S
C736   H856    1.088   .     S
C738   C741    1.448   .     S
C738   C958    1.343   .     S
C738   H996    1.088   .     S
C739   C740    1.426   .     S
C739   C1176   1.343   1_545 S
C739   I1224   2.140   1_545 S
C740   O792    1.271   .     A
C740   O798    1.277   .     A
C741   O793    1.263   .     A
C741   O799    1.278   .     A
C742   C747    1.397   .     A
C742   C96     1.403   1_556 S
C742   C98     1.492   1_556 S
C743   O790    1.278   .     A
C743   O788    1.273   .     A
C743   C746    1.448   .     S
C744   O789    1.282   .     A
C744   O791    1.280   .     A
C747   H780    1.083   .     S
C748   C754    1.405   .     A
C748   C88     1.484   1_556 S
C748   C92     1.404   1_556 S
C749   H784    1.083   .     S
C749   C531    1.398   1_545 S
C750   H768    1.081   .     S
C750   C751    1.397   .     A
C750   C311    1.398   1_556 S
C751   H769    1.082   .     S
C751   C971    1.398   .     S
C752   H770    1.082   .     S
C752   C754    1.398   .     A
C752   C1189   1.398   1_545 S
C753   H781    1.075   .     S
C754   H771    1.083   .     S
C755   C760    1.409   .     A
C756   H772    1.082   .     S
C756   C98     1.411   1_556 S
C756   C976    1.398   .     S
C757   H773    1.081   .     S
C757   C1194   1.398   1_545 S
C757   C101    1.395   1_556 S
C758   H774    1.082   .     S
C758   C1197   1.396   1_545 S
C759   H775    1.082   .     S
C759   C760    1.398   .     A
C759   C977    1.396   .     S
C760   H776    1.083   .     S
C761   C762    1.419   .     A
C761   C96     1.419   1_556 S
C761   C106    1.430   1_556 S
C762   C766    1.408   .     A
C764   C765    1.398   .     A
C764   C106    1.426   1_556 S
C764   C88     1.421   1_556 S
C765   C766    1.381   .     A
C765   H778    1.083   .     S
C766   H782    1.079   .     S
H767   C810    1.086   .     S
H777   C1176   1.088   1_545 S
I786   C958    2.140   .     S
O787   Zn803   1.927   .     S
O787   Zn800   1.955   .     S
O787   Zn801   1.949   .     S
O787   Zn802   1.943   .     S
O788   Zn801   1.936   .     S
O789   Zn803   1.944   .     S
O790   Zn802   1.939   .     S
O791   Zn800   1.930   .     S
O792   Zn800   1.935   .     S
O793   Zn803   1.939   .     S
O794   Zn801   1.920   .     S
O795   Zn802   1.930   .     S
O796   Zn803   1.931   .     S
O797   Zn800   1.924   .     S
O798   Zn801   1.938   .     S
O799   Zn802   1.931   .     S
C804   O869    1.270   .     A
C804   O867    1.271   .     A
C804   C810    1.435   .     S
C805   C819    1.388   .     A
C805   H852    1.077   .     S
C805   C836    1.404   .     A
C806   I858    2.143   .     S
C806   C818    1.405   .     A
C806   C819    1.400   .     A
C807   O868    1.282   .     A
C807   C809    1.452   .     S
C807   O870    1.280   .     A
C808   C820    1.401   .     A
C808   C835    1.419   .     A
C808   C817    1.479   .     S
C809   C664    1.333   1_655 S
C809   H710    1.088   1_655 S
C811   C814    1.448   .     S
C811   C1031   1.343   .     S
C811   H1069   1.088   .     S
C812   C813    1.426   .     S
C812   C1249   1.343   1_545 S
C812   I1297   2.140   1_545 S
C813   O865    1.271   .     A
C813   O871    1.277   .     A
C814   O866    1.263   .     A
C814   O872    1.278   .     A
C815   C820    1.397   .     A
C815   C169    1.403   1_556 S
C815   C171    1.492   1_556 S
C816   O863    1.278   .     A
C816   O861    1.273   .     A
C816   C819    1.448   .     S
C817   O862    1.282   .     A
C817   O864    1.280   .     A
C820   H853    1.083   .     S
C821   C827    1.405   .     A
C821   C161    1.484   1_556 S
C821   C165    1.404   1_556 S
C822   H857    1.083   .     S
C822   C604    1.398   1_545 S
C823   H841    1.081   .     S
C823   C824    1.397   .     A
C823   C384    1.398   1_556 S
C824   H842    1.082   .     S
C824   C1044   1.398   .     S
C825   H843    1.082   .     S
C825   C827    1.398   .     A
C825   C1262   1.398   1_545 S
C826   H854    1.075   .     S
C827   H844    1.083   .     S
C828   C833    1.409   .     A
C829   H845    1.082   .     S
C829   C171    1.411   1_556 S
C829   C1049   1.398   .     S
C830   H846    1.081   .     S
C830   C1267   1.398   1_545 S
C830   C174    1.395   1_556 S
C831   H847    1.082   .     S
C831   C1270   1.396   1_545 S
C832   H848    1.082   .     S
C832   C833    1.398   .     A
C832   C1050   1.396   .     S
C833   H849    1.083   .     S
C834   C835    1.419   .     A
C834   C169    1.419   1_556 S
C834   C179    1.430   1_556 S
C835   C839    1.408   .     A
C837   C838    1.398   .     A
C837   C179    1.426   1_556 S
C837   C161    1.421   1_556 S
C838   C839    1.381   .     A
C838   H851    1.083   .     S
C839   H855    1.079   .     S
H840   C664    1.086   1_655 S
H850   C1249   1.088   1_545 S
I859   C1031   2.140   .     S
O860   Zn876   1.927   .     S
O860   Zn873   1.955   .     S
O860   Zn874   1.949   .     S
O860   Zn875   1.943   .     S
O861   Zn874   1.936   .     S
O862   Zn876   1.944   .     S
O863   Zn875   1.939   .     S
O864   Zn873   1.930   .     S
O865   Zn873   1.935   .     S
O866   Zn876   1.939   .     S
O867   Zn874   1.920   .     S
O868   Zn875   1.930   .     S
O869   Zn876   1.931   .     S
O870   Zn873   1.924   .     S
O871   Zn874   1.938   .     S
O872   Zn875   1.931   .     S
C877   O942    1.270   .     A
C877   O940    1.271   .     A
C877   C883    1.435   .     S
C878   C892    1.388   .     A
C878   H925    1.077   .     S
C878   C909    1.404   .     A
C879   I931    2.143   .     S
C879   C891    1.405   .     A
C879   C892    1.400   .     A
C880   O941    1.282   .     A
C880   C882    1.452   .     S
C880   O943    1.280   .     A
C881   C893    1.401   .     A
C881   C908    1.419   .     A
C881   C890    1.479   .     S
C882   C956    1.333   .     S
C882   H1002   1.088   .     S
C883   C1028   1.333   1_455 S
C883   H1059   1.086   1_455 S
C884   C887    1.448   .     S
C884   C1104   1.343   .     S
C884   H1142   1.088   .     S
C885   C886    1.426   .     S
C886   O938    1.271   .     A
C886   O944    1.277   .     A
C887   O939    1.263   .     A
C887   O945    1.278   .     A
C888   C893    1.397   .     A
C888   C242    1.403   1_556 S
C888   C244    1.492   1_556 S
C889   O936    1.278   .     A
C889   O934    1.273   .     A
C889   C892    1.448   .     S
C890   O935    1.282   .     A
C890   O937    1.280   .     A
C893   H926    1.083   .     S
C894   C900    1.405   .     A
C894   C234    1.484   1_556 S
C894   C238    1.404   1_556 S
C895   H930    1.083   .     S
C896   H914    1.081   .     S
C896   C897    1.397   .     A
C896   C457    1.398   1_556 S
C897   H915    1.082   .     S
C897   C1117   1.398   .     S
C898   H916    1.082   .     S
C898   C900    1.398   .     A
C899   H927    1.075   .     S
C900   H917    1.083   .     S
C901   C906    1.409   .     A
C902   H918    1.082   .     S
C902   C244    1.411   1_556 S
C902   C1122   1.398   .     S
C903   H919    1.081   .     S
C903   C247    1.395   1_556 S
C904   H920    1.082   .     S
C905   H921    1.082   .     S
C905   C906    1.398   .     A
C905   C1123   1.396   .     S
C906   H922    1.083   .     S
C907   C908    1.419   .     A
C907   C242    1.419   1_556 S
C907   C252    1.430   1_556 S
C908   C912    1.408   .     A
C910   C911    1.398   .     A
C910   C252    1.426   1_556 S
C910   C234    1.421   1_556 S
C911   C912    1.381   .     A
C911   H924    1.083   .     S
C912   H928    1.079   .     S
H913   C956    1.086   .     S
H929   C1028   1.088   1_455 S
I932   C1104   2.140   .     S
O933   Zn949   1.927   .     S
O933   Zn946   1.955   .     S
O933   Zn947   1.949   .     S
O933   Zn948   1.943   .     S
O934   Zn947   1.936   .     S
O935   Zn949   1.944   .     S
O936   Zn948   1.939   .     S
O937   Zn946   1.930   .     S
O938   Zn946   1.935   .     S
O939   Zn949   1.939   .     S
O940   Zn947   1.920   .     S
O941   Zn948   1.930   .     S
O942   Zn949   1.931   .     S
O943   Zn946   1.924   .     S
O944   Zn947   1.938   .     S
O945   Zn948   1.931   .     S
C950   O1015   1.270   .     A
C950   O1013   1.271   .     A
C950   C956    1.435   .     S
C951   C965    1.388   .     A
C951   H998    1.077   .     S
C951   C982    1.404   .     A
C952   I1004   2.143   .     S
C952   C964    1.405   .     A
C952   C965    1.400   .     A
C953   O1014   1.282   .     A
C953   C955    1.452   .     S
C953   O1016   1.280   .     A
C954   C966    1.401   .     A
C954   C981    1.419   .     A
C954   C963    1.479   .     S
C955   C1029   1.333   .     S
C955   H1075   1.088   .     S
C957   C960    1.448   .     S
C957   C1177   1.343   .     S
C957   H1215   1.088   .     S
C958   C959    1.426   .     S
C959   O1011   1.271   .     A
C959   O1017   1.277   .     A
C960   O1012   1.263   .     A
C960   O1018   1.278   .     A
C961   C966    1.397   .     A
C961   C315    1.403   1_556 S
C961   C317    1.492   1_556 S
C962   O1009   1.278   .     A
C962   O1007   1.273   .     A
C962   C965    1.448   .     S
C963   O1008   1.282   .     A
C963   O1010   1.280   .     A
C966   H999    1.083   .     S
C967   C973    1.405   .     A
C967   C307    1.484   1_556 S
C967   C311    1.404   1_556 S
C968   H1003   1.083   .     S
C969   H987    1.081   .     S
C969   C970    1.397   .     A
C969   C530    1.398   1_556 S
C970   H988    1.082   .     S
C970   C1190   1.398   .     S
C971   H989    1.082   .     S
C971   C973    1.398   .     A
C972   H1000   1.075   .     S
C973   H990    1.083   .     S
C974   C979    1.409   .     A
C975   H991    1.082   .     S
C975   C317    1.411   1_556 S
C975   C1195   1.398   .     S
C976   H992    1.081   .     S
C976   C320    1.395   1_556 S
C977   H993    1.082   .     S
C978   H994    1.082   .     S
C978   C979    1.398   .     A
C978   C1196   1.396   .     S
C979   H995    1.083   .     S
C980   C981    1.419   .     A
C980   C315    1.419   1_556 S
C980   C325    1.430   1_556 S
C981   C985    1.408   .     A
C983   C984    1.398   .     A
C983   C325    1.426   1_556 S
C983   C307    1.421   1_556 S
C984   C985    1.381   .     A
C984   H997    1.083   .     S
C985   H1001   1.079   .     S
H986   C1029   1.086   .     S
I1005  C1177   2.140   .     S
O1006  Zn1022  1.927   .     S
O1006  Zn1019  1.955   .     S
O1006  Zn1020  1.949   .     S
O1006  Zn1021  1.943   .     S
O1007  Zn1020  1.936   .     S
O1008  Zn1022  1.944   .     S
O1009  Zn1021  1.939   .     S
O1010  Zn1019  1.930   .     S
O1011  Zn1019  1.935   .     S
O1012  Zn1022  1.939   .     S
O1013  Zn1020  1.920   .     S
O1014  Zn1021  1.930   .     S
O1015  Zn1022  1.931   .     S
O1016  Zn1019  1.924   .     S
O1017  Zn1020  1.938   .     S
O1018  Zn1021  1.931   .     S
C1023  O1088   1.270   .     A
C1023  O1086   1.271   .     A
C1023  C1029   1.435   .     S
C1024  C1038   1.388   .     A
C1024  H1071   1.077   .     S
C1024  C1055   1.404   .     A
C1025  I1077   2.143   .     S
C1025  C1037   1.405   .     A
C1025  C1038   1.400   .     A
C1026  O1087   1.282   .     A
C1026  C1028   1.452   .     S
C1026  O1089   1.280   .     A
C1027  C1039   1.401   .     A
C1027  C1054   1.419   .     A
C1027  C1036   1.479   .     S
C1028  C883    1.333   1_655 S
C1028  H929    1.088   1_655 S
C1030  C1033   1.448   .     S
C1030  C1250   1.343   .     S
C1030  H1288   1.088   .     S
C1031  C1032   1.426   .     S
C1032  O1084   1.271   .     A
C1032  O1090   1.277   .     A
C1033  O1085   1.263   .     A
C1033  O1091   1.278   .     A
C1034  C1039   1.397   .     A
C1034  C388    1.403   1_556 S
C1034  C390    1.492   1_556 S
C1035  O1082   1.278   .     A
C1035  O1080   1.273   .     A
C1035  C1038   1.448   .     S
C1036  O1081   1.282   .     A
C1036  O1083   1.280   .     A
C1039  H1072   1.083   .     S
C1040  C1046   1.405   .     A
C1040  C380    1.484   1_556 S
C1040  C384    1.404   1_556 S
C1041  H1076   1.083   .     S
C1042  H1060   1.081   .     S
C1042  C1043   1.397   .     A
C1042  C603    1.398   1_556 S
C1043  H1061   1.082   .     S
C1043  C1263   1.398   .     S
C1044  H1062   1.082   .     S
C1044  C1046   1.398   .     A
C1045  H1073   1.075   .     S
C1046  H1063   1.083   .     S
C1047  C1052   1.409   .     A
C1048  H1064   1.082   .     S
C1048  C390    1.411   1_556 S
C1048  C1268   1.398   .     S
C1049  H1065   1.081   .     S
C1049  C393    1.395   1_556 S
C1050  H1066   1.082   .     S
C1051  H1067   1.082   .     S
C1051  C1052   1.398   .     A
C1051  C1269   1.396   .     S
C1052  H1068   1.083   .     S
C1053  C1054   1.419   .     A
C1053  C388    1.419   1_556 S
C1053  C398    1.430   1_556 S
C1054  C1058   1.408   .     A
C1056  C1057   1.398   .     A
C1056  C398    1.426   1_556 S
C1056  C380    1.421   1_556 S
C1057  C1058   1.381   .     A
C1057  H1070   1.083   .     S
C1058  H1074   1.079   .     S
H1059  C883    1.086   1_655 S
I1078  C1250   2.140   .     S
O1079  Zn1095  1.927   .     S
O1079  Zn1092  1.955   .     S
O1079  Zn1093  1.949   .     S
O1079  Zn1094  1.943   .     S
O1080  Zn1093  1.936   .     S
O1081  Zn1095  1.944   .     S
O1082  Zn1094  1.939   .     S
O1083  Zn1092  1.930   .     S
O1084  Zn1092  1.935   .     S
O1085  Zn1095  1.939   .     S
O1086  Zn1093  1.920   .     S
O1087  Zn1094  1.930   .     S
O1088  Zn1095  1.931   .     S
O1089  Zn1092  1.924   .     S
O1090  Zn1093  1.938   .     S
O1091  Zn1094  1.931   .     S
C1096  O1161   1.270   .     A
C1096  O1159   1.271   .     A
C1096  C1102   1.435   .     S
C1097  C1111   1.388   .     A
C1097  H1144   1.077   .     S
C1097  C1128   1.404   .     A
C1098  I1150   2.143   .     S
C1098  C1110   1.405   .     A
C1098  C1111   1.400   .     A
C1099  O1160   1.282   .     A
C1099  C1101   1.452   .     S
C1099  O1162   1.280   .     A
C1100  C1112   1.401   .     A
C1100  C1127   1.419   .     A
C1100  C1109   1.479   .     S
C1101  C1175   1.333   .     S
C1101  H1221   1.088   .     S
C1102  C1247   1.333   1_455 S
C1102  H1278   1.086   1_455 S
C1103  C1106   1.448   .     S
C1103  C666    1.343   1_565 S
C1103  H704    1.088   1_565 S
C1104  C1105   1.426   .     S
C1105  O1157   1.271   .     A
C1105  O1163   1.277   .     A
C1106  O1158   1.263   .     A
C1106  O1164   1.278   .     A
C1107  C1112   1.397   .     A
C1107  C461    1.403   1_556 S
C1107  C463    1.492   1_556 S
C1108  O1155   1.278   .     A
C1108  O1153   1.273   .     A
C1108  C1111   1.448   .     S
C1109  O1154   1.282   .     A
C1109  O1156   1.280   .     A
C1112  H1145   1.083   .     S
C1113  C1119   1.405   .     A
C1113  C453    1.484   1_556 S
C1113  C457    1.404   1_556 S
C1114  H1149   1.083   .     S
C1115  H1133   1.081   .     S
C1115  C1116   1.397   .     A
C1115  C19     1.398   1_566 S
C1116  H1134   1.082   .     S
C1116  C679    1.398   1_565 S
C1117  H1135   1.082   .     S
C1117  C1119   1.398   .     A
C1118  H1146   1.075   .     S
C1119  H1136   1.083   .     S
C1120  C1125   1.409   .     A
C1121  H1137   1.082   .     S
C1121  C463    1.411   1_556 S
C1121  C684    1.398   1_565 S
C1122  H1138   1.081   .     S
C1122  C466    1.395   1_556 S
C1123  H1139   1.082   .     S
C1124  H1140   1.082   .     S
C1124  C1125   1.398   .     A
C1124  C685    1.396   1_565 S
C1125  H1141   1.083   .     S
C1126  C1127   1.419   .     A
C1126  C461    1.419   1_556 S
C1126  C471    1.430   1_556 S
C1127  C1131   1.408   .     A
C1129  C1130   1.398   .     A
C1129  C471    1.426   1_556 S
C1129  C453    1.421   1_556 S
C1130  C1131   1.381   .     A
C1130  H1143   1.083   .     S
C1131  H1147   1.079   .     S
H1132  C1175   1.086   .     S
H1148  C1247   1.088   1_455 S
I1151  C666    2.140   1_565 S
O1152  Zn1168  1.927   .     S
O1152  Zn1165  1.955   .     S
O1152  Zn1166  1.949   .     S
O1152  Zn1167  1.943   .     S
O1153  Zn1166  1.936   .     S
O1154  Zn1168  1.944   .     S
O1155  Zn1167  1.939   .     S
O1156  Zn1165  1.930   .     S
O1157  Zn1165  1.935   .     S
O1158  Zn1168  1.939   .     S
O1159  Zn1166  1.920   .     S
O1160  Zn1167  1.930   .     S
O1161  Zn1168  1.931   .     S
O1162  Zn1165  1.924   .     S
O1163  Zn1166  1.938   .     S
O1164  Zn1167  1.931   .     S
C1169  O1234   1.270   .     A
C1169  O1232   1.271   .     A
C1169  C1175   1.435   .     S
C1170  C1184   1.388   .     A
C1170  H1217   1.077   .     S
C1170  C1201   1.404   .     A
C1171  I1223   2.143   .     S
C1171  C1183   1.405   .     A
C1171  C1184   1.400   .     A
C1172  O1233   1.282   .     A
C1172  C1174   1.452   .     S
C1172  O1235   1.280   .     A
C1173  C1185   1.401   .     A
C1173  C1200   1.419   .     A
C1173  C1182   1.479   .     S
C1174  C1248   1.333   .     S
C1174  H1294   1.088   .     S
C1176  C1179   1.448   .     S
C1176  C739    1.343   1_565 S
C1176  H777    1.088   1_565 S
C1177  C1178   1.426   .     S
C1178  O1230   1.271   .     A
C1178  O1236   1.277   .     A
C1179  O1231   1.263   .     A
C1179  O1237   1.278   .     A
C1180  C1185   1.397   .     A
C1180  C534    1.403   1_556 S
C1180  C536    1.492   1_556 S
C1181  O1228   1.278   .     A
C1181  O1226   1.273   .     A
C1181  C1184   1.448   .     S
C1182  O1227   1.282   .     A
C1182  O1229   1.280   .     A
C1185  H1218   1.083   .     S
C1186  C1192   1.405   .     A
C1186  C526    1.484   1_556 S
C1186  C530    1.404   1_556 S
C1187  H1222   1.083   .     S
C1188  H1206   1.081   .     S
C1188  C1189   1.397   .     A
C1188  C92     1.398   1_566 S
C1189  H1207   1.082   .     S
C1189  C752    1.398   1_565 S
C1190  H1208   1.082   .     S
C1190  C1192   1.398   .     A
C1191  H1219   1.075   .     S
C1192  H1209   1.083   .     S
C1193  C1198   1.409   .     A
C1194  H1210   1.082   .     S
C1194  C536    1.411   1_556 S
C1194  C757    1.398   1_565 S
C1195  H1211   1.081   .     S
C1195  C539    1.395   1_556 S
C1196  H1212   1.082   .     S
C1197  H1213   1.082   .     S
C1197  C1198   1.398   .     A
C1197  C758    1.396   1_565 S
C1198  H1214   1.083   .     S
C1199  C1200   1.419   .     A
C1199  C534    1.419   1_556 S
C1199  C544    1.430   1_556 S
C1200  C1204   1.408   .     A
C1202  C1203   1.398   .     A
C1202  C544    1.426   1_556 S
C1202  C526    1.421   1_556 S
C1203  C1204   1.381   .     A
C1203  H1216   1.083   .     S
C1204  H1220   1.079   .     S
H1205  C1248   1.086   .     S
I1224  C739    2.140   1_565 S
O1225  Zn1241  1.927   .     S
O1225  Zn1238  1.955   .     S
O1225  Zn1239  1.949   .     S
O1225  Zn1240  1.943   .     S
O1226  Zn1239  1.936   .     S
O1227  Zn1241  1.944   .     S
O1228  Zn1240  1.939   .     S
O1229  Zn1238  1.930   .     S
O1230  Zn1238  1.935   .     S
O1231  Zn1241  1.939   .     S
O1232  Zn1239  1.920   .     S
O1233  Zn1240  1.930   .     S
O1234  Zn1241  1.931   .     S
O1235  Zn1238  1.924   .     S
O1236  Zn1239  1.938   .     S
O1237  Zn1240  1.931   .     S
C1242  O1307   1.270   .     A
C1242  O1305   1.271   .     A
C1242  C1248   1.435   .     S
C1243  C1257   1.388   .     A
C1243  H1290   1.077   .     S
C1243  C1274   1.404   .     A
C1244  I1296   2.143   .     S
C1244  C1256   1.405   .     A
C1244  C1257   1.400   .     A
C1245  O1306   1.282   .     A
C1245  C1247   1.452   .     S
C1245  O1308   1.280   .     A
C1246  C1258   1.401   .     A
C1246  C1273   1.419   .     A
C1246  C1255   1.479   .     S
C1247  C1102   1.333   1_655 S
C1247  H1148   1.088   1_655 S
C1249  C1252   1.448   .     S
C1249  C812    1.343   1_565 S
C1249  H850    1.088   1_565 S
C1250  C1251   1.426   .     S
C1251  O1303   1.271   .     A
C1251  O1309   1.277   .     A
C1252  O1304   1.263   .     A
C1252  O1310   1.278   .     A
C1253  C1258   1.397   .     A
C1253  C607    1.403   1_556 S
C1253  C609    1.492   1_556 S
C1254  O1301   1.278   .     A
C1254  O1299   1.273   .     A
C1254  C1257   1.448   .     S
C1255  O1300   1.282   .     A
C1255  O1302   1.280   .     A
C1258  H1291   1.083   .     S
C1259  C1265   1.405   .     A
C1259  C599    1.484   1_556 S
C1259  C603    1.404   1_556 S
C1260  H1295   1.083   .     S
C1261  H1279   1.081   .     S
C1261  C1262   1.397   .     A
C1261  C165    1.398   1_566 S
C1262  H1280   1.082   .     S
C1262  C825    1.398   1_565 S
C1263  H1281   1.082   .     S
C1263  C1265   1.398   .     A
C1264  H1292   1.075   .     S
C1265  H1282   1.083   .     S
C1266  C1271   1.409   .     A
C1267  H1283   1.082   .     S
C1267  C609    1.411   1_556 S
C1267  C830    1.398   1_565 S
C1268  H1284   1.081   .     S
C1268  C612    1.395   1_556 S
C1269  H1285   1.082   .     S
C1270  H1286   1.082   .     S
C1270  C1271   1.398   .     A
C1270  C831    1.396   1_565 S
C1271  H1287   1.083   .     S
C1272  C1273   1.419   .     A
C1272  C607    1.419   1_556 S
C1272  C617    1.430   1_556 S
C1273  C1277   1.408   .     A
C1275  C1276   1.398   .     A
C1275  C617    1.426   1_556 S
C1275  C599    1.421   1_556 S
C1276  C1277   1.381   .     A
C1276  H1289   1.083   .     S
C1277  H1293   1.079   .     S
H1278  C1102   1.086   1_655 S
I1297  C812    2.140   1_565 S
O1298  Zn1314  1.927   .     S
O1298  Zn1311  1.955   .     S
O1298  Zn1312  1.949   .     S
O1298  Zn1313  1.943   .     S
O1299  Zn1312  1.936   .     S
O1300  Zn1314  1.944   .     S
O1301  Zn1313  1.939   .     S
O1302  Zn1311  1.930   .     S
O1303  Zn1311  1.935   .     S
O1304  Zn1314  1.939   .     S
O1305  Zn1312  1.920   .     S
O1306  Zn1313  1.930   .     S
O1307  Zn1314  1.931   .     S
O1308  Zn1311  1.924   .     S
O1309  Zn1312  1.938   .     S
O1310  Zn1313  1.931   .     S
