data_str_m3_o2_o10_pcu_sym.179
_audit_creation_date              2020-01-03
_audit_creation_method            'Materials Studio'
_symmetry_space_group_name_H-M    'P1'
_symmetry_Int_Tables_number       1
_symmetry_cell_setting            triclinic
loop_
_symmetry_equiv_pos_as_xyz
  x,y,z
_cell_length_a                    25.9515
_cell_length_b                    29.5613
_cell_length_c                    28.5567
_cell_angle_alpha                 89.1327
_cell_angle_beta                  98.1439
_cell_angle_gamma                 91.8781
loop_
_atom_site_label
_atom_site_type_symbol
_atom_site_fract_x
_atom_site_fract_y
_atom_site_fract_z
_atom_site_U_iso_or_equiv
_atom_site_adp_type
_atom_site_occupancy
C1     C     0.17190   0.16388   0.25084   0.00000  Uiso   1.00
C2     C     0.16104   0.33616   0.24899   0.00000  Uiso   1.00
C3     C     0.12454   0.23244   0.04702   0.00000  Uiso   1.00
C4     C     0.17773   0.28965   0.44843   0.00000  Uiso   1.00
C5     C     0.12629   0.22984   0.09693   0.00000  Uiso   1.00
C6     C     0.18297   0.28779   0.39984   0.00000  Uiso   1.00
C7     C     0.20759   0.26990   0.10699   0.00000  Uiso   1.00
C8     C     0.14896   0.21267   0.39669   0.00000  Uiso   1.00
C9     C     0.20991   0.26838   0.05795   0.00000  Uiso   1.00
C10    C     0.15512   0.21007   0.44664   0.00000  Uiso   1.00
C11    C     0.16785   0.24984   0.02681   0.00000  Uiso   1.00
C12    C     0.16799   0.24954   0.47360   0.00000  Uiso   1.00
C13    C     0.06725   0.24933   0.23801   0.00000  Uiso   1.00
C14    C     0.26607   0.25001   0.26212   0.00000  Uiso   1.00
C15    C     0.01304   0.24153   0.23338   0.00000  Uiso   1.00
C16    C     0.32044   0.25653   0.26746   0.00000  Uiso   1.00
C17    C     0.18922   0.04501   0.29648   0.00000  Uiso   1.00
C18    C     0.13950   0.45568   0.20451   0.00000  Uiso   1.00
C19    C     0.19202   0.09224   0.29642   0.00000  Uiso   1.00
C20    C     0.14362   0.40865   0.20337   0.00000  Uiso   1.00
C21    C     0.18413   0.11576   0.25265   0.00000  Uiso   1.00
C22    C     0.14795   0.38432   0.24674   0.00000  Uiso   1.00
C23    C     0.19370   0.09253   0.21192   0.00000  Uiso   1.00
C24    C     0.13343   0.40644   0.28643   0.00000  Uiso   1.00
C25    C     0.19362   0.04538   0.21344   0.00000  Uiso   1.00
C26    C     0.13332   0.45373   0.28645   0.00000  Uiso   1.00
C27    C     0.17721   0.02276   0.25282   0.00000  Uiso   1.00
C28    C     0.15074   0.47720   0.24830   0.00000  Uiso   1.00
N29    N     0.16667   0.24999   0.12624   0.00000  Uiso   1.00
N30    N     0.16667   0.25001   0.37376   0.00000  Uiso   1.00
O31    O     0.16667   0.18454   0.28974   0.00000  Uiso   1.00
O32    O     0.16666   0.31547   0.21026   0.00000  Uiso   1.00
O33    O     0.16667   0.18453   0.21026   0.00000  Uiso   1.00
O34    O     0.16666   0.31547   0.28974   0.00000  Uiso   1.00
O35    O     0.09058   0.25000   0.28044   0.00000  Uiso   1.00
O36    O     0.24275   0.25000   0.21955   0.00000  Uiso   1.00
O37    O     0.09058   0.25000   0.20097   0.00000  Uiso   1.00
O38    O     0.24275   0.25001   0.29903   0.00000  Uiso   1.00
Zn39   Zn    0.16667   0.25001   0.30307   0.00000  Uiso   1.00
Zn40   Zn    0.16667   0.25000   0.19693   0.00000  Uiso   1.00
Cl41   Cl    0.32014   0.20279   0.18867   0.00000  Uiso   1.00
Cl42   Cl    0.01391   0.29264   0.31452   0.00000  Uiso   1.00
Cl43   Cl    0.21293   0.01563   0.34921   0.00000  Uiso   1.00
Cl44   Cl    0.10649   0.48469   0.15498   0.00000  Uiso   1.00
O45    O     0.20371   0.11475   0.33888   0.00000  Uiso   1.00
C46    C     0.25737   0.12692   0.34541   0.00000  Uiso   1.00
H47    H     0.26686   0.15153   0.31773   0.00000  Uiso   1.00
H48    H     0.28160   0.09658   0.34455   0.00000  Uiso   1.00
C49    C     0.27194   0.14890   0.39339   0.00000  Uiso   1.00
H50    H     0.25955   0.12657   0.42164   0.00000  Uiso   1.00
H51    H     0.31481   0.15448   0.40040   0.00000  Uiso   1.00
H52    H     0.25295   0.18197   0.39382   0.00000  Uiso   1.00
O53    O     0.13373   0.38616   0.16074   0.00000  Uiso   1.00
C54    C     0.17466   0.39565   0.13400   0.00000  Uiso   1.00
H55    H     0.21077   0.37987   0.15117   0.00000  Uiso   1.00
H56    H     0.18315   0.43245   0.13002   0.00000  Uiso   1.00
C57    C     0.15942   0.37685   0.08462   0.00000  Uiso   1.00
H58    H     0.12878   0.39784   0.06474   0.00000  Uiso   1.00
H59    H     0.19392   0.37738   0.06562   0.00000  Uiso   1.00
H60    H     0.14378   0.34161   0.08645   0.00000  Uiso   1.00
Cl61   Cl    0.21085   0.12062   0.16081   0.00000  Uiso   1.00
Cl62   Cl    0.10744   0.37659   0.33208   0.00000  Uiso   1.00
Cl63   Cl    0.22527   0.01631   0.17236   0.00000  Uiso   1.00
Cl64   Cl    0.09813   0.48187   0.32557   0.00000  Uiso   1.00
O65    O     0.08098   0.21579   0.01835   0.00000  Uiso   1.00
C66    C     0.04926   0.25222   0.00235   0.00000  Uiso   1.00
H67    H     0.07093   0.27914   0.48492   0.00000  Uiso   1.00
H68    H     0.03328   0.26704   0.03255   0.00000  Uiso   1.00
C69    C     0.00492   0.23497   0.46591   0.00000  Uiso   1.00
H70    H     0.31578   0.20731   0.48135   0.00000  Uiso   1.00
H71    H     0.31180   0.26286   0.45424   0.00000  Uiso   1.00
H72    H     0.02092   0.22230   0.43470   0.00000  Uiso   1.00
O73    O     0.18404   0.33079   0.47128   0.00000  Uiso   1.00
C74    C     0.13780   0.35536   0.46106   0.00000  Uiso   1.00
H75    H     0.11526   0.35145   0.49117   0.00000  Uiso   1.00
H76    H     0.11164   0.34429   0.42854   0.00000  Uiso   1.00
C77    C     0.15191   0.40528   0.45503   0.00000  Uiso   1.00
H78    H     0.17362   0.41010   0.42442   0.00000  Uiso   1.00
H79    H     0.11590   0.42506   0.44861   0.00000  Uiso   1.00
H80    H     0.17657   0.41809   0.48735   0.00000  Uiso   1.00
O81    O     0.08502   0.20965   0.11598   0.00000  Uiso   1.00
C82    C     0.08617   0.16187   0.11247   0.00000  Uiso   1.00
H83    H     0.09350   0.14733   0.14878   0.00000  Uiso   1.00
H84    H     0.11692   0.14930   0.09263   0.00000  Uiso   1.00
C85    C     0.03354   0.14310   0.08901   0.00000  Uiso   1.00
H86    H     0.02576   0.15443   0.05157   0.00000  Uiso   1.00
H87    H     0.03345   0.10553   0.08997   0.00000  Uiso   1.00
H88    H     0.00182   0.15451   0.10779   0.00000  Uiso   1.00
O89    O     0.19952   0.32646   0.37811   0.00000  Uiso   1.00
C90    C     0.25366   0.32541   0.37670   0.00000  Uiso   1.00
H91    H     0.26071   0.33829   0.34139   0.00000  Uiso   1.00
H92    H     0.27005   0.29092   0.38099   0.00000  Uiso   1.00
C93    C     0.28315   0.35694   0.41362   0.00000  Uiso   1.00
H94    H     0.27905   0.34449   0.44973   0.00000  Uiso   1.00
H95    H     0.32517   0.35825   0.40976   0.00000  Uiso   1.00
H96    H     0.26788   0.39160   0.40877   0.00000  Uiso   1.00
Cl97   Cl    0.25723   0.30086   0.14224   0.00000  Uiso   1.00
Cl98   Cl    0.11185   0.16950   0.36484   0.00000  Uiso   1.00
Cl99   Cl    0.26656   0.28954   0.03669   0.00000  Uiso   1.00
Cl100  Cl    0.14845   0.15670   0.47436   0.00000  Uiso   1.00
C101   C     0.50523   0.16388   0.25084   0.00000  Uiso   1.00
C102   C     0.49438   0.33616   0.24899   0.00000  Uiso   1.00
C103   C     0.45787   0.23244   0.04702   0.00000  Uiso   1.00
C104   C     0.51106   0.28965   0.44843   0.00000  Uiso   1.00
C105   C     0.45963   0.22984   0.09693   0.00000  Uiso   1.00
C106   C     0.51631   0.28779   0.39984   0.00000  Uiso   1.00
C107   C     0.54092   0.26990   0.10699   0.00000  Uiso   1.00
C108   C     0.48230   0.21267   0.39669   0.00000  Uiso   1.00
C109   C     0.54325   0.26838   0.05795   0.00000  Uiso   1.00
C110   C     0.48845   0.21007   0.44664   0.00000  Uiso   1.00
C111   C     0.50118   0.24984   0.02681   0.00000  Uiso   1.00
C112   C     0.50132   0.24954   0.47360   0.00000  Uiso   1.00
C113   C     0.40059   0.24933   0.23801   0.00000  Uiso   1.00
C114   C     0.59940   0.25001   0.26212   0.00000  Uiso   1.00
C115   C     0.34637   0.24153   0.23338   0.00000  Uiso   1.00
C116   C     0.65377   0.25653   0.26746   0.00000  Uiso   1.00
C117   C     0.52255   0.04501   0.29648   0.00000  Uiso   1.00
C118   C     0.47283   0.45568   0.20451   0.00000  Uiso   1.00
C119   C     0.52535   0.09224   0.29642   0.00000  Uiso   1.00
C120   C     0.47696   0.40865   0.20337   0.00000  Uiso   1.00
C121   C     0.51746   0.11576   0.25265   0.00000  Uiso   1.00
C122   C     0.48128   0.38432   0.24674   0.00000  Uiso   1.00
C123   C     0.52704   0.09253   0.21192   0.00000  Uiso   1.00
C124   C     0.46676   0.40644   0.28643   0.00000  Uiso   1.00
C125   C     0.52696   0.04538   0.21344   0.00000  Uiso   1.00
C126   C     0.46665   0.45373   0.28645   0.00000  Uiso   1.00
C127   C     0.51054   0.02276   0.25282   0.00000  Uiso   1.00
C128   C     0.48408   0.47720   0.24830   0.00000  Uiso   1.00
N129   N     0.50000   0.24999   0.12624   0.00000  Uiso   1.00
N130   N     0.50000   0.25001   0.37376   0.00000  Uiso   1.00
O131   O     0.50000   0.18454   0.28974   0.00000  Uiso   1.00
O132   O     0.50000   0.31547   0.21026   0.00000  Uiso   1.00
O133   O     0.50000   0.18453   0.21026   0.00000  Uiso   1.00
O134   O     0.50000   0.31547   0.28974   0.00000  Uiso   1.00
O135   O     0.42392   0.25000   0.28044   0.00000  Uiso   1.00
O136   O     0.57608   0.25000   0.21955   0.00000  Uiso   1.00
O137   O     0.42392   0.25000   0.20097   0.00000  Uiso   1.00
O138   O     0.57608   0.25001   0.29903   0.00000  Uiso   1.00
Zn139  Zn    0.50000   0.25001   0.30307   0.00000  Uiso   1.00
Zn140  Zn    0.50000   0.25000   0.19693   0.00000  Uiso   1.00
Cl141  Cl    0.65348   0.20279   0.18867   0.00000  Uiso   1.00
Cl142  Cl    0.34724   0.29264   0.31452   0.00000  Uiso   1.00
Cl143  Cl    0.54626   0.01563   0.34921   0.00000  Uiso   1.00
Cl144  Cl    0.43982   0.48469   0.15498   0.00000  Uiso   1.00
O145   O     0.53705   0.11475   0.33888   0.00000  Uiso   1.00
C146   C     0.59070   0.12692   0.34541   0.00000  Uiso   1.00
H147   H     0.60019   0.15153   0.31773   0.00000  Uiso   1.00
H148   H     0.61493   0.09658   0.34455   0.00000  Uiso   1.00
C149   C     0.60527   0.14890   0.39339   0.00000  Uiso   1.00
H150   H     0.59288   0.12657   0.42164   0.00000  Uiso   1.00
H151   H     0.64815   0.15448   0.40040   0.00000  Uiso   1.00
H152   H     0.58628   0.18197   0.39382   0.00000  Uiso   1.00
O153   O     0.46706   0.38616   0.16074   0.00000  Uiso   1.00
C154   C     0.50799   0.39565   0.13400   0.00000  Uiso   1.00
H155   H     0.54411   0.37987   0.15117   0.00000  Uiso   1.00
H156   H     0.51648   0.43245   0.13002   0.00000  Uiso   1.00
C157   C     0.49276   0.37685   0.08462   0.00000  Uiso   1.00
H158   H     0.46212   0.39784   0.06474   0.00000  Uiso   1.00
H159   H     0.52725   0.37738   0.06562   0.00000  Uiso   1.00
H160   H     0.47711   0.34161   0.08645   0.00000  Uiso   1.00
Cl161  Cl    0.54418   0.12062   0.16081   0.00000  Uiso   1.00
Cl162  Cl    0.44077   0.37659   0.33208   0.00000  Uiso   1.00
Cl163  Cl    0.55860   0.01631   0.17236   0.00000  Uiso   1.00
Cl164  Cl    0.43146   0.48187   0.32557   0.00000  Uiso   1.00
O165   O     0.41431   0.21579   0.01835   0.00000  Uiso   1.00
C166   C     0.38259   0.25222   0.00235   0.00000  Uiso   1.00
H167   H     0.40426   0.27914   0.48492   0.00000  Uiso   1.00
H168   H     0.36662   0.26704   0.03255   0.00000  Uiso   1.00
C169   C     0.33825   0.23497   0.46591   0.00000  Uiso   1.00
H170   H     0.64912   0.20731   0.48135   0.00000  Uiso   1.00
H171   H     0.64513   0.26286   0.45424   0.00000  Uiso   1.00
H172   H     0.35425   0.22230   0.43470   0.00000  Uiso   1.00
O173   O     0.51737   0.33079   0.47128   0.00000  Uiso   1.00
C174   C     0.47114   0.35536   0.46106   0.00000  Uiso   1.00
H175   H     0.44859   0.35145   0.49117   0.00000  Uiso   1.00
H176   H     0.44497   0.34429   0.42854   0.00000  Uiso   1.00
C177   C     0.48524   0.40528   0.45503   0.00000  Uiso   1.00
H178   H     0.50696   0.41010   0.42442   0.00000  Uiso   1.00
H179   H     0.44923   0.42506   0.44861   0.00000  Uiso   1.00
H180   H     0.50990   0.41809   0.48735   0.00000  Uiso   1.00
O181   O     0.41836   0.20965   0.11598   0.00000  Uiso   1.00
C182   C     0.41950   0.16187   0.11247   0.00000  Uiso   1.00
H183   H     0.42684   0.14733   0.14878   0.00000  Uiso   1.00
H184   H     0.45025   0.14930   0.09263   0.00000  Uiso   1.00
C185   C     0.36687   0.14310   0.08901   0.00000  Uiso   1.00
H186   H     0.35910   0.15443   0.05157   0.00000  Uiso   1.00
H187   H     0.36679   0.10553   0.08997   0.00000  Uiso   1.00
H188   H     0.33516   0.15451   0.10779   0.00000  Uiso   1.00
O189   O     0.53285   0.32646   0.37811   0.00000  Uiso   1.00
C190   C     0.58699   0.32541   0.37670   0.00000  Uiso   1.00
H191   H     0.59405   0.33829   0.34139   0.00000  Uiso   1.00
H192   H     0.60338   0.29092   0.38099   0.00000  Uiso   1.00
C193   C     0.61648   0.35694   0.41362   0.00000  Uiso   1.00
H194   H     0.61238   0.34449   0.44973   0.00000  Uiso   1.00
H195   H     0.65850   0.35825   0.40976   0.00000  Uiso   1.00
H196   H     0.60121   0.39160   0.40877   0.00000  Uiso   1.00
Cl197  Cl    0.59056   0.30086   0.14224   0.00000  Uiso   1.00
Cl198  Cl    0.44518   0.16950   0.36484   0.00000  Uiso   1.00
Cl199  Cl    0.59990   0.28954   0.03669   0.00000  Uiso   1.00
Cl200  Cl    0.48178   0.15670   0.47436   0.00000  Uiso   1.00
C201   C     0.83857   0.16388   0.25084   0.00000  Uiso   1.00
C202   C     0.82771   0.33616   0.24899   0.00000  Uiso   1.00
C203   C     0.79121   0.23244   0.04702   0.00000  Uiso   1.00
C204   C     0.84439   0.28965   0.44843   0.00000  Uiso   1.00
C205   C     0.79296   0.22984   0.09693   0.00000  Uiso   1.00
C206   C     0.84964   0.28779   0.39984   0.00000  Uiso   1.00
C207   C     0.87426   0.26990   0.10699   0.00000  Uiso   1.00
C208   C     0.81563   0.21267   0.39669   0.00000  Uiso   1.00
C209   C     0.87658   0.26838   0.05795   0.00000  Uiso   1.00
C210   C     0.82179   0.21007   0.44664   0.00000  Uiso   1.00
C211   C     0.83451   0.24984   0.02681   0.00000  Uiso   1.00
C212   C     0.83466   0.24954   0.47360   0.00000  Uiso   1.00
C213   C     0.73392   0.24933   0.23801   0.00000  Uiso   1.00
C214   C     0.93273   0.25001   0.26212   0.00000  Uiso   1.00
C215   C     0.67971   0.24153   0.23338   0.00000  Uiso   1.00
C216   C     0.98710   0.25653   0.26746   0.00000  Uiso   1.00
C217   C     0.85589   0.04501   0.29648   0.00000  Uiso   1.00
C218   C     0.80617   0.45568   0.20451   0.00000  Uiso   1.00
C219   C     0.85869   0.09224   0.29642   0.00000  Uiso   1.00
C220   C     0.81029   0.40865   0.20337   0.00000  Uiso   1.00
C221   C     0.85079   0.11576   0.25265   0.00000  Uiso   1.00
C222   C     0.81462   0.38432   0.24674   0.00000  Uiso   1.00
C223   C     0.86037   0.09253   0.21192   0.00000  Uiso   1.00
C224   C     0.80010   0.40644   0.28643   0.00000  Uiso   1.00
C225   C     0.86029   0.04538   0.21344   0.00000  Uiso   1.00
C226   C     0.79998   0.45373   0.28645   0.00000  Uiso   1.00
C227   C     0.84387   0.02276   0.25282   0.00000  Uiso   1.00
C228   C     0.81741   0.47720   0.24830   0.00000  Uiso   1.00
N229   N     0.83333   0.24999   0.12624   0.00000  Uiso   1.00
N230   N     0.83333   0.25001   0.37376   0.00000  Uiso   1.00
O231   O     0.83334   0.18454   0.28974   0.00000  Uiso   1.00
O232   O     0.83333   0.31547   0.21026   0.00000  Uiso   1.00
O233   O     0.83334   0.18453   0.21026   0.00000  Uiso   1.00
O234   O     0.83333   0.31547   0.28974   0.00000  Uiso   1.00
O235   O     0.75725   0.25000   0.28044   0.00000  Uiso   1.00
O236   O     0.90942   0.25000   0.21955   0.00000  Uiso   1.00
O237   O     0.75725   0.25000   0.20097   0.00000  Uiso   1.00
O238   O     0.90942   0.25001   0.29903   0.00000  Uiso   1.00
Zn239  Zn    0.83333   0.25001   0.30307   0.00000  Uiso   1.00
Zn240  Zn    0.83333   0.25000   0.19693   0.00000  Uiso   1.00
Cl241  Cl    0.98681   0.20279   0.18867   0.00000  Uiso   1.00
Cl242  Cl    0.68057   0.29264   0.31452   0.00000  Uiso   1.00
Cl243  Cl    0.87959   0.01563   0.34921   0.00000  Uiso   1.00
Cl244  Cl    0.77316   0.48469   0.15498   0.00000  Uiso   1.00
O245   O     0.87038   0.11475   0.33888   0.00000  Uiso   1.00
C246   C     0.92403   0.12692   0.34541   0.00000  Uiso   1.00
H247   H     0.93353   0.15153   0.31773   0.00000  Uiso   1.00
H248   H     0.94827   0.09658   0.34455   0.00000  Uiso   1.00
C249   C     0.93861   0.14890   0.39339   0.00000  Uiso   1.00
H250   H     0.92622   0.12657   0.42164   0.00000  Uiso   1.00
H251   H     0.98148   0.15448   0.40040   0.00000  Uiso   1.00
H252   H     0.91961   0.18197   0.39382   0.00000  Uiso   1.00
O253   O     0.80039   0.38616   0.16074   0.00000  Uiso   1.00
C254   C     0.84132   0.39565   0.13400   0.00000  Uiso   1.00
H255   H     0.87744   0.37987   0.15117   0.00000  Uiso   1.00
H256   H     0.84981   0.43245   0.13002   0.00000  Uiso   1.00
C257   C     0.82609   0.37685   0.08462   0.00000  Uiso   1.00
H258   H     0.79545   0.39784   0.06474   0.00000  Uiso   1.00
H259   H     0.86058   0.37738   0.06562   0.00000  Uiso   1.00
H260   H     0.81044   0.34161   0.08645   0.00000  Uiso   1.00
Cl261  Cl    0.87751   0.12062   0.16081   0.00000  Uiso   1.00
Cl262  Cl    0.77410   0.37659   0.33208   0.00000  Uiso   1.00
Cl263  Cl    0.89193   0.01631   0.17236   0.00000  Uiso   1.00
Cl264  Cl    0.76480   0.48187   0.32557   0.00000  Uiso   1.00
O265   O     0.74764   0.21579   0.01835   0.00000  Uiso   1.00
C266   C     0.71592   0.25222   0.00235   0.00000  Uiso   1.00
H267   H     0.73760   0.27914   0.48492   0.00000  Uiso   1.00
H268   H     0.69995   0.26704   0.03255   0.00000  Uiso   1.00
C269   C     0.67158   0.23497   0.46591   0.00000  Uiso   1.00
H270   H     0.98245   0.20731   0.48135   0.00000  Uiso   1.00
H271   H     0.97847   0.26286   0.45424   0.00000  Uiso   1.00
H272   H     0.68759   0.22230   0.43470   0.00000  Uiso   1.00
O273   O     0.85071   0.33079   0.47128   0.00000  Uiso   1.00
C274   C     0.80447   0.35536   0.46106   0.00000  Uiso   1.00
H275   H     0.78193   0.35145   0.49117   0.00000  Uiso   1.00
H276   H     0.77831   0.34429   0.42854   0.00000  Uiso   1.00
C277   C     0.81858   0.40528   0.45503   0.00000  Uiso   1.00
H278   H     0.84029   0.41010   0.42442   0.00000  Uiso   1.00
H279   H     0.78256   0.42506   0.44861   0.00000  Uiso   1.00
H280   H     0.84323   0.41809   0.48735   0.00000  Uiso   1.00
O281   O     0.75169   0.20965   0.11598   0.00000  Uiso   1.00
C282   C     0.75283   0.16187   0.11247   0.00000  Uiso   1.00
H283   H     0.76017   0.14733   0.14878   0.00000  Uiso   1.00
H284   H     0.78358   0.14930   0.09263   0.00000  Uiso   1.00
C285   C     0.70020   0.14310   0.08901   0.00000  Uiso   1.00
H286   H     0.69243   0.15443   0.05157   0.00000  Uiso   1.00
H287   H     0.70012   0.10553   0.08997   0.00000  Uiso   1.00
H288   H     0.66849   0.15451   0.10779   0.00000  Uiso   1.00
O289   O     0.86618   0.32646   0.37811   0.00000  Uiso   1.00
C290   C     0.92032   0.32541   0.37670   0.00000  Uiso   1.00
H291   H     0.92738   0.33829   0.34139   0.00000  Uiso   1.00
H292   H     0.93672   0.29092   0.38099   0.00000  Uiso   1.00
C293   C     0.94982   0.35694   0.41362   0.00000  Uiso   1.00
H294   H     0.94571   0.34449   0.44973   0.00000  Uiso   1.00
H295   H     0.99184   0.35825   0.40976   0.00000  Uiso   1.00
H296   H     0.93454   0.39160   0.40877   0.00000  Uiso   1.00
Cl297  Cl    0.92390   0.30086   0.14224   0.00000  Uiso   1.00
Cl298  Cl    0.77851   0.16950   0.36484   0.00000  Uiso   1.00
Cl299  Cl    0.93323   0.28954   0.03669   0.00000  Uiso   1.00
Cl300  Cl    0.81511   0.15670   0.47436   0.00000  Uiso   1.00
C301   C     0.17190   0.66388   0.25084   0.00000  Uiso   1.00
C302   C     0.16104   0.83616   0.24899   0.00000  Uiso   1.00
C303   C     0.12454   0.73244   0.04702   0.00000  Uiso   1.00
C304   C     0.17773   0.78965   0.44843   0.00000  Uiso   1.00
C305   C     0.12629   0.72984   0.09693   0.00000  Uiso   1.00
C306   C     0.18297   0.78779   0.39984   0.00000  Uiso   1.00
C307   C     0.20759   0.76990   0.10699   0.00000  Uiso   1.00
C308   C     0.14896   0.71267   0.39669   0.00000  Uiso   1.00
C309   C     0.20991   0.76838   0.05795   0.00000  Uiso   1.00
C310   C     0.15512   0.71007   0.44664   0.00000  Uiso   1.00
C311   C     0.16785   0.74984   0.02681   0.00000  Uiso   1.00
C312   C     0.16799   0.74954   0.47360   0.00000  Uiso   1.00
C313   C     0.06725   0.74933   0.23801   0.00000  Uiso   1.00
C314   C     0.26607   0.75001   0.26212   0.00000  Uiso   1.00
C315   C     0.01304   0.74153   0.23338   0.00000  Uiso   1.00
C316   C     0.32044   0.75653   0.26746   0.00000  Uiso   1.00
C317   C     0.18922   0.54501   0.29648   0.00000  Uiso   1.00
C318   C     0.13950   0.95568   0.20451   0.00000  Uiso   1.00
C319   C     0.19202   0.59224   0.29642   0.00000  Uiso   1.00
C320   C     0.14362   0.90865   0.20337   0.00000  Uiso   1.00
C321   C     0.18413   0.61576   0.25265   0.00000  Uiso   1.00
C322   C     0.14795   0.88432   0.24674   0.00000  Uiso   1.00
C323   C     0.19370   0.59253   0.21192   0.00000  Uiso   1.00
C324   C     0.13343   0.90644   0.28643   0.00000  Uiso   1.00
C325   C     0.19362   0.54538   0.21344   0.00000  Uiso   1.00
C326   C     0.13332   0.95373   0.28645   0.00000  Uiso   1.00
C327   C     0.17721   0.52276   0.25282   0.00000  Uiso   1.00
C328   C     0.15074   0.97720   0.24830   0.00000  Uiso   1.00
N329   N     0.16667   0.74999   0.12624   0.00000  Uiso   1.00
N330   N     0.16667   0.75001   0.37376   0.00000  Uiso   1.00
O331   O     0.16667   0.68454   0.28974   0.00000  Uiso   1.00
O332   O     0.16666   0.81547   0.21026   0.00000  Uiso   1.00
O333   O     0.16667   0.68453   0.21026   0.00000  Uiso   1.00
O334   O     0.16666   0.81547   0.28974   0.00000  Uiso   1.00
O335   O     0.09058   0.75000   0.28044   0.00000  Uiso   1.00
O336   O     0.24275   0.75000   0.21955   0.00000  Uiso   1.00
O337   O     0.09058   0.75000   0.20097   0.00000  Uiso   1.00
O338   O     0.24275   0.75001   0.29903   0.00000  Uiso   1.00
Zn339  Zn    0.16667   0.75001   0.30307   0.00000  Uiso   1.00
Zn340  Zn    0.16667   0.75000   0.19693   0.00000  Uiso   1.00
Cl341  Cl    0.32014   0.70279   0.18867   0.00000  Uiso   1.00
Cl342  Cl    0.01391   0.79264   0.31452   0.00000  Uiso   1.00
Cl343  Cl    0.21293   0.51563   0.34921   0.00000  Uiso   1.00
Cl344  Cl    0.10649   0.98469   0.15498   0.00000  Uiso   1.00
O345   O     0.20371   0.61475   0.33888   0.00000  Uiso   1.00
C346   C     0.25737   0.62692   0.34541   0.00000  Uiso   1.00
H347   H     0.26686   0.65153   0.31773   0.00000  Uiso   1.00
H348   H     0.28160   0.59658   0.34455   0.00000  Uiso   1.00
C349   C     0.27194   0.64890   0.39339   0.00000  Uiso   1.00
H350   H     0.25955   0.62657   0.42164   0.00000  Uiso   1.00
H351   H     0.31481   0.65448   0.40040   0.00000  Uiso   1.00
H352   H     0.25295   0.68197   0.39382   0.00000  Uiso   1.00
O353   O     0.13373   0.88616   0.16074   0.00000  Uiso   1.00
C354   C     0.17466   0.89565   0.13400   0.00000  Uiso   1.00
H355   H     0.21077   0.87987   0.15117   0.00000  Uiso   1.00
H356   H     0.18315   0.93245   0.13002   0.00000  Uiso   1.00
C357   C     0.15942   0.87685   0.08462   0.00000  Uiso   1.00
H358   H     0.12878   0.89784   0.06474   0.00000  Uiso   1.00
H359   H     0.19392   0.87738   0.06562   0.00000  Uiso   1.00
H360   H     0.14378   0.84161   0.08645   0.00000  Uiso   1.00
Cl361  Cl    0.21085   0.62062   0.16081   0.00000  Uiso   1.00
Cl362  Cl    0.10744   0.87659   0.33208   0.00000  Uiso   1.00
Cl363  Cl    0.22527   0.51631   0.17236   0.00000  Uiso   1.00
Cl364  Cl    0.09813   0.98187   0.32557   0.00000  Uiso   1.00
O365   O     0.08098   0.71579   0.01835   0.00000  Uiso   1.00
C366   C     0.04926   0.75222   0.00235   0.00000  Uiso   1.00
H367   H     0.07093   0.77914   0.48492   0.00000  Uiso   1.00
H368   H     0.03328   0.76704   0.03255   0.00000  Uiso   1.00
C369   C     0.00492   0.73497   0.46591   0.00000  Uiso   1.00
H370   H     0.31578   0.70731   0.48135   0.00000  Uiso   1.00
H371   H     0.31180   0.76286   0.45424   0.00000  Uiso   1.00
H372   H     0.02092   0.72230   0.43470   0.00000  Uiso   1.00
O373   O     0.18404   0.83079   0.47128   0.00000  Uiso   1.00
C374   C     0.13780   0.85536   0.46106   0.00000  Uiso   1.00
H375   H     0.11526   0.85145   0.49117   0.00000  Uiso   1.00
H376   H     0.11164   0.84429   0.42854   0.00000  Uiso   1.00
C377   C     0.15191   0.90528   0.45503   0.00000  Uiso   1.00
H378   H     0.17362   0.91010   0.42442   0.00000  Uiso   1.00
H379   H     0.11590   0.92506   0.44861   0.00000  Uiso   1.00
H380   H     0.17657   0.91809   0.48735   0.00000  Uiso   1.00
O381   O     0.08502   0.70965   0.11598   0.00000  Uiso   1.00
C382   C     0.08617   0.66187   0.11247   0.00000  Uiso   1.00
H383   H     0.09350   0.64733   0.14878   0.00000  Uiso   1.00
H384   H     0.11692   0.64930   0.09263   0.00000  Uiso   1.00
C385   C     0.03354   0.64310   0.08901   0.00000  Uiso   1.00
H386   H     0.02576   0.65443   0.05157   0.00000  Uiso   1.00
H387   H     0.03345   0.60553   0.08997   0.00000  Uiso   1.00
H388   H     0.00182   0.65451   0.10779   0.00000  Uiso   1.00
O389   O     0.19952   0.82646   0.37811   0.00000  Uiso   1.00
C390   C     0.25366   0.82541   0.37670   0.00000  Uiso   1.00
H391   H     0.26071   0.83829   0.34139   0.00000  Uiso   1.00
H392   H     0.27005   0.79092   0.38099   0.00000  Uiso   1.00
C393   C     0.28315   0.85694   0.41362   0.00000  Uiso   1.00
H394   H     0.27905   0.84449   0.44973   0.00000  Uiso   1.00
H395   H     0.32517   0.85825   0.40976   0.00000  Uiso   1.00
H396   H     0.26788   0.89160   0.40877   0.00000  Uiso   1.00
Cl397  Cl    0.25723   0.80086   0.14224   0.00000  Uiso   1.00
Cl398  Cl    0.11185   0.66950   0.36484   0.00000  Uiso   1.00
Cl399  Cl    0.26656   0.78954   0.03669   0.00000  Uiso   1.00
Cl400  Cl    0.14845   0.65670   0.47436   0.00000  Uiso   1.00
C401   C     0.50523   0.66388   0.25084   0.00000  Uiso   1.00
C402   C     0.49438   0.83616   0.24899   0.00000  Uiso   1.00
C403   C     0.45787   0.73244   0.04702   0.00000  Uiso   1.00
C404   C     0.51106   0.78965   0.44843   0.00000  Uiso   1.00
C405   C     0.45963   0.72984   0.09693   0.00000  Uiso   1.00
C406   C     0.51631   0.78779   0.39984   0.00000  Uiso   1.00
C407   C     0.54092   0.76990   0.10699   0.00000  Uiso   1.00
C408   C     0.48230   0.71267   0.39669   0.00000  Uiso   1.00
C409   C     0.54325   0.76838   0.05795   0.00000  Uiso   1.00
C410   C     0.48845   0.71007   0.44664   0.00000  Uiso   1.00
C411   C     0.50118   0.74984   0.02681   0.00000  Uiso   1.00
C412   C     0.50132   0.74954   0.47360   0.00000  Uiso   1.00
C413   C     0.40059   0.74933   0.23801   0.00000  Uiso   1.00
C414   C     0.59940   0.75001   0.26212   0.00000  Uiso   1.00
C415   C     0.34637   0.74153   0.23338   0.00000  Uiso   1.00
C416   C     0.65377   0.75653   0.26746   0.00000  Uiso   1.00
C417   C     0.52255   0.54501   0.29648   0.00000  Uiso   1.00
C418   C     0.47283   0.95568   0.20451   0.00000  Uiso   1.00
C419   C     0.52535   0.59224   0.29642   0.00000  Uiso   1.00
C420   C     0.47696   0.90865   0.20337   0.00000  Uiso   1.00
C421   C     0.51746   0.61576   0.25265   0.00000  Uiso   1.00
C422   C     0.48128   0.88432   0.24674   0.00000  Uiso   1.00
C423   C     0.52704   0.59253   0.21192   0.00000  Uiso   1.00
C424   C     0.46676   0.90644   0.28643   0.00000  Uiso   1.00
C425   C     0.52696   0.54538   0.21344   0.00000  Uiso   1.00
C426   C     0.46665   0.95373   0.28645   0.00000  Uiso   1.00
C427   C     0.51054   0.52276   0.25282   0.00000  Uiso   1.00
C428   C     0.48408   0.97720   0.24830   0.00000  Uiso   1.00
N429   N     0.50000   0.74999   0.12624   0.00000  Uiso   1.00
N430   N     0.50000   0.75001   0.37376   0.00000  Uiso   1.00
O431   O     0.50000   0.68454   0.28974   0.00000  Uiso   1.00
O432   O     0.50000   0.81547   0.21026   0.00000  Uiso   1.00
O433   O     0.50000   0.68453   0.21026   0.00000  Uiso   1.00
O434   O     0.50000   0.81547   0.28974   0.00000  Uiso   1.00
O435   O     0.42392   0.75000   0.28044   0.00000  Uiso   1.00
O436   O     0.57608   0.75000   0.21955   0.00000  Uiso   1.00
O437   O     0.42392   0.75000   0.20097   0.00000  Uiso   1.00
O438   O     0.57608   0.75001   0.29903   0.00000  Uiso   1.00
Zn439  Zn    0.50000   0.75001   0.30307   0.00000  Uiso   1.00
Zn440  Zn    0.50000   0.75000   0.19693   0.00000  Uiso   1.00
Cl441  Cl    0.65348   0.70279   0.18867   0.00000  Uiso   1.00
Cl442  Cl    0.34724   0.79264   0.31452   0.00000  Uiso   1.00
Cl443  Cl    0.54626   0.51563   0.34921   0.00000  Uiso   1.00
Cl444  Cl    0.43982   0.98469   0.15498   0.00000  Uiso   1.00
O445   O     0.53705   0.61475   0.33888   0.00000  Uiso   1.00
C446   C     0.59070   0.62692   0.34541   0.00000  Uiso   1.00
H447   H     0.60019   0.65153   0.31773   0.00000  Uiso   1.00
H448   H     0.61493   0.59658   0.34455   0.00000  Uiso   1.00
C449   C     0.60527   0.64890   0.39339   0.00000  Uiso   1.00
H450   H     0.59288   0.62657   0.42164   0.00000  Uiso   1.00
H451   H     0.64815   0.65448   0.40040   0.00000  Uiso   1.00
H452   H     0.58628   0.68197   0.39382   0.00000  Uiso   1.00
O453   O     0.46706   0.88616   0.16074   0.00000  Uiso   1.00
C454   C     0.50799   0.89565   0.13400   0.00000  Uiso   1.00
H455   H     0.54411   0.87987   0.15117   0.00000  Uiso   1.00
H456   H     0.51648   0.93245   0.13002   0.00000  Uiso   1.00
C457   C     0.49276   0.87685   0.08462   0.00000  Uiso   1.00
H458   H     0.46212   0.89784   0.06474   0.00000  Uiso   1.00
H459   H     0.52725   0.87738   0.06562   0.00000  Uiso   1.00
H460   H     0.47711   0.84161   0.08645   0.00000  Uiso   1.00
Cl461  Cl    0.54418   0.62062   0.16081   0.00000  Uiso   1.00
Cl462  Cl    0.44077   0.87659   0.33208   0.00000  Uiso   1.00
Cl463  Cl    0.55860   0.51631   0.17236   0.00000  Uiso   1.00
Cl464  Cl    0.43146   0.98187   0.32557   0.00000  Uiso   1.00
O465   O     0.41431   0.71579   0.01835   0.00000  Uiso   1.00
C466   C     0.38259   0.75222   0.00235   0.00000  Uiso   1.00
H467   H     0.40426   0.77914   0.48492   0.00000  Uiso   1.00
H468   H     0.36662   0.76704   0.03255   0.00000  Uiso   1.00
C469   C     0.33825   0.73497   0.46591   0.00000  Uiso   1.00
H470   H     0.64912   0.70731   0.48135   0.00000  Uiso   1.00
H471   H     0.64513   0.76286   0.45424   0.00000  Uiso   1.00
H472   H     0.35425   0.72230   0.43470   0.00000  Uiso   1.00
O473   O     0.51737   0.83079   0.47128   0.00000  Uiso   1.00
C474   C     0.47114   0.85536   0.46106   0.00000  Uiso   1.00
H475   H     0.44859   0.85145   0.49117   0.00000  Uiso   1.00
H476   H     0.44497   0.84429   0.42854   0.00000  Uiso   1.00
C477   C     0.48524   0.90528   0.45503   0.00000  Uiso   1.00
H478   H     0.50696   0.91010   0.42442   0.00000  Uiso   1.00
H479   H     0.44923   0.92506   0.44861   0.00000  Uiso   1.00
H480   H     0.50990   0.91809   0.48735   0.00000  Uiso   1.00
O481   O     0.41836   0.70965   0.11598   0.00000  Uiso   1.00
C482   C     0.41950   0.66187   0.11247   0.00000  Uiso   1.00
H483   H     0.42684   0.64733   0.14878   0.00000  Uiso   1.00
H484   H     0.45025   0.64930   0.09263   0.00000  Uiso   1.00
C485   C     0.36687   0.64310   0.08901   0.00000  Uiso   1.00
H486   H     0.35910   0.65443   0.05157   0.00000  Uiso   1.00
H487   H     0.36679   0.60553   0.08997   0.00000  Uiso   1.00
H488   H     0.33516   0.65451   0.10779   0.00000  Uiso   1.00
O489   O     0.53285   0.82646   0.37811   0.00000  Uiso   1.00
C490   C     0.58699   0.82541   0.37670   0.00000  Uiso   1.00
H491   H     0.59405   0.83829   0.34139   0.00000  Uiso   1.00
H492   H     0.60338   0.79092   0.38099   0.00000  Uiso   1.00
C493   C     0.61648   0.85694   0.41362   0.00000  Uiso   1.00
H494   H     0.61238   0.84449   0.44973   0.00000  Uiso   1.00
H495   H     0.65850   0.85825   0.40976   0.00000  Uiso   1.00
H496   H     0.60121   0.89160   0.40877   0.00000  Uiso   1.00
Cl497  Cl    0.59056   0.80086   0.14224   0.00000  Uiso   1.00
Cl498  Cl    0.44518   0.66950   0.36484   0.00000  Uiso   1.00
Cl499  Cl    0.59990   0.78954   0.03669   0.00000  Uiso   1.00
Cl500  Cl    0.48178   0.65670   0.47436   0.00000  Uiso   1.00
C501   C     0.83857   0.66388   0.25084   0.00000  Uiso   1.00
C502   C     0.82771   0.83616   0.24899   0.00000  Uiso   1.00
C503   C     0.79121   0.73244   0.04702   0.00000  Uiso   1.00
C504   C     0.84439   0.78965   0.44843   0.00000  Uiso   1.00
C505   C     0.79296   0.72984   0.09693   0.00000  Uiso   1.00
C506   C     0.84964   0.78779   0.39984   0.00000  Uiso   1.00
C507   C     0.87426   0.76990   0.10699   0.00000  Uiso   1.00
C508   C     0.81563   0.71267   0.39669   0.00000  Uiso   1.00
C509   C     0.87658   0.76838   0.05795   0.00000  Uiso   1.00
C510   C     0.82179   0.71007   0.44664   0.00000  Uiso   1.00
C511   C     0.83451   0.74984   0.02681   0.00000  Uiso   1.00
C512   C     0.83466   0.74954   0.47360   0.00000  Uiso   1.00
C513   C     0.73392   0.74933   0.23801   0.00000  Uiso   1.00
C514   C     0.93273   0.75001   0.26212   0.00000  Uiso   1.00
C515   C     0.67971   0.74153   0.23338   0.00000  Uiso   1.00
C516   C     0.98710   0.75653   0.26746   0.00000  Uiso   1.00
C517   C     0.85589   0.54501   0.29648   0.00000  Uiso   1.00
C518   C     0.80617   0.95568   0.20451   0.00000  Uiso   1.00
C519   C     0.85869   0.59224   0.29642   0.00000  Uiso   1.00
C520   C     0.81029   0.90865   0.20337   0.00000  Uiso   1.00
C521   C     0.85079   0.61576   0.25265   0.00000  Uiso   1.00
C522   C     0.81462   0.88432   0.24674   0.00000  Uiso   1.00
C523   C     0.86037   0.59253   0.21192   0.00000  Uiso   1.00
C524   C     0.80010   0.90644   0.28643   0.00000  Uiso   1.00
C525   C     0.86029   0.54538   0.21344   0.00000  Uiso   1.00
C526   C     0.79998   0.95373   0.28645   0.00000  Uiso   1.00
C527   C     0.84387   0.52276   0.25282   0.00000  Uiso   1.00
C528   C     0.81741   0.97720   0.24830   0.00000  Uiso   1.00
N529   N     0.83333   0.74999   0.12624   0.00000  Uiso   1.00
N530   N     0.83333   0.75001   0.37376   0.00000  Uiso   1.00
O531   O     0.83334   0.68454   0.28974   0.00000  Uiso   1.00
O532   O     0.83333   0.81547   0.21026   0.00000  Uiso   1.00
O533   O     0.83334   0.68453   0.21026   0.00000  Uiso   1.00
O534   O     0.83333   0.81547   0.28974   0.00000  Uiso   1.00
O535   O     0.75725   0.75000   0.28044   0.00000  Uiso   1.00
O536   O     0.90942   0.75000   0.21955   0.00000  Uiso   1.00
O537   O     0.75725   0.75000   0.20097   0.00000  Uiso   1.00
O538   O     0.90942   0.75001   0.29903   0.00000  Uiso   1.00
Zn539  Zn    0.83333   0.75001   0.30307   0.00000  Uiso   1.00
Zn540  Zn    0.83333   0.75000   0.19693   0.00000  Uiso   1.00
Cl541  Cl    0.98681   0.70279   0.18867   0.00000  Uiso   1.00
Cl542  Cl    0.68057   0.79264   0.31452   0.00000  Uiso   1.00
Cl543  Cl    0.87959   0.51563   0.34921   0.00000  Uiso   1.00
Cl544  Cl    0.77316   0.98469   0.15498   0.00000  Uiso   1.00
O545   O     0.87038   0.61475   0.33888   0.00000  Uiso   1.00
C546   C     0.92403   0.62692   0.34541   0.00000  Uiso   1.00
H547   H     0.93353   0.65153   0.31773   0.00000  Uiso   1.00
H548   H     0.94827   0.59658   0.34455   0.00000  Uiso   1.00
C549   C     0.93861   0.64890   0.39339   0.00000  Uiso   1.00
H550   H     0.92622   0.62657   0.42164   0.00000  Uiso   1.00
H551   H     0.98148   0.65448   0.40040   0.00000  Uiso   1.00
H552   H     0.91961   0.68197   0.39382   0.00000  Uiso   1.00
O553   O     0.80039   0.88616   0.16074   0.00000  Uiso   1.00
C554   C     0.84132   0.89565   0.13400   0.00000  Uiso   1.00
H555   H     0.87744   0.87987   0.15117   0.00000  Uiso   1.00
H556   H     0.84981   0.93245   0.13002   0.00000  Uiso   1.00
C557   C     0.82609   0.87685   0.08462   0.00000  Uiso   1.00
H558   H     0.79545   0.89784   0.06474   0.00000  Uiso   1.00
H559   H     0.86058   0.87738   0.06562   0.00000  Uiso   1.00
H560   H     0.81044   0.84161   0.08645   0.00000  Uiso   1.00
Cl561  Cl    0.87751   0.62062   0.16081   0.00000  Uiso   1.00
Cl562  Cl    0.77410   0.87659   0.33208   0.00000  Uiso   1.00
Cl563  Cl    0.89193   0.51631   0.17236   0.00000  Uiso   1.00
Cl564  Cl    0.76480   0.98187   0.32557   0.00000  Uiso   1.00
O565   O     0.74764   0.71579   0.01835   0.00000  Uiso   1.00
C566   C     0.71592   0.75222   0.00235   0.00000  Uiso   1.00
H567   H     0.73760   0.77914   0.48492   0.00000  Uiso   1.00
H568   H     0.69995   0.76704   0.03255   0.00000  Uiso   1.00
C569   C     0.67158   0.73497   0.46591   0.00000  Uiso   1.00
H570   H     0.98245   0.70731   0.48135   0.00000  Uiso   1.00
H571   H     0.97847   0.76286   0.45424   0.00000  Uiso   1.00
H572   H     0.68759   0.72230   0.43470   0.00000  Uiso   1.00
O573   O     0.85071   0.83079   0.47128   0.00000  Uiso   1.00
C574   C     0.80447   0.85536   0.46106   0.00000  Uiso   1.00
H575   H     0.78193   0.85145   0.49117   0.00000  Uiso   1.00
H576   H     0.77831   0.84429   0.42854   0.00000  Uiso   1.00
C577   C     0.81858   0.90528   0.45503   0.00000  Uiso   1.00
H578   H     0.84029   0.91010   0.42442   0.00000  Uiso   1.00
H579   H     0.78256   0.92506   0.44861   0.00000  Uiso   1.00
H580   H     0.84323   0.91809   0.48735   0.00000  Uiso   1.00
O581   O     0.75169   0.70965   0.11598   0.00000  Uiso   1.00
C582   C     0.75283   0.66187   0.11247   0.00000  Uiso   1.00
H583   H     0.76017   0.64733   0.14878   0.00000  Uiso   1.00
H584   H     0.78358   0.64930   0.09263   0.00000  Uiso   1.00
C585   C     0.70020   0.64310   0.08901   0.00000  Uiso   1.00
H586   H     0.69243   0.65443   0.05157   0.00000  Uiso   1.00
H587   H     0.70012   0.60553   0.08997   0.00000  Uiso   1.00
H588   H     0.66849   0.65451   0.10779   0.00000  Uiso   1.00
O589   O     0.86618   0.82646   0.37811   0.00000  Uiso   1.00
C590   C     0.92032   0.82541   0.37670   0.00000  Uiso   1.00
H591   H     0.92738   0.83829   0.34139   0.00000  Uiso   1.00
H592   H     0.93672   0.79092   0.38099   0.00000  Uiso   1.00
C593   C     0.94982   0.85694   0.41362   0.00000  Uiso   1.00
H594   H     0.94571   0.84449   0.44973   0.00000  Uiso   1.00
H595   H     0.99184   0.85825   0.40976   0.00000  Uiso   1.00
H596   H     0.93454   0.89160   0.40877   0.00000  Uiso   1.00
Cl597  Cl    0.92390   0.80086   0.14224   0.00000  Uiso   1.00
Cl598  Cl    0.77851   0.66950   0.36484   0.00000  Uiso   1.00
Cl599  Cl    0.93323   0.78954   0.03669   0.00000  Uiso   1.00
Cl600  Cl    0.81511   0.65670   0.47436   0.00000  Uiso   1.00
C601   C     0.17190   0.16388   0.75084   0.00000  Uiso   1.00
C602   C     0.16104   0.33616   0.74899   0.00000  Uiso   1.00
C603   C     0.12454   0.23244   0.54702   0.00000  Uiso   1.00
C604   C     0.17773   0.28965   0.94843   0.00000  Uiso   1.00
C605   C     0.12629   0.22984   0.59693   0.00000  Uiso   1.00
C606   C     0.18297   0.28779   0.89984   0.00000  Uiso   1.00
C607   C     0.20759   0.26990   0.60699   0.00000  Uiso   1.00
C608   C     0.14896   0.21267   0.89669   0.00000  Uiso   1.00
C609   C     0.20991   0.26838   0.55795   0.00000  Uiso   1.00
C610   C     0.15512   0.21007   0.94664   0.00000  Uiso   1.00
C611   C     0.16785   0.24984   0.52681   0.00000  Uiso   1.00
C612   C     0.16799   0.24954   0.97360   0.00000  Uiso   1.00
C613   C     0.06725   0.24933   0.73801   0.00000  Uiso   1.00
C614   C     0.26607   0.25001   0.76212   0.00000  Uiso   1.00
C615   C     0.01304   0.24153   0.73338   0.00000  Uiso   1.00
C616   C     0.32044   0.25653   0.76746   0.00000  Uiso   1.00
C617   C     0.18922   0.04501   0.79648   0.00000  Uiso   1.00
C618   C     0.13950   0.45568   0.70451   0.00000  Uiso   1.00
C619   C     0.19202   0.09224   0.79642   0.00000  Uiso   1.00
C620   C     0.14362   0.40865   0.70337   0.00000  Uiso   1.00
C621   C     0.18413   0.11576   0.75265   0.00000  Uiso   1.00
C622   C     0.14795   0.38432   0.74674   0.00000  Uiso   1.00
C623   C     0.19370   0.09253   0.71192   0.00000  Uiso   1.00
C624   C     0.13343   0.40644   0.78643   0.00000  Uiso   1.00
C625   C     0.19362   0.04538   0.71344   0.00000  Uiso   1.00
C626   C     0.13332   0.45373   0.78645   0.00000  Uiso   1.00
C627   C     0.17721   0.02276   0.75282   0.00000  Uiso   1.00
C628   C     0.15074   0.47720   0.74830   0.00000  Uiso   1.00
N629   N     0.16667   0.24999   0.62624   0.00000  Uiso   1.00
N630   N     0.16667   0.25001   0.87376   0.00000  Uiso   1.00
O631   O     0.16667   0.18454   0.78974   0.00000  Uiso   1.00
O632   O     0.16666   0.31547   0.71026   0.00000  Uiso   1.00
O633   O     0.16667   0.18453   0.71026   0.00000  Uiso   1.00
O634   O     0.16666   0.31547   0.78974   0.00000  Uiso   1.00
O635   O     0.09058   0.25000   0.78044   0.00000  Uiso   1.00
O636   O     0.24275   0.25000   0.71955   0.00000  Uiso   1.00
O637   O     0.09058   0.25000   0.70097   0.00000  Uiso   1.00
O638   O     0.24275   0.25001   0.79903   0.00000  Uiso   1.00
Zn639  Zn    0.16667   0.25001   0.80307   0.00000  Uiso   1.00
Zn640  Zn    0.16667   0.25000   0.69693   0.00000  Uiso   1.00
Cl641  Cl    0.32014   0.20279   0.68867   0.00000  Uiso   1.00
Cl642  Cl    0.01391   0.29264   0.81452   0.00000  Uiso   1.00
Cl643  Cl    0.21293   0.01563   0.84921   0.00000  Uiso   1.00
Cl644  Cl    0.10649   0.48469   0.65498   0.00000  Uiso   1.00
O645   O     0.20371   0.11475   0.83888   0.00000  Uiso   1.00
C646   C     0.25737   0.12692   0.84541   0.00000  Uiso   1.00
H647   H     0.26686   0.15153   0.81773   0.00000  Uiso   1.00
H648   H     0.28160   0.09658   0.84455   0.00000  Uiso   1.00
C649   C     0.27194   0.14890   0.89339   0.00000  Uiso   1.00
H650   H     0.25955   0.12657   0.92164   0.00000  Uiso   1.00
H651   H     0.31481   0.15448   0.90040   0.00000  Uiso   1.00
H652   H     0.25295   0.18197   0.89382   0.00000  Uiso   1.00
O653   O     0.13373   0.38616   0.66074   0.00000  Uiso   1.00
C654   C     0.17466   0.39565   0.63400   0.00000  Uiso   1.00
H655   H     0.21077   0.37987   0.65117   0.00000  Uiso   1.00
H656   H     0.18315   0.43245   0.63002   0.00000  Uiso   1.00
C657   C     0.15942   0.37685   0.58462   0.00000  Uiso   1.00
H658   H     0.12878   0.39784   0.56474   0.00000  Uiso   1.00
H659   H     0.19392   0.37738   0.56562   0.00000  Uiso   1.00
H660   H     0.14378   0.34161   0.58645   0.00000  Uiso   1.00
Cl661  Cl    0.21085   0.12062   0.66081   0.00000  Uiso   1.00
Cl662  Cl    0.10744   0.37659   0.83208   0.00000  Uiso   1.00
Cl663  Cl    0.22527   0.01631   0.67236   0.00000  Uiso   1.00
Cl664  Cl    0.09813   0.48187   0.82557   0.00000  Uiso   1.00
O665   O     0.08098   0.21579   0.51835   0.00000  Uiso   1.00
C666   C     0.04926   0.25222   0.50235   0.00000  Uiso   1.00
H667   H     0.07093   0.27914   0.98492   0.00000  Uiso   1.00
H668   H     0.03328   0.26704   0.53255   0.00000  Uiso   1.00
C669   C     0.00492   0.23497   0.96591   0.00000  Uiso   1.00
H670   H     0.31578   0.20731   0.98135   0.00000  Uiso   1.00
H671   H     0.31180   0.26286   0.95424   0.00000  Uiso   1.00
H672   H     0.02092   0.22230   0.93470   0.00000  Uiso   1.00
O673   O     0.18404   0.33079   0.97128   0.00000  Uiso   1.00
C674   C     0.13780   0.35536   0.96106   0.00000  Uiso   1.00
H675   H     0.11526   0.35145   0.99117   0.00000  Uiso   1.00
H676   H     0.11164   0.34429   0.92854   0.00000  Uiso   1.00
C677   C     0.15191   0.40528   0.95503   0.00000  Uiso   1.00
H678   H     0.17362   0.41010   0.92442   0.00000  Uiso   1.00
H679   H     0.11590   0.42506   0.94861   0.00000  Uiso   1.00
H680   H     0.17657   0.41809   0.98735   0.00000  Uiso   1.00
O681   O     0.08502   0.20965   0.61598   0.00000  Uiso   1.00
C682   C     0.08617   0.16187   0.61247   0.00000  Uiso   1.00
H683   H     0.09350   0.14733   0.64878   0.00000  Uiso   1.00
H684   H     0.11692   0.14930   0.59263   0.00000  Uiso   1.00
C685   C     0.03354   0.14310   0.58901   0.00000  Uiso   1.00
H686   H     0.02576   0.15443   0.55157   0.00000  Uiso   1.00
H687   H     0.03345   0.10553   0.58997   0.00000  Uiso   1.00
H688   H     0.00182   0.15451   0.60779   0.00000  Uiso   1.00
O689   O     0.19952   0.32646   0.87811   0.00000  Uiso   1.00
C690   C     0.25366   0.32541   0.87670   0.00000  Uiso   1.00
H691   H     0.26071   0.33829   0.84139   0.00000  Uiso   1.00
H692   H     0.27005   0.29092   0.88099   0.00000  Uiso   1.00
C693   C     0.28315   0.35694   0.91362   0.00000  Uiso   1.00
H694   H     0.27905   0.34449   0.94973   0.00000  Uiso   1.00
H695   H     0.32517   0.35825   0.90976   0.00000  Uiso   1.00
H696   H     0.26788   0.39160   0.90877   0.00000  Uiso   1.00
Cl697  Cl    0.25723   0.30086   0.64224   0.00000  Uiso   1.00
Cl698  Cl    0.11185   0.16950   0.86484   0.00000  Uiso   1.00
Cl699  Cl    0.26656   0.28954   0.53669   0.00000  Uiso   1.00
Cl700  Cl    0.14845   0.15670   0.97436   0.00000  Uiso   1.00
C701   C     0.50523   0.16388   0.75084   0.00000  Uiso   1.00
C702   C     0.49438   0.33616   0.74899   0.00000  Uiso   1.00
C703   C     0.45787   0.23244   0.54702   0.00000  Uiso   1.00
C704   C     0.51106   0.28965   0.94843   0.00000  Uiso   1.00
C705   C     0.45963   0.22984   0.59693   0.00000  Uiso   1.00
C706   C     0.51631   0.28779   0.89984   0.00000  Uiso   1.00
C707   C     0.54092   0.26990   0.60699   0.00000  Uiso   1.00
C708   C     0.48230   0.21267   0.89669   0.00000  Uiso   1.00
C709   C     0.54325   0.26838   0.55795   0.00000  Uiso   1.00
C710   C     0.48845   0.21007   0.94664   0.00000  Uiso   1.00
C711   C     0.50118   0.24984   0.52681   0.00000  Uiso   1.00
C712   C     0.50132   0.24954   0.97360   0.00000  Uiso   1.00
C713   C     0.40059   0.24933   0.73801   0.00000  Uiso   1.00
C714   C     0.59940   0.25001   0.76212   0.00000  Uiso   1.00
C715   C     0.34637   0.24153   0.73338   0.00000  Uiso   1.00
C716   C     0.65377   0.25653   0.76746   0.00000  Uiso   1.00
C717   C     0.52255   0.04501   0.79648   0.00000  Uiso   1.00
C718   C     0.47283   0.45568   0.70451   0.00000  Uiso   1.00
C719   C     0.52535   0.09224   0.79642   0.00000  Uiso   1.00
C720   C     0.47696   0.40865   0.70337   0.00000  Uiso   1.00
C721   C     0.51746   0.11576   0.75265   0.00000  Uiso   1.00
C722   C     0.48128   0.38432   0.74674   0.00000  Uiso   1.00
C723   C     0.52704   0.09253   0.71192   0.00000  Uiso   1.00
C724   C     0.46676   0.40644   0.78643   0.00000  Uiso   1.00
C725   C     0.52696   0.04538   0.71344   0.00000  Uiso   1.00
C726   C     0.46665   0.45373   0.78645   0.00000  Uiso   1.00
C727   C     0.51054   0.02276   0.75282   0.00000  Uiso   1.00
C728   C     0.48408   0.47720   0.74830   0.00000  Uiso   1.00
N729   N     0.50000   0.24999   0.62624   0.00000  Uiso   1.00
N730   N     0.50000   0.25001   0.87376   0.00000  Uiso   1.00
O731   O     0.50000   0.18454   0.78974   0.00000  Uiso   1.00
O732   O     0.50000   0.31547   0.71026   0.00000  Uiso   1.00
O733   O     0.50000   0.18453   0.71026   0.00000  Uiso   1.00
O734   O     0.50000   0.31547   0.78974   0.00000  Uiso   1.00
O735   O     0.42392   0.25000   0.78044   0.00000  Uiso   1.00
O736   O     0.57608   0.25000   0.71955   0.00000  Uiso   1.00
O737   O     0.42392   0.25000   0.70097   0.00000  Uiso   1.00
O738   O     0.57608   0.25001   0.79903   0.00000  Uiso   1.00
Zn739  Zn    0.50000   0.25001   0.80307   0.00000  Uiso   1.00
Zn740  Zn    0.50000   0.25000   0.69693   0.00000  Uiso   1.00
Cl741  Cl    0.65348   0.20279   0.68867   0.00000  Uiso   1.00
Cl742  Cl    0.34724   0.29264   0.81452   0.00000  Uiso   1.00
Cl743  Cl    0.54626   0.01563   0.84921   0.00000  Uiso   1.00
Cl744  Cl    0.43982   0.48469   0.65498   0.00000  Uiso   1.00
O745   O     0.53705   0.11475   0.83888   0.00000  Uiso   1.00
C746   C     0.59070   0.12692   0.84541   0.00000  Uiso   1.00
H747   H     0.60019   0.15153   0.81773   0.00000  Uiso   1.00
H748   H     0.61493   0.09658   0.84455   0.00000  Uiso   1.00
C749   C     0.60527   0.14890   0.89339   0.00000  Uiso   1.00
H750   H     0.59288   0.12657   0.92164   0.00000  Uiso   1.00
H751   H     0.64815   0.15448   0.90040   0.00000  Uiso   1.00
H752   H     0.58628   0.18197   0.89382   0.00000  Uiso   1.00
O753   O     0.46706   0.38616   0.66074   0.00000  Uiso   1.00
C754   C     0.50799   0.39565   0.63400   0.00000  Uiso   1.00
H755   H     0.54411   0.37987   0.65117   0.00000  Uiso   1.00
H756   H     0.51648   0.43245   0.63002   0.00000  Uiso   1.00
C757   C     0.49276   0.37685   0.58462   0.00000  Uiso   1.00
H758   H     0.46212   0.39784   0.56474   0.00000  Uiso   1.00
H759   H     0.52725   0.37738   0.56562   0.00000  Uiso   1.00
H760   H     0.47711   0.34161   0.58645   0.00000  Uiso   1.00
Cl761  Cl    0.54418   0.12062   0.66081   0.00000  Uiso   1.00
Cl762  Cl    0.44077   0.37659   0.83208   0.00000  Uiso   1.00
Cl763  Cl    0.55860   0.01631   0.67236   0.00000  Uiso   1.00
Cl764  Cl    0.43146   0.48187   0.82557   0.00000  Uiso   1.00
O765   O     0.41431   0.21579   0.51835   0.00000  Uiso   1.00
C766   C     0.38259   0.25222   0.50235   0.00000  Uiso   1.00
H767   H     0.40426   0.27914   0.98492   0.00000  Uiso   1.00
H768   H     0.36662   0.26704   0.53255   0.00000  Uiso   1.00
C769   C     0.33825   0.23497   0.96591   0.00000  Uiso   1.00
H770   H     0.64912   0.20731   0.98135   0.00000  Uiso   1.00
H771   H     0.64513   0.26286   0.95424   0.00000  Uiso   1.00
H772   H     0.35425   0.22230   0.93470   0.00000  Uiso   1.00
O773   O     0.51737   0.33079   0.97128   0.00000  Uiso   1.00
C774   C     0.47114   0.35536   0.96106   0.00000  Uiso   1.00
H775   H     0.44859   0.35145   0.99117   0.00000  Uiso   1.00
H776   H     0.44497   0.34429   0.92854   0.00000  Uiso   1.00
C777   C     0.48524   0.40528   0.95503   0.00000  Uiso   1.00
H778   H     0.50696   0.41010   0.92442   0.00000  Uiso   1.00
H779   H     0.44923   0.42506   0.94861   0.00000  Uiso   1.00
H780   H     0.50990   0.41809   0.98735   0.00000  Uiso   1.00
O781   O     0.41836   0.20965   0.61598   0.00000  Uiso   1.00
C782   C     0.41950   0.16187   0.61247   0.00000  Uiso   1.00
H783   H     0.42684   0.14733   0.64878   0.00000  Uiso   1.00
H784   H     0.45025   0.14930   0.59263   0.00000  Uiso   1.00
C785   C     0.36687   0.14310   0.58901   0.00000  Uiso   1.00
H786   H     0.35910   0.15443   0.55157   0.00000  Uiso   1.00
H787   H     0.36679   0.10553   0.58997   0.00000  Uiso   1.00
H788   H     0.33516   0.15451   0.60779   0.00000  Uiso   1.00
O789   O     0.53285   0.32646   0.87811   0.00000  Uiso   1.00
C790   C     0.58699   0.32541   0.87670   0.00000  Uiso   1.00
H791   H     0.59405   0.33829   0.84139   0.00000  Uiso   1.00
H792   H     0.60338   0.29092   0.88099   0.00000  Uiso   1.00
C793   C     0.61648   0.35694   0.91362   0.00000  Uiso   1.00
H794   H     0.61238   0.34449   0.94973   0.00000  Uiso   1.00
H795   H     0.65850   0.35825   0.90976   0.00000  Uiso   1.00
H796   H     0.60121   0.39160   0.90877   0.00000  Uiso   1.00
Cl797  Cl    0.59056   0.30086   0.64224   0.00000  Uiso   1.00
Cl798  Cl    0.44518   0.16950   0.86484   0.00000  Uiso   1.00
Cl799  Cl    0.59990   0.28954   0.53669   0.00000  Uiso   1.00
Cl800  Cl    0.48178   0.15670   0.97436   0.00000  Uiso   1.00
C801   C     0.83857   0.16388   0.75084   0.00000  Uiso   1.00
C802   C     0.82771   0.33616   0.74899   0.00000  Uiso   1.00
C803   C     0.79121   0.23244   0.54702   0.00000  Uiso   1.00
C804   C     0.84439   0.28965   0.94843   0.00000  Uiso   1.00
C805   C     0.79296   0.22984   0.59693   0.00000  Uiso   1.00
C806   C     0.84964   0.28779   0.89984   0.00000  Uiso   1.00
C807   C     0.87426   0.26990   0.60699   0.00000  Uiso   1.00
C808   C     0.81563   0.21267   0.89669   0.00000  Uiso   1.00
C809   C     0.87658   0.26838   0.55795   0.00000  Uiso   1.00
C810   C     0.82179   0.21007   0.94664   0.00000  Uiso   1.00
C811   C     0.83451   0.24984   0.52681   0.00000  Uiso   1.00
C812   C     0.83466   0.24954   0.97360   0.00000  Uiso   1.00
C813   C     0.73392   0.24933   0.73801   0.00000  Uiso   1.00
C814   C     0.93273   0.25001   0.76212   0.00000  Uiso   1.00
C815   C     0.67971   0.24153   0.73338   0.00000  Uiso   1.00
C816   C     0.98710   0.25653   0.76746   0.00000  Uiso   1.00
C817   C     0.85589   0.04501   0.79648   0.00000  Uiso   1.00
C818   C     0.80617   0.45568   0.70451   0.00000  Uiso   1.00
C819   C     0.85869   0.09224   0.79642   0.00000  Uiso   1.00
C820   C     0.81029   0.40865   0.70337   0.00000  Uiso   1.00
C821   C     0.85079   0.11576   0.75265   0.00000  Uiso   1.00
C822   C     0.81462   0.38432   0.74674   0.00000  Uiso   1.00
C823   C     0.86037   0.09253   0.71192   0.00000  Uiso   1.00
C824   C     0.80010   0.40644   0.78643   0.00000  Uiso   1.00
C825   C     0.86029   0.04538   0.71344   0.00000  Uiso   1.00
C826   C     0.79998   0.45373   0.78645   0.00000  Uiso   1.00
C827   C     0.84387   0.02276   0.75282   0.00000  Uiso   1.00
C828   C     0.81741   0.47720   0.74830   0.00000  Uiso   1.00
N829   N     0.83333   0.24999   0.62624   0.00000  Uiso   1.00
N830   N     0.83333   0.25001   0.87376   0.00000  Uiso   1.00
O831   O     0.83334   0.18454   0.78974   0.00000  Uiso   1.00
O832   O     0.83333   0.31547   0.71026   0.00000  Uiso   1.00
O833   O     0.83334   0.18453   0.71026   0.00000  Uiso   1.00
O834   O     0.83333   0.31547   0.78974   0.00000  Uiso   1.00
O835   O     0.75725   0.25000   0.78044   0.00000  Uiso   1.00
O836   O     0.90942   0.25000   0.71955   0.00000  Uiso   1.00
O837   O     0.75725   0.25000   0.70097   0.00000  Uiso   1.00
O838   O     0.90942   0.25001   0.79903   0.00000  Uiso   1.00
Zn839  Zn    0.83333   0.25001   0.80307   0.00000  Uiso   1.00
Zn840  Zn    0.83333   0.25000   0.69693   0.00000  Uiso   1.00
Cl841  Cl    0.98681   0.20279   0.68867   0.00000  Uiso   1.00
Cl842  Cl    0.68057   0.29264   0.81452   0.00000  Uiso   1.00
Cl843  Cl    0.87959   0.01563   0.84921   0.00000  Uiso   1.00
Cl844  Cl    0.77316   0.48469   0.65498   0.00000  Uiso   1.00
O845   O     0.87038   0.11475   0.83888   0.00000  Uiso   1.00
C846   C     0.92403   0.12692   0.84541   0.00000  Uiso   1.00
H847   H     0.93353   0.15153   0.81773   0.00000  Uiso   1.00
H848   H     0.94827   0.09658   0.84455   0.00000  Uiso   1.00
C849   C     0.93861   0.14890   0.89339   0.00000  Uiso   1.00
H850   H     0.92622   0.12657   0.92164   0.00000  Uiso   1.00
H851   H     0.98148   0.15448   0.90040   0.00000  Uiso   1.00
H852   H     0.91961   0.18197   0.89382   0.00000  Uiso   1.00
O853   O     0.80039   0.38616   0.66074   0.00000  Uiso   1.00
C854   C     0.84132   0.39565   0.63400   0.00000  Uiso   1.00
H855   H     0.87744   0.37987   0.65117   0.00000  Uiso   1.00
H856   H     0.84981   0.43245   0.63002   0.00000  Uiso   1.00
C857   C     0.82609   0.37685   0.58462   0.00000  Uiso   1.00
H858   H     0.79545   0.39784   0.56474   0.00000  Uiso   1.00
H859   H     0.86058   0.37738   0.56562   0.00000  Uiso   1.00
H860   H     0.81044   0.34161   0.58645   0.00000  Uiso   1.00
Cl861  Cl    0.87751   0.12062   0.66081   0.00000  Uiso   1.00
Cl862  Cl    0.77410   0.37659   0.83208   0.00000  Uiso   1.00
Cl863  Cl    0.89193   0.01631   0.67236   0.00000  Uiso   1.00
Cl864  Cl    0.76480   0.48187   0.82557   0.00000  Uiso   1.00
O865   O     0.74764   0.21579   0.51835   0.00000  Uiso   1.00
C866   C     0.71592   0.25222   0.50235   0.00000  Uiso   1.00
H867   H     0.73760   0.27914   0.98492   0.00000  Uiso   1.00
H868   H     0.69995   0.26704   0.53255   0.00000  Uiso   1.00
C869   C     0.67158   0.23497   0.96591   0.00000  Uiso   1.00
H870   H     0.98245   0.20731   0.98135   0.00000  Uiso   1.00
H871   H     0.97847   0.26286   0.95424   0.00000  Uiso   1.00
H872   H     0.68759   0.22230   0.93470   0.00000  Uiso   1.00
O873   O     0.85071   0.33079   0.97128   0.00000  Uiso   1.00
C874   C     0.80447   0.35536   0.96106   0.00000  Uiso   1.00
H875   H     0.78193   0.35145   0.99117   0.00000  Uiso   1.00
H876   H     0.77831   0.34429   0.92854   0.00000  Uiso   1.00
C877   C     0.81858   0.40528   0.95503   0.00000  Uiso   1.00
H878   H     0.84029   0.41010   0.92442   0.00000  Uiso   1.00
H879   H     0.78256   0.42506   0.94861   0.00000  Uiso   1.00
H880   H     0.84323   0.41809   0.98735   0.00000  Uiso   1.00
O881   O     0.75169   0.20965   0.61598   0.00000  Uiso   1.00
C882   C     0.75283   0.16187   0.61247   0.00000  Uiso   1.00
H883   H     0.76017   0.14733   0.64878   0.00000  Uiso   1.00
H884   H     0.78358   0.14930   0.59263   0.00000  Uiso   1.00
C885   C     0.70020   0.14310   0.58901   0.00000  Uiso   1.00
H886   H     0.69243   0.15443   0.55157   0.00000  Uiso   1.00
H887   H     0.70012   0.10553   0.58997   0.00000  Uiso   1.00
H888   H     0.66849   0.15451   0.60779   0.00000  Uiso   1.00
O889   O     0.86618   0.32646   0.87811   0.00000  Uiso   1.00
C890   C     0.92032   0.32541   0.87670   0.00000  Uiso   1.00
H891   H     0.92738   0.33829   0.84139   0.00000  Uiso   1.00
H892   H     0.93672   0.29092   0.88099   0.00000  Uiso   1.00
C893   C     0.94982   0.35694   0.91362   0.00000  Uiso   1.00
H894   H     0.94571   0.34449   0.94973   0.00000  Uiso   1.00
H895   H     0.99184   0.35825   0.90976   0.00000  Uiso   1.00
H896   H     0.93454   0.39160   0.90877   0.00000  Uiso   1.00
Cl897  Cl    0.92390   0.30086   0.64224   0.00000  Uiso   1.00
Cl898  Cl    0.77851   0.16950   0.86484   0.00000  Uiso   1.00
Cl899  Cl    0.93323   0.28954   0.53669   0.00000  Uiso   1.00
Cl900  Cl    0.81511   0.15670   0.97436   0.00000  Uiso   1.00
C901   C     0.17190   0.66388   0.75084   0.00000  Uiso   1.00
C902   C     0.16104   0.83616   0.74899   0.00000  Uiso   1.00
C903   C     0.12454   0.73244   0.54702   0.00000  Uiso   1.00
C904   C     0.17773   0.78965   0.94843   0.00000  Uiso   1.00
C905   C     0.12629   0.72984   0.59693   0.00000  Uiso   1.00
C906   C     0.18297   0.78779   0.89984   0.00000  Uiso   1.00
C907   C     0.20759   0.76990   0.60699   0.00000  Uiso   1.00
C908   C     0.14896   0.71267   0.89669   0.00000  Uiso   1.00
C909   C     0.20991   0.76838   0.55795   0.00000  Uiso   1.00
C910   C     0.15512   0.71007   0.94664   0.00000  Uiso   1.00
C911   C     0.16785   0.74984   0.52681   0.00000  Uiso   1.00
C912   C     0.16799   0.74954   0.97360   0.00000  Uiso   1.00
C913   C     0.06725   0.74933   0.73801   0.00000  Uiso   1.00
C914   C     0.26607   0.75001   0.76212   0.00000  Uiso   1.00
C915   C     0.01304   0.74153   0.73338   0.00000  Uiso   1.00
C916   C     0.32044   0.75653   0.76746   0.00000  Uiso   1.00
C917   C     0.18922   0.54501   0.79648   0.00000  Uiso   1.00
C918   C     0.13950   0.95568   0.70451   0.00000  Uiso   1.00
C919   C     0.19202   0.59224   0.79642   0.00000  Uiso   1.00
C920   C     0.14362   0.90865   0.70337   0.00000  Uiso   1.00
C921   C     0.18413   0.61576   0.75265   0.00000  Uiso   1.00
C922   C     0.14795   0.88432   0.74674   0.00000  Uiso   1.00
C923   C     0.19370   0.59253   0.71192   0.00000  Uiso   1.00
C924   C     0.13343   0.90644   0.78643   0.00000  Uiso   1.00
C925   C     0.19362   0.54538   0.71344   0.00000  Uiso   1.00
C926   C     0.13332   0.95373   0.78645   0.00000  Uiso   1.00
C927   C     0.17721   0.52276   0.75282   0.00000  Uiso   1.00
C928   C     0.15074   0.97720   0.74830   0.00000  Uiso   1.00
N929   N     0.16667   0.74999   0.62624   0.00000  Uiso   1.00
N930   N     0.16667   0.75001   0.87376   0.00000  Uiso   1.00
O931   O     0.16667   0.68454   0.78974   0.00000  Uiso   1.00
O932   O     0.16666   0.81547   0.71026   0.00000  Uiso   1.00
O933   O     0.16667   0.68453   0.71026   0.00000  Uiso   1.00
O934   O     0.16666   0.81547   0.78974   0.00000  Uiso   1.00
O935   O     0.09058   0.75000   0.78044   0.00000  Uiso   1.00
O936   O     0.24275   0.75000   0.71955   0.00000  Uiso   1.00
O937   O     0.09058   0.75000   0.70097   0.00000  Uiso   1.00
O938   O     0.24275   0.75001   0.79903   0.00000  Uiso   1.00
Zn939  Zn    0.16667   0.75001   0.80307   0.00000  Uiso   1.00
Zn940  Zn    0.16667   0.75000   0.69693   0.00000  Uiso   1.00
Cl941  Cl    0.32014   0.70279   0.68867   0.00000  Uiso   1.00
Cl942  Cl    0.01391   0.79264   0.81452   0.00000  Uiso   1.00
Cl943  Cl    0.21293   0.51563   0.84921   0.00000  Uiso   1.00
Cl944  Cl    0.10649   0.98469   0.65498   0.00000  Uiso   1.00
O945   O     0.20371   0.61475   0.83888   0.00000  Uiso   1.00
C946   C     0.25737   0.62692   0.84541   0.00000  Uiso   1.00
H947   H     0.26686   0.65153   0.81773   0.00000  Uiso   1.00
H948   H     0.28160   0.59658   0.84455   0.00000  Uiso   1.00
C949   C     0.27194   0.64890   0.89339   0.00000  Uiso   1.00
H950   H     0.25955   0.62657   0.92164   0.00000  Uiso   1.00
H951   H     0.31481   0.65448   0.90040   0.00000  Uiso   1.00
H952   H     0.25295   0.68197   0.89382   0.00000  Uiso   1.00
O953   O     0.13373   0.88616   0.66074   0.00000  Uiso   1.00
C954   C     0.17466   0.89565   0.63400   0.00000  Uiso   1.00
H955   H     0.21077   0.87987   0.65117   0.00000  Uiso   1.00
H956   H     0.18315   0.93245   0.63002   0.00000  Uiso   1.00
C957   C     0.15942   0.87685   0.58462   0.00000  Uiso   1.00
H958   H     0.12878   0.89784   0.56474   0.00000  Uiso   1.00
H959   H     0.19392   0.87738   0.56562   0.00000  Uiso   1.00
H960   H     0.14378   0.84161   0.58645   0.00000  Uiso   1.00
Cl961  Cl    0.21085   0.62062   0.66081   0.00000  Uiso   1.00
Cl962  Cl    0.10744   0.87659   0.83208   0.00000  Uiso   1.00
Cl963  Cl    0.22527   0.51631   0.67236   0.00000  Uiso   1.00
Cl964  Cl    0.09813   0.98187   0.82557   0.00000  Uiso   1.00
O965   O     0.08098   0.71579   0.51835   0.00000  Uiso   1.00
C966   C     0.04926   0.75222   0.50235   0.00000  Uiso   1.00
H967   H     0.07093   0.77914   0.98492   0.00000  Uiso   1.00
H968   H     0.03328   0.76704   0.53255   0.00000  Uiso   1.00
C969   C     0.00492   0.73497   0.96591   0.00000  Uiso   1.00
H970   H     0.31578   0.70731   0.98135   0.00000  Uiso   1.00
H971   H     0.31180   0.76286   0.95424   0.00000  Uiso   1.00
H972   H     0.02092   0.72230   0.93470   0.00000  Uiso   1.00
O973   O     0.18404   0.83079   0.97128   0.00000  Uiso   1.00
C974   C     0.13780   0.85536   0.96106   0.00000  Uiso   1.00
H975   H     0.11526   0.85145   0.99117   0.00000  Uiso   1.00
H976   H     0.11164   0.84429   0.92854   0.00000  Uiso   1.00
C977   C     0.15191   0.90528   0.95503   0.00000  Uiso   1.00
H978   H     0.17362   0.91010   0.92442   0.00000  Uiso   1.00
H979   H     0.11590   0.92506   0.94861   0.00000  Uiso   1.00
H980   H     0.17657   0.91809   0.98735   0.00000  Uiso   1.00
O981   O     0.08502   0.70965   0.61598   0.00000  Uiso   1.00
C982   C     0.08617   0.66187   0.61247   0.00000  Uiso   1.00
H983   H     0.09350   0.64733   0.64878   0.00000  Uiso   1.00
H984   H     0.11692   0.64930   0.59263   0.00000  Uiso   1.00
C985   C     0.03354   0.64310   0.58901   0.00000  Uiso   1.00
H986   H     0.02576   0.65443   0.55157   0.00000  Uiso   1.00
H987   H     0.03345   0.60553   0.58997   0.00000  Uiso   1.00
H988   H     0.00182   0.65451   0.60779   0.00000  Uiso   1.00
O989   O     0.19952   0.82646   0.87811   0.00000  Uiso   1.00
C990   C     0.25366   0.82541   0.87670   0.00000  Uiso   1.00
H991   H     0.26071   0.83829   0.84139   0.00000  Uiso   1.00
H992   H     0.27005   0.79092   0.88099   0.00000  Uiso   1.00
C993   C     0.28315   0.85694   0.91362   0.00000  Uiso   1.00
H994   H     0.27905   0.84449   0.94973   0.00000  Uiso   1.00
H995   H     0.32517   0.85825   0.90976   0.00000  Uiso   1.00
H996   H     0.26788   0.89160   0.90877   0.00000  Uiso   1.00
Cl997  Cl    0.25723   0.80086   0.64224   0.00000  Uiso   1.00
Cl998  Cl    0.11185   0.66950   0.86484   0.00000  Uiso   1.00
Cl999  Cl    0.26656   0.78954   0.53669   0.00000  Uiso   1.00
Cl1000 Cl    0.14845   0.65670   0.97436   0.00000  Uiso   1.00
C1001  C     0.50523   0.66388   0.75084   0.00000  Uiso   1.00
C1002  C     0.49438   0.83616   0.74899   0.00000  Uiso   1.00
C1003  C     0.45787   0.73244   0.54702   0.00000  Uiso   1.00
C1004  C     0.51106   0.78965   0.94843   0.00000  Uiso   1.00
C1005  C     0.45963   0.72984   0.59693   0.00000  Uiso   1.00
C1006  C     0.51631   0.78779   0.89984   0.00000  Uiso   1.00
C1007  C     0.54092   0.76990   0.60699   0.00000  Uiso   1.00
C1008  C     0.48230   0.71267   0.89669   0.00000  Uiso   1.00
C1009  C     0.54325   0.76838   0.55795   0.00000  Uiso   1.00
C1010  C     0.48845   0.71007   0.94664   0.00000  Uiso   1.00
C1011  C     0.50118   0.74984   0.52681   0.00000  Uiso   1.00
C1012  C     0.50132   0.74954   0.97360   0.00000  Uiso   1.00
C1013  C     0.40059   0.74933   0.73801   0.00000  Uiso   1.00
C1014  C     0.59940   0.75001   0.76212   0.00000  Uiso   1.00
C1015  C     0.34637   0.74153   0.73338   0.00000  Uiso   1.00
C1016  C     0.65377   0.75653   0.76746   0.00000  Uiso   1.00
C1017  C     0.52255   0.54501   0.79648   0.00000  Uiso   1.00
C1018  C     0.47283   0.95568   0.70451   0.00000  Uiso   1.00
C1019  C     0.52535   0.59224   0.79642   0.00000  Uiso   1.00
C1020  C     0.47696   0.90865   0.70337   0.00000  Uiso   1.00
C1021  C     0.51746   0.61576   0.75265   0.00000  Uiso   1.00
C1022  C     0.48128   0.88432   0.74674   0.00000  Uiso   1.00
C1023  C     0.52704   0.59253   0.71192   0.00000  Uiso   1.00
C1024  C     0.46676   0.90644   0.78643   0.00000  Uiso   1.00
C1025  C     0.52696   0.54538   0.71344   0.00000  Uiso   1.00
C1026  C     0.46665   0.95373   0.78645   0.00000  Uiso   1.00
C1027  C     0.51054   0.52276   0.75282   0.00000  Uiso   1.00
C1028  C     0.48408   0.97720   0.74830   0.00000  Uiso   1.00
N1029  N     0.50000   0.74999   0.62624   0.00000  Uiso   1.00
N1030  N     0.50000   0.75001   0.87376   0.00000  Uiso   1.00
O1031  O     0.50000   0.68454   0.78974   0.00000  Uiso   1.00
O1032  O     0.50000   0.81547   0.71026   0.00000  Uiso   1.00
O1033  O     0.50000   0.68453   0.71026   0.00000  Uiso   1.00
O1034  O     0.50000   0.81547   0.78974   0.00000  Uiso   1.00
O1035  O     0.42392   0.75000   0.78044   0.00000  Uiso   1.00
O1036  O     0.57608   0.75000   0.71955   0.00000  Uiso   1.00
O1037  O     0.42392   0.75000   0.70097   0.00000  Uiso   1.00
O1038  O     0.57608   0.75001   0.79903   0.00000  Uiso   1.00
Zn1039 Zn    0.50000   0.75001   0.80307   0.00000  Uiso   1.00
Zn1040 Zn    0.50000   0.75000   0.69693   0.00000  Uiso   1.00
Cl1041 Cl    0.65348   0.70279   0.68867   0.00000  Uiso   1.00
Cl1042 Cl    0.34724   0.79264   0.81452   0.00000  Uiso   1.00
Cl1043 Cl    0.54626   0.51563   0.84921   0.00000  Uiso   1.00
Cl1044 Cl    0.43982   0.98469   0.65498   0.00000  Uiso   1.00
O1045  O     0.53705   0.61475   0.83888   0.00000  Uiso   1.00
C1046  C     0.59070   0.62692   0.84541   0.00000  Uiso   1.00
H1047  H     0.60019   0.65153   0.81773   0.00000  Uiso   1.00
H1048  H     0.61493   0.59658   0.84455   0.00000  Uiso   1.00
C1049  C     0.60527   0.64890   0.89339   0.00000  Uiso   1.00
H1050  H     0.59288   0.62657   0.92164   0.00000  Uiso   1.00
H1051  H     0.64815   0.65448   0.90040   0.00000  Uiso   1.00
H1052  H     0.58628   0.68197   0.89382   0.00000  Uiso   1.00
O1053  O     0.46706   0.88616   0.66074   0.00000  Uiso   1.00
C1054  C     0.50799   0.89565   0.63400   0.00000  Uiso   1.00
H1055  H     0.54411   0.87987   0.65117   0.00000  Uiso   1.00
H1056  H     0.51648   0.93245   0.63002   0.00000  Uiso   1.00
C1057  C     0.49276   0.87685   0.58462   0.00000  Uiso   1.00
H1058  H     0.46212   0.89784   0.56474   0.00000  Uiso   1.00
H1059  H     0.52725   0.87738   0.56562   0.00000  Uiso   1.00
H1060  H     0.47711   0.84161   0.58645   0.00000  Uiso   1.00
Cl1061 Cl    0.54418   0.62062   0.66081   0.00000  Uiso   1.00
Cl1062 Cl    0.44077   0.87659   0.83208   0.00000  Uiso   1.00
Cl1063 Cl    0.55860   0.51631   0.67236   0.00000  Uiso   1.00
Cl1064 Cl    0.43146   0.98187   0.82557   0.00000  Uiso   1.00
O1065  O     0.41431   0.71579   0.51835   0.00000  Uiso   1.00
C1066  C     0.38259   0.75222   0.50235   0.00000  Uiso   1.00
H1067  H     0.40426   0.77914   0.98492   0.00000  Uiso   1.00
H1068  H     0.36662   0.76704   0.53255   0.00000  Uiso   1.00
C1069  C     0.33825   0.73497   0.96591   0.00000  Uiso   1.00
H1070  H     0.64912   0.70731   0.98135   0.00000  Uiso   1.00
H1071  H     0.64513   0.76286   0.95424   0.00000  Uiso   1.00
H1072  H     0.35425   0.72230   0.93470   0.00000  Uiso   1.00
O1073  O     0.51737   0.83079   0.97128   0.00000  Uiso   1.00
C1074  C     0.47114   0.85536   0.96106   0.00000  Uiso   1.00
H1075  H     0.44859   0.85145   0.99117   0.00000  Uiso   1.00
H1076  H     0.44497   0.84429   0.92854   0.00000  Uiso   1.00
C1077  C     0.48524   0.90528   0.95503   0.00000  Uiso   1.00
H1078  H     0.50696   0.91010   0.92442   0.00000  Uiso   1.00
H1079  H     0.44923   0.92506   0.94861   0.00000  Uiso   1.00
H1080  H     0.50990   0.91809   0.98735   0.00000  Uiso   1.00
O1081  O     0.41836   0.70965   0.61598   0.00000  Uiso   1.00
C1082  C     0.41950   0.66187   0.61247   0.00000  Uiso   1.00
H1083  H     0.42684   0.64733   0.64878   0.00000  Uiso   1.00
H1084  H     0.45025   0.64930   0.59263   0.00000  Uiso   1.00
C1085  C     0.36687   0.64310   0.58901   0.00000  Uiso   1.00
H1086  H     0.35910   0.65443   0.55157   0.00000  Uiso   1.00
H1087  H     0.36679   0.60553   0.58997   0.00000  Uiso   1.00
H1088  H     0.33516   0.65451   0.60779   0.00000  Uiso   1.00
O1089  O     0.53285   0.82646   0.87811   0.00000  Uiso   1.00
C1090  C     0.58699   0.82541   0.87670   0.00000  Uiso   1.00
H1091  H     0.59405   0.83829   0.84139   0.00000  Uiso   1.00
H1092  H     0.60338   0.79092   0.88099   0.00000  Uiso   1.00
C1093  C     0.61648   0.85694   0.91362   0.00000  Uiso   1.00
H1094  H     0.61238   0.84449   0.94973   0.00000  Uiso   1.00
H1095  H     0.65850   0.85825   0.90976   0.00000  Uiso   1.00
H1096  H     0.60121   0.89160   0.90877   0.00000  Uiso   1.00
Cl1097 Cl    0.59056   0.80086   0.64224   0.00000  Uiso   1.00
Cl1098 Cl    0.44518   0.66950   0.86484   0.00000  Uiso   1.00
Cl1099 Cl    0.59990   0.78954   0.53669   0.00000  Uiso   1.00
Cl1100 Cl    0.48178   0.65670   0.97436   0.00000  Uiso   1.00
C1101  C     0.83857   0.66388   0.75084   0.00000  Uiso   1.00
C1102  C     0.82771   0.83616   0.74899   0.00000  Uiso   1.00
C1103  C     0.79121   0.73244   0.54702   0.00000  Uiso   1.00
C1104  C     0.84439   0.78965   0.94843   0.00000  Uiso   1.00
C1105  C     0.79296   0.72984   0.59693   0.00000  Uiso   1.00
C1106  C     0.84964   0.78779   0.89984   0.00000  Uiso   1.00
C1107  C     0.87426   0.76990   0.60699   0.00000  Uiso   1.00
C1108  C     0.81563   0.71267   0.89669   0.00000  Uiso   1.00
C1109  C     0.87658   0.76838   0.55795   0.00000  Uiso   1.00
C1110  C     0.82179   0.71007   0.94664   0.00000  Uiso   1.00
C1111  C     0.83451   0.74984   0.52681   0.00000  Uiso   1.00
C1112  C     0.83466   0.74954   0.97360   0.00000  Uiso   1.00
C1113  C     0.73392   0.74933   0.73801   0.00000  Uiso   1.00
C1114  C     0.93273   0.75001   0.76212   0.00000  Uiso   1.00
C1115  C     0.67971   0.74153   0.73338   0.00000  Uiso   1.00
C1116  C     0.98710   0.75653   0.76746   0.00000  Uiso   1.00
C1117  C     0.85589   0.54501   0.79648   0.00000  Uiso   1.00
C1118  C     0.80617   0.95568   0.70451   0.00000  Uiso   1.00
C1119  C     0.85869   0.59224   0.79642   0.00000  Uiso   1.00
C1120  C     0.81029   0.90865   0.70337   0.00000  Uiso   1.00
C1121  C     0.85079   0.61576   0.75265   0.00000  Uiso   1.00
C1122  C     0.81462   0.88432   0.74674   0.00000  Uiso   1.00
C1123  C     0.86037   0.59253   0.71192   0.00000  Uiso   1.00
C1124  C     0.80010   0.90644   0.78643   0.00000  Uiso   1.00
C1125  C     0.86029   0.54538   0.71344   0.00000  Uiso   1.00
C1126  C     0.79998   0.95373   0.78645   0.00000  Uiso   1.00
C1127  C     0.84387   0.52276   0.75282   0.00000  Uiso   1.00
C1128  C     0.81741   0.97720   0.74830   0.00000  Uiso   1.00
N1129  N     0.83333   0.74999   0.62624   0.00000  Uiso   1.00
N1130  N     0.83333   0.75001   0.87376   0.00000  Uiso   1.00
O1131  O     0.83334   0.68454   0.78974   0.00000  Uiso   1.00
O1132  O     0.83333   0.81547   0.71026   0.00000  Uiso   1.00
O1133  O     0.83334   0.68453   0.71026   0.00000  Uiso   1.00
O1134  O     0.83333   0.81547   0.78974   0.00000  Uiso   1.00
O1135  O     0.75725   0.75000   0.78044   0.00000  Uiso   1.00
O1136  O     0.90942   0.75000   0.71955   0.00000  Uiso   1.00
O1137  O     0.75725   0.75000   0.70097   0.00000  Uiso   1.00
O1138  O     0.90942   0.75001   0.79903   0.00000  Uiso   1.00
Zn1139 Zn    0.83333   0.75001   0.80307   0.00000  Uiso   1.00
Zn1140 Zn    0.83333   0.75000   0.69693   0.00000  Uiso   1.00
Cl1141 Cl    0.98681   0.70279   0.68867   0.00000  Uiso   1.00
Cl1142 Cl    0.68057   0.79264   0.81452   0.00000  Uiso   1.00
Cl1143 Cl    0.87959   0.51563   0.84921   0.00000  Uiso   1.00
Cl1144 Cl    0.77316   0.98469   0.65498   0.00000  Uiso   1.00
O1145  O     0.87038   0.61475   0.83888   0.00000  Uiso   1.00
C1146  C     0.92403   0.62692   0.84541   0.00000  Uiso   1.00
H1147  H     0.93353   0.65153   0.81773   0.00000  Uiso   1.00
H1148  H     0.94827   0.59658   0.84455   0.00000  Uiso   1.00
C1149  C     0.93861   0.64890   0.89339   0.00000  Uiso   1.00
H1150  H     0.92622   0.62657   0.92164   0.00000  Uiso   1.00
H1151  H     0.98148   0.65448   0.90040   0.00000  Uiso   1.00
H1152  H     0.91961   0.68197   0.89382   0.00000  Uiso   1.00
O1153  O     0.80039   0.88616   0.66074   0.00000  Uiso   1.00
C1154  C     0.84132   0.89565   0.63400   0.00000  Uiso   1.00
H1155  H     0.87744   0.87987   0.65117   0.00000  Uiso   1.00
H1156  H     0.84981   0.93245   0.63002   0.00000  Uiso   1.00
C1157  C     0.82609   0.87685   0.58462   0.00000  Uiso   1.00
H1158  H     0.79545   0.89784   0.56474   0.00000  Uiso   1.00
H1159  H     0.86058   0.87738   0.56562   0.00000  Uiso   1.00
H1160  H     0.81044   0.84161   0.58645   0.00000  Uiso   1.00
Cl1161 Cl    0.87751   0.62062   0.66081   0.00000  Uiso   1.00
Cl1162 Cl    0.77410   0.87659   0.83208   0.00000  Uiso   1.00
Cl1163 Cl    0.89193   0.51631   0.67236   0.00000  Uiso   1.00
Cl1164 Cl    0.76480   0.98187   0.82557   0.00000  Uiso   1.00
O1165  O     0.74764   0.71579   0.51835   0.00000  Uiso   1.00
C1166  C     0.71592   0.75222   0.50235   0.00000  Uiso   1.00
H1167  H     0.73760   0.77914   0.98492   0.00000  Uiso   1.00
H1168  H     0.69995   0.76704   0.53255   0.00000  Uiso   1.00
C1169  C     0.67158   0.73497   0.96591   0.00000  Uiso   1.00
H1170  H     0.98245   0.70731   0.98135   0.00000  Uiso   1.00
H1171  H     0.97847   0.76286   0.95424   0.00000  Uiso   1.00
H1172  H     0.68759   0.72230   0.93470   0.00000  Uiso   1.00
O1173  O     0.85071   0.83079   0.97128   0.00000  Uiso   1.00
C1174  C     0.80447   0.85536   0.96106   0.00000  Uiso   1.00
H1175  H     0.78193   0.85145   0.99117   0.00000  Uiso   1.00
H1176  H     0.77831   0.84429   0.92854   0.00000  Uiso   1.00
C1177  C     0.81858   0.90528   0.95503   0.00000  Uiso   1.00
H1178  H     0.84029   0.91010   0.92442   0.00000  Uiso   1.00
H1179  H     0.78256   0.92506   0.94861   0.00000  Uiso   1.00
H1180  H     0.84323   0.91809   0.98735   0.00000  Uiso   1.00
O1181  O     0.75169   0.70965   0.61598   0.00000  Uiso   1.00
C1182  C     0.75283   0.66187   0.61247   0.00000  Uiso   1.00
H1183  H     0.76017   0.64733   0.64878   0.00000  Uiso   1.00
H1184  H     0.78358   0.64930   0.59263   0.00000  Uiso   1.00
C1185  C     0.70020   0.64310   0.58901   0.00000  Uiso   1.00
H1186  H     0.69243   0.65443   0.55157   0.00000  Uiso   1.00
H1187  H     0.70012   0.60553   0.58997   0.00000  Uiso   1.00
H1188  H     0.66849   0.65451   0.60779   0.00000  Uiso   1.00
O1189  O     0.86618   0.82646   0.87811   0.00000  Uiso   1.00
C1190  C     0.92032   0.82541   0.87670   0.00000  Uiso   1.00
H1191  H     0.92738   0.83829   0.84139   0.00000  Uiso   1.00
H1192  H     0.93672   0.79092   0.88099   0.00000  Uiso   1.00
C1193  C     0.94982   0.85694   0.91362   0.00000  Uiso   1.00
H1194  H     0.94571   0.84449   0.94973   0.00000  Uiso   1.00
H1195  H     0.99184   0.85825   0.90976   0.00000  Uiso   1.00
H1196  H     0.93454   0.89160   0.90877   0.00000  Uiso   1.00
Cl1197 Cl    0.92390   0.80086   0.64224   0.00000  Uiso   1.00
Cl1198 Cl    0.77851   0.66950   0.86484   0.00000  Uiso   1.00
Cl1199 Cl    0.93323   0.78954   0.53669   0.00000  Uiso   1.00
Cl1200 Cl    0.81511   0.65670   0.97436   0.00000  Uiso   1.00
loop_
_geom_bond_atom_site_label_1
_geom_bond_atom_site_label_2
_geom_bond_distance
_geom_bond_site_symmetry_2
_ccdc_geom_bond_type
C1     C21     1.466   .     S
C1     O33     1.294   .     A
C1     O31     1.301   .     A
C2     O32     1.300   .     A
C2     C22     1.473   .     S
C2     O34     1.298   .     A
C3     O65     1.380   .     S
C3     C5      1.421   .     A
C3     C11     1.413   .     A
C4     C12     1.411   .     A
C4     C6      1.415   .     A
C4     O73     1.383   .     S
C5     N29     1.371   .     A
C5     O81     1.383   .     S
C6     N30     1.373   .     A
C6     O89     1.378   .     S
C7     N29     1.375   .     A
C7     C9      1.412   .     A
C7     Cl97    1.759   .     S
C8     Cl98    1.758   .     S
C8     C10     1.414   .     A
C8     N30     1.374   .     A
C9     C11     1.408   .     A
C9     Cl99    1.761   .     S
C10    Cl100   1.769   .     S
C10    C12     1.412   .     A
C11    C612    1.520   1_554 S
C12    C611    1.520   .     S
C13    O35     1.276   .     A
C13    C15     1.406   .     S
C13    O37     1.291   .     A
C14    O36     1.279   .     A
C14    O38     1.288   .     A
C14    C16     1.405   .     S
C15    C216    1.347   1_455 S
C15    Cl241   1.775   1_455 S
C16    C115    1.347   .     S
C16    Cl142   1.777   .     S
C17    C27     1.409   .     A
C17    Cl43    1.770   .     S
C17    C19     1.396   .     A
C18    C28     1.401   .     A
C18    Cl44    1.771   .     S
C18    C20     1.399   .     A
C19    C21     1.414   .     A
C19    O45     1.383   .     S
C20    C22     1.415   .     A
C20    O53     1.384   .     S
C21    C23     1.415   .     A
C22    C24     1.419   .     A
C23    Cl61    1.772   .     S
C23    C25     1.394   .     A
C24    C26     1.398   .     A
C24    Cl62    1.763   .     S
C25    Cl63    1.772   .     S
C25    C27     1.410   .     A
C26    Cl64    1.772   .     S
C26    C28     1.403   .     A
C27    C328    1.491   1_545 S
C28    C327    1.491   .     S
N29    Zn40    2.019   .     S
N30    Zn39    2.019   .     S
O31    Zn39    1.978   .     S
O32    Zn40    1.978   .     S
O33    Zn40    1.967   .     S
O34    Zn39    1.967   .     S
O35    Zn39    1.989   .     S
O36    Zn40    1.989   .     S
O37    Zn40    1.994   .     S
O38    Zn39    1.994   .     S
Cl41   C115    1.775   .     S
Cl42   C216    1.777   1_455 S
O45    C46     1.414   .     S
C46    C49     1.519   .     S
C46    H48     1.115   .     S
C46    H47     1.114   .     S
C49    H51     1.110   .     S
C49    H52     1.110   .     S
C49    H50     1.111   .     S
O53    C54     1.412   .     S
C54    H55     1.108   .     S
C54    H56     1.110   .     S
C54    C57     1.518   .     S
C57    H59     1.110   .     S
C57    H60     1.109   .     S
C57    H58     1.111   .     S
O65    C66     1.408   .     S
C66    H68     1.110   .     S
C66    H667    1.111   1_554 S
C66    C669    1.518   1_554 S
H67    C666    1.111   .     S
C69    H72     1.110   .     S
C69    C666    1.518   .     S
C69    H270    1.111   1_455 S
C69    H271    1.107   1_455 S
H70    C169    1.111   .     S
H71    C169    1.107   .     S
O73    C74     1.416   .     S
C74    H76     1.116   .     S
C74    C77     1.522   .     S
C74    H75     1.109   .     S
C77    H79     1.110   .     S
C77    H78     1.110   .     S
C77    H80     1.110   .     S
O81    C82     1.419   .     S
C82    H83     1.110   .     S
C82    H84     1.118   .     S
C82    C85     1.525   .     S
C85    H86     1.108   .     S
C85    H87     1.111   .     S
C85    H88     1.108   .     S
O89    C90     1.413   .     S
C90    H91     1.110   .     S
C90    H92     1.116   .     S
C90    C93     1.523   .     S
C93    H94     1.108   .     S
C93    H95     1.111   .     S
C93    H96     1.110   .     S
C101   C121    1.466   .     S
C101   O133    1.294   .     A
C101   O131    1.301   .     A
C102   O132    1.300   .     A
C102   C122    1.473   .     S
C102   O134    1.298   .     A
C103   O165    1.380   .     S
C103   C105    1.421   .     A
C103   C111    1.413   .     A
C104   C112    1.411   .     A
C104   C106    1.415   .     A
C104   O173    1.383   .     S
C105   N129    1.371   .     A
C105   O181    1.383   .     S
C106   N130    1.373   .     A
C106   O189    1.378   .     S
C107   N129    1.375   .     A
C107   C109    1.412   .     A
C107   Cl197   1.759   .     S
C108   Cl198   1.758   .     S
C108   C110    1.414   .     A
C108   N130    1.374   .     A
C109   C111    1.408   .     A
C109   Cl199   1.761   .     S
C110   Cl200   1.769   .     S
C110   C112    1.412   .     A
C111   C712    1.520   1_554 S
C112   C711    1.520   .     S
C113   O135    1.276   .     A
C113   C115    1.406   .     S
C113   O137    1.291   .     A
C114   O136    1.279   .     A
C114   O138    1.288   .     A
C114   C116    1.405   .     S
C116   C215    1.347   .     S
C116   Cl242   1.777   .     S
C117   C127    1.409   .     A
C117   Cl143   1.770   .     S
C117   C119    1.396   .     A
C118   C128    1.401   .     A
C118   Cl144   1.771   .     S
C118   C120    1.399   .     A
C119   C121    1.414   .     A
C119   O145    1.383   .     S
C120   C122    1.415   .     A
C120   O153    1.384   .     S
C121   C123    1.415   .     A
C122   C124    1.419   .     A
C123   Cl161   1.772   .     S
C123   C125    1.394   .     A
C124   C126    1.398   .     A
C124   Cl162   1.763   .     S
C125   Cl163   1.772   .     S
C125   C127    1.410   .     A
C126   Cl164   1.772   .     S
C126   C128    1.403   .     A
C127   C428    1.491   1_545 S
C128   C427    1.491   .     S
N129   Zn140   2.019   .     S
N130   Zn139   2.019   .     S
O131   Zn139   1.978   .     S
O132   Zn140   1.978   .     S
O133   Zn140   1.967   .     S
O134   Zn139   1.967   .     S
O135   Zn139   1.989   .     S
O136   Zn140   1.989   .     S
O137   Zn140   1.994   .     S
O138   Zn139   1.994   .     S
Cl141  C215    1.775   .     S
O145   C146    1.414   .     S
C146   C149    1.519   .     S
C146   H148    1.115   .     S
C146   H147    1.114   .     S
C149   H151    1.110   .     S
C149   H152    1.110   .     S
C149   H150    1.111   .     S
O153   C154    1.412   .     S
C154   H155    1.108   .     S
C154   H156    1.110   .     S
C154   C157    1.518   .     S
C157   H159    1.110   .     S
C157   H160    1.109   .     S
C157   H158    1.111   .     S
O165   C166    1.408   .     S
C166   H168    1.110   .     S
C166   H767    1.111   1_554 S
C166   C769    1.518   1_554 S
H167   C766    1.111   .     S
C169   H172    1.110   .     S
C169   C766    1.518   .     S
H170   C269    1.111   .     S
H171   C269    1.107   .     S
O173   C174    1.416   .     S
C174   H176    1.116   .     S
C174   C177    1.522   .     S
C174   H175    1.109   .     S
C177   H179    1.110   .     S
C177   H178    1.110   .     S
C177   H180    1.110   .     S
O181   C182    1.419   .     S
C182   H183    1.110   .     S
C182   H184    1.118   .     S
C182   C185    1.525   .     S
C185   H186    1.108   .     S
C185   H187    1.111   .     S
C185   H188    1.108   .     S
O189   C190    1.413   .     S
C190   H191    1.110   .     S
C190   H192    1.116   .     S
C190   C193    1.523   .     S
C193   H194    1.108   .     S
C193   H195    1.111   .     S
C193   H196    1.110   .     S
C201   C221    1.466   .     S
C201   O233    1.294   .     A
C201   O231    1.301   .     A
C202   O232    1.300   .     A
C202   C222    1.473   .     S
C202   O234    1.298   .     A
C203   O265    1.380   .     S
C203   C205    1.421   .     A
C203   C211    1.413   .     A
C204   C212    1.411   .     A
C204   C206    1.415   .     A
C204   O273    1.383   .     S
C205   N229    1.371   .     A
C205   O281    1.383   .     S
C206   N230    1.373   .     A
C206   O289    1.378   .     S
C207   N229    1.375   .     A
C207   C209    1.412   .     A
C207   Cl297   1.759   .     S
C208   Cl298   1.758   .     S
C208   C210    1.414   .     A
C208   N230    1.374   .     A
C209   C211    1.408   .     A
C209   Cl299   1.761   .     S
C210   Cl300   1.769   .     S
C210   C212    1.412   .     A
C211   C812    1.520   1_554 S
C212   C811    1.520   .     S
C213   O235    1.276   .     A
C213   C215    1.406   .     S
C213   O237    1.291   .     A
C214   O236    1.279   .     A
C214   O238    1.288   .     A
C214   C216    1.405   .     S
C216   C15     1.347   1_655 S
C216   Cl42    1.777   1_655 S
C217   C227    1.409   .     A
C217   Cl243   1.770   .     S
C217   C219    1.396   .     A
C218   C228    1.401   .     A
C218   Cl244   1.771   .     S
C218   C220    1.399   .     A
C219   C221    1.414   .     A
C219   O245    1.383   .     S
C220   C222    1.415   .     A
C220   O253    1.384   .     S
C221   C223    1.415   .     A
C222   C224    1.419   .     A
C223   Cl261   1.772   .     S
C223   C225    1.394   .     A
C224   C226    1.398   .     A
C224   Cl262   1.763   .     S
C225   Cl263   1.772   .     S
C225   C227    1.410   .     A
C226   Cl264   1.772   .     S
C226   C228    1.403   .     A
C227   C528    1.491   1_545 S
C228   C527    1.491   .     S
N229   Zn240   2.019   .     S
N230   Zn239   2.019   .     S
O231   Zn239   1.978   .     S
O232   Zn240   1.978   .     S
O233   Zn240   1.967   .     S
O234   Zn239   1.967   .     S
O235   Zn239   1.989   .     S
O236   Zn240   1.989   .     S
O237   Zn240   1.994   .     S
O238   Zn239   1.994   .     S
Cl241  C15     1.775   1_655 S
O245   C246    1.414   .     S
C246   C249    1.519   .     S
C246   H248    1.115   .     S
C246   H247    1.114   .     S
C249   H251    1.110   .     S
C249   H252    1.110   .     S
C249   H250    1.111   .     S
O253   C254    1.412   .     S
C254   H255    1.108   .     S
C254   H256    1.110   .     S
C254   C257    1.518   .     S
C257   H259    1.110   .     S
C257   H260    1.109   .     S
C257   H258    1.111   .     S
O265   C266    1.408   .     S
C266   H268    1.110   .     S
C266   H867    1.111   1_554 S
C266   C869    1.518   1_554 S
H267   C866    1.111   .     S
C269   H272    1.110   .     S
C269   C866    1.518   .     S
H270   C69     1.111   1_655 S
H271   C69     1.107   1_655 S
O273   C274    1.416   .     S
C274   H276    1.116   .     S
C274   C277    1.522   .     S
C274   H275    1.109   .     S
C277   H279    1.110   .     S
C277   H278    1.110   .     S
C277   H280    1.110   .     S
O281   C282    1.419   .     S
C282   H283    1.110   .     S
C282   H284    1.118   .     S
C282   C285    1.525   .     S
C285   H286    1.108   .     S
C285   H287    1.111   .     S
C285   H288    1.108   .     S
O289   C290    1.413   .     S
C290   H291    1.110   .     S
C290   H292    1.116   .     S
C290   C293    1.523   .     S
C293   H294    1.108   .     S
C293   H295    1.111   .     S
C293   H296    1.110   .     S
C301   C321    1.466   .     S
C301   O333    1.294   .     A
C301   O331    1.301   .     A
C302   O332    1.300   .     A
C302   C322    1.473   .     S
C302   O334    1.298   .     A
C303   O365    1.380   .     S
C303   C305    1.421   .     A
C303   C311    1.413   .     A
C304   C312    1.411   .     A
C304   C306    1.415   .     A
C304   O373    1.383   .     S
C305   N329    1.371   .     A
C305   O381    1.383   .     S
C306   N330    1.373   .     A
C306   O389    1.378   .     S
C307   N329    1.375   .     A
C307   C309    1.412   .     A
C307   Cl397   1.759   .     S
C308   Cl398   1.758   .     S
C308   C310    1.414   .     A
C308   N330    1.374   .     A
C309   C311    1.408   .     A
C309   Cl399   1.761   .     S
C310   Cl400   1.769   .     S
C310   C312    1.412   .     A
C311   C912    1.520   1_554 S
C312   C911    1.520   .     S
C313   O335    1.276   .     A
C313   C315    1.406   .     S
C313   O337    1.291   .     A
C314   O336    1.279   .     A
C314   O338    1.288   .     A
C314   C316    1.405   .     S
C315   C516    1.347   1_455 S
C315   Cl541   1.775   1_455 S
C316   C415    1.347   .     S
C316   Cl442   1.777   .     S
C317   C327    1.409   .     A
C317   Cl343   1.770   .     S
C317   C319    1.396   .     A
C318   C328    1.401   .     A
C318   Cl344   1.771   .     S
C318   C320    1.399   .     A
C319   C321    1.414   .     A
C319   O345    1.383   .     S
C320   C322    1.415   .     A
C320   O353    1.384   .     S
C321   C323    1.415   .     A
C322   C324    1.419   .     A
C323   Cl361   1.772   .     S
C323   C325    1.394   .     A
C324   C326    1.398   .     A
C324   Cl362   1.763   .     S
C325   Cl363   1.772   .     S
C325   C327    1.410   .     A
C326   Cl364   1.772   .     S
C326   C328    1.403   .     A
C328   C27     1.491   1_565 S
N329   Zn340   2.019   .     S
N330   Zn339   2.019   .     S
O331   Zn339   1.978   .     S
O332   Zn340   1.978   .     S
O333   Zn340   1.967   .     S
O334   Zn339   1.967   .     S
O335   Zn339   1.989   .     S
O336   Zn340   1.989   .     S
O337   Zn340   1.994   .     S
O338   Zn339   1.994   .     S
Cl341  C415    1.775   .     S
Cl342  C516    1.777   1_455 S
O345   C346    1.414   .     S
C346   C349    1.519   .     S
C346   H348    1.115   .     S
C346   H347    1.114   .     S
C349   H351    1.110   .     S
C349   H352    1.110   .     S
C349   H350    1.111   .     S
O353   C354    1.412   .     S
C354   H355    1.108   .     S
C354   H356    1.110   .     S
C354   C357    1.518   .     S
C357   H359    1.110   .     S
C357   H360    1.109   .     S
C357   H358    1.111   .     S
O365   C366    1.408   .     S
C366   H368    1.110   .     S
C366   H967    1.111   1_554 S
C366   C969    1.518   1_554 S
H367   C966    1.111   .     S
C369   H372    1.110   .     S
C369   C966    1.518   .     S
C369   H570    1.111   1_455 S
C369   H571    1.107   1_455 S
H370   C469    1.111   .     S
H371   C469    1.107   .     S
O373   C374    1.416   .     S
C374   H376    1.116   .     S
C374   C377    1.522   .     S
C374   H375    1.109   .     S
C377   H379    1.110   .     S
C377   H378    1.110   .     S
C377   H380    1.110   .     S
O381   C382    1.419   .     S
C382   H383    1.110   .     S
C382   H384    1.118   .     S
C382   C385    1.525   .     S
C385   H386    1.108   .     S
C385   H387    1.111   .     S
C385   H388    1.108   .     S
O389   C390    1.413   .     S
C390   H391    1.110   .     S
C390   H392    1.116   .     S
C390   C393    1.523   .     S
C393   H394    1.108   .     S
C393   H395    1.111   .     S
C393   H396    1.110   .     S
C401   C421    1.466   .     S
C401   O433    1.294   .     A
C401   O431    1.301   .     A
C402   O432    1.300   .     A
C402   C422    1.473   .     S
C402   O434    1.298   .     A
C403   O465    1.380   .     S
C403   C405    1.421   .     A
C403   C411    1.413   .     A
C404   C412    1.411   .     A
C404   C406    1.415   .     A
C404   O473    1.383   .     S
C405   N429    1.371   .     A
C405   O481    1.383   .     S
C406   N430    1.373   .     A
C406   O489    1.378   .     S
C407   N429    1.375   .     A
C407   C409    1.412   .     A
C407   Cl497   1.759   .     S
C408   Cl498   1.758   .     S
C408   C410    1.414   .     A
C408   N430    1.374   .     A
C409   C411    1.408   .     A
C409   Cl499   1.761   .     S
C410   Cl500   1.769   .     S
C410   C412    1.412   .     A
C411   C1012   1.520   1_554 S
C412   C1011   1.520   .     S
C413   O435    1.276   .     A
C413   C415    1.406   .     S
C413   O437    1.291   .     A
C414   O436    1.279   .     A
C414   O438    1.288   .     A
C414   C416    1.405   .     S
C416   C515    1.347   .     S
C416   Cl542   1.777   .     S
C417   C427    1.409   .     A
C417   Cl443   1.770   .     S
C417   C419    1.396   .     A
C418   C428    1.401   .     A
C418   Cl444   1.771   .     S
C418   C420    1.399   .     A
C419   C421    1.414   .     A
C419   O445    1.383   .     S
C420   C422    1.415   .     A
C420   O453    1.384   .     S
C421   C423    1.415   .     A
C422   C424    1.419   .     A
C423   Cl461   1.772   .     S
C423   C425    1.394   .     A
C424   C426    1.398   .     A
C424   Cl462   1.763   .     S
C425   Cl463   1.772   .     S
C425   C427    1.410   .     A
C426   Cl464   1.772   .     S
C426   C428    1.403   .     A
C428   C127    1.491   1_565 S
N429   Zn440   2.019   .     S
N430   Zn439   2.019   .     S
O431   Zn439   1.978   .     S
O432   Zn440   1.978   .     S
O433   Zn440   1.967   .     S
O434   Zn439   1.967   .     S
O435   Zn439   1.989   .     S
O436   Zn440   1.989   .     S
O437   Zn440   1.994   .     S
O438   Zn439   1.994   .     S
Cl441  C515    1.775   .     S
O445   C446    1.414   .     S
C446   C449    1.519   .     S
C446   H448    1.115   .     S
C446   H447    1.114   .     S
C449   H451    1.110   .     S
C449   H452    1.110   .     S
C449   H450    1.111   .     S
O453   C454    1.412   .     S
C454   H455    1.108   .     S
C454   H456    1.110   .     S
C454   C457    1.518   .     S
C457   H459    1.110   .     S
C457   H460    1.109   .     S
C457   H458    1.111   .     S
O465   C466    1.408   .     S
C466   H468    1.110   .     S
C466   H1067   1.111   1_554 S
C466   C1069   1.518   1_554 S
H467   C1066   1.111   .     S
C469   H472    1.110   .     S
C469   C1066   1.518   .     S
H470   C569    1.111   .     S
H471   C569    1.107   .     S
O473   C474    1.416   .     S
C474   H476    1.116   .     S
C474   C477    1.522   .     S
C474   H475    1.109   .     S
C477   H479    1.110   .     S
C477   H478    1.110   .     S
C477   H480    1.110   .     S
O481   C482    1.419   .     S
C482   H483    1.110   .     S
C482   H484    1.118   .     S
C482   C485    1.525   .     S
C485   H486    1.108   .     S
C485   H487    1.111   .     S
C485   H488    1.108   .     S
O489   C490    1.413   .     S
C490   H491    1.110   .     S
C490   H492    1.116   .     S
C490   C493    1.523   .     S
C493   H494    1.108   .     S
C493   H495    1.111   .     S
C493   H496    1.110   .     S
C501   C521    1.466   .     S
C501   O533    1.294   .     A
C501   O531    1.301   .     A
C502   O532    1.300   .     A
C502   C522    1.473   .     S
C502   O534    1.298   .     A
C503   O565    1.380   .     S
C503   C505    1.421   .     A
C503   C511    1.413   .     A
C504   C512    1.411   .     A
C504   C506    1.415   .     A
C504   O573    1.383   .     S
C505   N529    1.371   .     A
C505   O581    1.383   .     S
C506   N530    1.373   .     A
C506   O589    1.378   .     S
C507   N529    1.375   .     A
C507   C509    1.412   .     A
C507   Cl597   1.759   .     S
C508   Cl598   1.758   .     S
C508   C510    1.414   .     A
C508   N530    1.374   .     A
C509   C511    1.408   .     A
C509   Cl599   1.761   .     S
C510   Cl600   1.769   .     S
C510   C512    1.412   .     A
C511   C1112   1.520   1_554 S
C512   C1111   1.520   .     S
C513   O535    1.276   .     A
C513   C515    1.406   .     S
C513   O537    1.291   .     A
C514   O536    1.279   .     A
C514   O538    1.288   .     A
C514   C516    1.405   .     S
C516   C315    1.347   1_655 S
C516   Cl342   1.777   1_655 S
C517   C527    1.409   .     A
C517   Cl543   1.770   .     S
C517   C519    1.396   .     A
C518   C528    1.401   .     A
C518   Cl544   1.771   .     S
C518   C520    1.399   .     A
C519   C521    1.414   .     A
C519   O545    1.383   .     S
C520   C522    1.415   .     A
C520   O553    1.384   .     S
C521   C523    1.415   .     A
C522   C524    1.419   .     A
C523   Cl561   1.772   .     S
C523   C525    1.394   .     A
C524   C526    1.398   .     A
C524   Cl562   1.763   .     S
C525   Cl563   1.772   .     S
C525   C527    1.410   .     A
C526   Cl564   1.772   .     S
C526   C528    1.403   .     A
C528   C227    1.491   1_565 S
N529   Zn540   2.019   .     S
N530   Zn539   2.019   .     S
O531   Zn539   1.978   .     S
O532   Zn540   1.978   .     S
O533   Zn540   1.967   .     S
O534   Zn539   1.967   .     S
O535   Zn539   1.989   .     S
O536   Zn540   1.989   .     S
O537   Zn540   1.994   .     S
O538   Zn539   1.994   .     S
Cl541  C315    1.775   1_655 S
O545   C546    1.414   .     S
C546   C549    1.519   .     S
C546   H548    1.115   .     S
C546   H547    1.114   .     S
C549   H551    1.110   .     S
C549   H552    1.110   .     S
C549   H550    1.111   .     S
O553   C554    1.412   .     S
C554   H555    1.108   .     S
C554   H556    1.110   .     S
C554   C557    1.518   .     S
C557   H559    1.110   .     S
C557   H560    1.109   .     S
C557   H558    1.111   .     S
O565   C566    1.408   .     S
C566   H568    1.110   .     S
C566   H1167   1.111   1_554 S
C566   C1169   1.518   1_554 S
H567   C1166   1.111   .     S
C569   H572    1.110   .     S
C569   C1166   1.518   .     S
H570   C369    1.111   1_655 S
H571   C369    1.107   1_655 S
O573   C574    1.416   .     S
C574   H576    1.116   .     S
C574   C577    1.522   .     S
C574   H575    1.109   .     S
C577   H579    1.110   .     S
C577   H578    1.110   .     S
C577   H580    1.110   .     S
O581   C582    1.419   .     S
C582   H583    1.110   .     S
C582   H584    1.118   .     S
C582   C585    1.525   .     S
C585   H586    1.108   .     S
C585   H587    1.111   .     S
C585   H588    1.108   .     S
O589   C590    1.413   .     S
C590   H591    1.110   .     S
C590   H592    1.116   .     S
C590   C593    1.523   .     S
C593   H594    1.108   .     S
C593   H595    1.111   .     S
C593   H596    1.110   .     S
C601   C621    1.466   .     S
C601   O633    1.294   .     A
C601   O631    1.301   .     A
C602   O632    1.300   .     A
C602   C622    1.473   .     S
C602   O634    1.298   .     A
C603   O665    1.380   .     S
C603   C605    1.421   .     A
C603   C611    1.413   .     A
C604   C612    1.411   .     A
C604   C606    1.415   .     A
C604   O673    1.383   .     S
C605   N629    1.371   .     A
C605   O681    1.383   .     S
C606   N630    1.373   .     A
C606   O689    1.378   .     S
C607   N629    1.375   .     A
C607   C609    1.412   .     A
C607   Cl697   1.759   .     S
C608   Cl698   1.758   .     S
C608   C610    1.414   .     A
C608   N630    1.374   .     A
C609   C611    1.408   .     A
C609   Cl699   1.761   .     S
C610   Cl700   1.769   .     S
C610   C612    1.412   .     A
C612   C11     1.520   1_556 S
C613   O635    1.276   .     A
C613   C615    1.406   .     S
C613   O637    1.291   .     A
C614   O636    1.279   .     A
C614   O638    1.288   .     A
C614   C616    1.405   .     S
C615   C816    1.347   1_455 S
C615   Cl841   1.775   1_455 S
C616   C715    1.347   .     S
C616   Cl742   1.777   .     S
C617   C627    1.409   .     A
C617   Cl643   1.770   .     S
C617   C619    1.396   .     A
C618   C628    1.401   .     A
C618   Cl644   1.771   .     S
C618   C620    1.399   .     A
C619   C621    1.414   .     A
C619   O645    1.383   .     S
C620   C622    1.415   .     A
C620   O653    1.384   .     S
C621   C623    1.415   .     A
C622   C624    1.419   .     A
C623   Cl661   1.772   .     S
C623   C625    1.394   .     A
C624   C626    1.398   .     A
C624   Cl662   1.763   .     S
C625   Cl663   1.772   .     S
C625   C627    1.410   .     A
C626   Cl664   1.772   .     S
C626   C628    1.403   .     A
C627   C928    1.491   1_545 S
C628   C927    1.491   .     S
N629   Zn640   2.019   .     S
N630   Zn639   2.019   .     S
O631   Zn639   1.978   .     S
O632   Zn640   1.978   .     S
O633   Zn640   1.967   .     S
O634   Zn639   1.967   .     S
O635   Zn639   1.989   .     S
O636   Zn640   1.989   .     S
O637   Zn640   1.994   .     S
O638   Zn639   1.994   .     S
Cl641  C715    1.775   .     S
Cl642  C816    1.777   1_455 S
O645   C646    1.414   .     S
C646   C649    1.519   .     S
C646   H648    1.115   .     S
C646   H647    1.114   .     S
C649   H651    1.110   .     S
C649   H652    1.110   .     S
C649   H650    1.111   .     S
O653   C654    1.412   .     S
C654   H655    1.108   .     S
C654   H656    1.110   .     S
C654   C657    1.518   .     S
C657   H659    1.110   .     S
C657   H660    1.109   .     S
C657   H658    1.111   .     S
O665   C666    1.408   .     S
C666   H668    1.110   .     S
H667   C66     1.111   1_556 S
C669   H672    1.110   .     S
C669   C66     1.518   1_556 S
C669   H870    1.111   1_455 S
C669   H871    1.107   1_455 S
H670   C769    1.111   .     S
H671   C769    1.107   .     S
O673   C674    1.416   .     S
C674   H676    1.116   .     S
C674   C677    1.522   .     S
C674   H675    1.109   .     S
C677   H679    1.110   .     S
C677   H678    1.110   .     S
C677   H680    1.110   .     S
O681   C682    1.419   .     S
C682   H683    1.110   .     S
C682   H684    1.118   .     S
C682   C685    1.525   .     S
C685   H686    1.108   .     S
C685   H687    1.111   .     S
C685   H688    1.108   .     S
O689   C690    1.413   .     S
C690   H691    1.110   .     S
C690   H692    1.116   .     S
C690   C693    1.523   .     S
C693   H694    1.108   .     S
C693   H695    1.111   .     S
C693   H696    1.110   .     S
C701   C721    1.466   .     S
C701   O733    1.294   .     A
C701   O731    1.301   .     A
C702   O732    1.300   .     A
C702   C722    1.473   .     S
C702   O734    1.298   .     A
C703   O765    1.380   .     S
C703   C705    1.421   .     A
C703   C711    1.413   .     A
C704   C712    1.411   .     A
C704   C706    1.415   .     A
C704   O773    1.383   .     S
C705   N729    1.371   .     A
C705   O781    1.383   .     S
C706   N730    1.373   .     A
C706   O789    1.378   .     S
C707   N729    1.375   .     A
C707   C709    1.412   .     A
C707   Cl797   1.759   .     S
C708   Cl798   1.758   .     S
C708   C710    1.414   .     A
C708   N730    1.374   .     A
C709   C711    1.408   .     A
C709   Cl799   1.761   .     S
C710   Cl800   1.769   .     S
C710   C712    1.412   .     A
C712   C111    1.520   1_556 S
C713   O735    1.276   .     A
C713   C715    1.406   .     S
C713   O737    1.291   .     A
C714   O736    1.279   .     A
C714   O738    1.288   .     A
C714   C716    1.405   .     S
C716   C815    1.347   .     S
C716   Cl842   1.777   .     S
C717   C727    1.409   .     A
C717   Cl743   1.770   .     S
C717   C719    1.396   .     A
C718   C728    1.401   .     A
C718   Cl744   1.771   .     S
C718   C720    1.399   .     A
C719   C721    1.414   .     A
C719   O745    1.383   .     S
C720   C722    1.415   .     A
C720   O753    1.384   .     S
C721   C723    1.415   .     A
C722   C724    1.419   .     A
C723   Cl761   1.772   .     S
C723   C725    1.394   .     A
C724   C726    1.398   .     A
C724   Cl762   1.763   .     S
C725   Cl763   1.772   .     S
C725   C727    1.410   .     A
C726   Cl764   1.772   .     S
C726   C728    1.403   .     A
C727   C1028   1.491   1_545 S
C728   C1027   1.491   .     S
N729   Zn740   2.019   .     S
N730   Zn739   2.019   .     S
O731   Zn739   1.978   .     S
O732   Zn740   1.978   .     S
O733   Zn740   1.967   .     S
O734   Zn739   1.967   .     S
O735   Zn739   1.989   .     S
O736   Zn740   1.989   .     S
O737   Zn740   1.994   .     S
O738   Zn739   1.994   .     S
Cl741  C815    1.775   .     S
O745   C746    1.414   .     S
C746   C749    1.519   .     S
C746   H748    1.115   .     S
C746   H747    1.114   .     S
C749   H751    1.110   .     S
C749   H752    1.110   .     S
C749   H750    1.111   .     S
O753   C754    1.412   .     S
C754   H755    1.108   .     S
C754   H756    1.110   .     S
C754   C757    1.518   .     S
C757   H759    1.110   .     S
C757   H760    1.109   .     S
C757   H758    1.111   .     S
O765   C766    1.408   .     S
C766   H768    1.110   .     S
H767   C166    1.111   1_556 S
C769   H772    1.110   .     S
C769   C166    1.518   1_556 S
H770   C869    1.111   .     S
H771   C869    1.107   .     S
O773   C774    1.416   .     S
C774   H776    1.116   .     S
C774   C777    1.522   .     S
C774   H775    1.109   .     S
C777   H779    1.110   .     S
C777   H778    1.110   .     S
C777   H780    1.110   .     S
O781   C782    1.419   .     S
C782   H783    1.110   .     S
C782   H784    1.118   .     S
C782   C785    1.525   .     S
C785   H786    1.108   .     S
C785   H787    1.111   .     S
C785   H788    1.108   .     S
O789   C790    1.413   .     S
C790   H791    1.110   .     S
C790   H792    1.116   .     S
C790   C793    1.523   .     S
C793   H794    1.108   .     S
C793   H795    1.111   .     S
C793   H796    1.110   .     S
C801   C821    1.466   .     S
C801   O833    1.294   .     A
C801   O831    1.301   .     A
C802   O832    1.300   .     A
C802   C822    1.473   .     S
C802   O834    1.298   .     A
C803   O865    1.380   .     S
C803   C805    1.421   .     A
C803   C811    1.413   .     A
C804   C812    1.411   .     A
C804   C806    1.415   .     A
C804   O873    1.383   .     S
C805   N829    1.371   .     A
C805   O881    1.383   .     S
C806   N830    1.373   .     A
C806   O889    1.378   .     S
C807   N829    1.375   .     A
C807   C809    1.412   .     A
C807   Cl897   1.759   .     S
C808   Cl898   1.758   .     S
C808   C810    1.414   .     A
C808   N830    1.374   .     A
C809   C811    1.408   .     A
C809   Cl899   1.761   .     S
C810   Cl900   1.769   .     S
C810   C812    1.412   .     A
C812   C211    1.520   1_556 S
C813   O835    1.276   .     A
C813   C815    1.406   .     S
C813   O837    1.291   .     A
C814   O836    1.279   .     A
C814   O838    1.288   .     A
C814   C816    1.405   .     S
C816   C615    1.347   1_655 S
C816   Cl642   1.777   1_655 S
C817   C827    1.409   .     A
C817   Cl843   1.770   .     S
C817   C819    1.396   .     A
C818   C828    1.401   .     A
C818   Cl844   1.771   .     S
C818   C820    1.399   .     A
C819   C821    1.414   .     A
C819   O845    1.383   .     S
C820   C822    1.415   .     A
C820   O853    1.384   .     S
C821   C823    1.415   .     A
C822   C824    1.419   .     A
C823   Cl861   1.772   .     S
C823   C825    1.394   .     A
C824   C826    1.398   .     A
C824   Cl862   1.763   .     S
C825   Cl863   1.772   .     S
C825   C827    1.410   .     A
C826   Cl864   1.772   .     S
C826   C828    1.403   .     A
C827   C1128   1.491   1_545 S
C828   C1127   1.491   .     S
N829   Zn840   2.019   .     S
N830   Zn839   2.019   .     S
O831   Zn839   1.978   .     S
O832   Zn840   1.978   .     S
O833   Zn840   1.967   .     S
O834   Zn839   1.967   .     S
O835   Zn839   1.989   .     S
O836   Zn840   1.989   .     S
O837   Zn840   1.994   .     S
O838   Zn839   1.994   .     S
Cl841  C615    1.775   1_655 S
O845   C846    1.414   .     S
C846   C849    1.519   .     S
C846   H848    1.115   .     S
C846   H847    1.114   .     S
C849   H851    1.110   .     S
C849   H852    1.110   .     S
C849   H850    1.111   .     S
O853   C854    1.412   .     S
C854   H855    1.108   .     S
C854   H856    1.110   .     S
C854   C857    1.518   .     S
C857   H859    1.110   .     S
C857   H860    1.109   .     S
C857   H858    1.111   .     S
O865   C866    1.408   .     S
C866   H868    1.110   .     S
H867   C266    1.111   1_556 S
C869   H872    1.110   .     S
C869   C266    1.518   1_556 S
H870   C669    1.111   1_655 S
H871   C669    1.107   1_655 S
O873   C874    1.416   .     S
C874   H876    1.116   .     S
C874   C877    1.522   .     S
C874   H875    1.109   .     S
C877   H879    1.110   .     S
C877   H878    1.110   .     S
C877   H880    1.110   .     S
O881   C882    1.419   .     S
C882   H883    1.110   .     S
C882   H884    1.118   .     S
C882   C885    1.525   .     S
C885   H886    1.108   .     S
C885   H887    1.111   .     S
C885   H888    1.108   .     S
O889   C890    1.413   .     S
C890   H891    1.110   .     S
C890   H892    1.116   .     S
C890   C893    1.523   .     S
C893   H894    1.108   .     S
C893   H895    1.111   .     S
C893   H896    1.110   .     S
C901   C921    1.466   .     S
C901   O933    1.294   .     A
C901   O931    1.301   .     A
C902   O932    1.300   .     A
C902   C922    1.473   .     S
C902   O934    1.298   .     A
C903   O965    1.380   .     S
C903   C905    1.421   .     A
C903   C911    1.413   .     A
C904   C912    1.411   .     A
C904   C906    1.415   .     A
C904   O973    1.383   .     S
C905   N929    1.371   .     A
C905   O981    1.383   .     S
C906   N930    1.373   .     A
C906   O989    1.378   .     S
C907   N929    1.375   .     A
C907   C909    1.412   .     A
C907   Cl997   1.759   .     S
C908   Cl998   1.758   .     S
C908   C910    1.414   .     A
C908   N930    1.374   .     A
C909   C911    1.408   .     A
C909   Cl999   1.761   .     S
C910   Cl1000  1.769   .     S
C910   C912    1.412   .     A
C912   C311    1.520   1_556 S
C913   O935    1.276   .     A
C913   C915    1.406   .     S
C913   O937    1.291   .     A
C914   O936    1.279   .     A
C914   O938    1.288   .     A
C914   C916    1.405   .     S
C915   C1116   1.347   1_455 S
C915   Cl1141  1.775   1_455 S
C916   C1015   1.347   .     S
C916   Cl1042  1.777   .     S
C917   C927    1.409   .     A
C917   Cl943   1.770   .     S
C917   C919    1.396   .     A
C918   C928    1.401   .     A
C918   Cl944   1.771   .     S
C918   C920    1.399   .     A
C919   C921    1.414   .     A
C919   O945    1.383   .     S
C920   C922    1.415   .     A
C920   O953    1.384   .     S
C921   C923    1.415   .     A
C922   C924    1.419   .     A
C923   Cl961   1.772   .     S
C923   C925    1.394   .     A
C924   C926    1.398   .     A
C924   Cl962   1.763   .     S
C925   Cl963   1.772   .     S
C925   C927    1.410   .     A
C926   Cl964   1.772   .     S
C926   C928    1.403   .     A
C928   C627    1.491   1_565 S
N929   Zn940   2.019   .     S
N930   Zn939   2.019   .     S
O931   Zn939   1.978   .     S
O932   Zn940   1.978   .     S
O933   Zn940   1.967   .     S
O934   Zn939   1.967   .     S
O935   Zn939   1.989   .     S
O936   Zn940   1.989   .     S
O937   Zn940   1.994   .     S
O938   Zn939   1.994   .     S
Cl941  C1015   1.775   .     S
Cl942  C1116   1.777   1_455 S
O945   C946    1.414   .     S
C946   C949    1.519   .     S
C946   H948    1.115   .     S
C946   H947    1.114   .     S
C949   H951    1.110   .     S
C949   H952    1.110   .     S
C949   H950    1.111   .     S
O953   C954    1.412   .     S
C954   H955    1.108   .     S
C954   H956    1.110   .     S
C954   C957    1.518   .     S
C957   H959    1.110   .     S
C957   H960    1.109   .     S
C957   H958    1.111   .     S
O965   C966    1.408   .     S
C966   H968    1.110   .     S
H967   C366    1.111   1_556 S
C969   H972    1.110   .     S
C969   C366    1.518   1_556 S
C969   H1170   1.111   1_455 S
C969   H1171   1.107   1_455 S
H970   C1069   1.111   .     S
H971   C1069   1.107   .     S
O973   C974    1.416   .     S
C974   H976    1.116   .     S
C974   C977    1.522   .     S
C974   H975    1.109   .     S
C977   H979    1.110   .     S
C977   H978    1.110   .     S
C977   H980    1.110   .     S
O981   C982    1.419   .     S
C982   H983    1.110   .     S
C982   H984    1.118   .     S
C982   C985    1.525   .     S
C985   H986    1.108   .     S
C985   H987    1.111   .     S
C985   H988    1.108   .     S
O989   C990    1.413   .     S
C990   H991    1.110   .     S
C990   H992    1.116   .     S
C990   C993    1.523   .     S
C993   H994    1.108   .     S
C993   H995    1.111   .     S
C993   H996    1.110   .     S
C1001  C1021   1.466   .     S
C1001  O1033   1.294   .     A
C1001  O1031   1.301   .     A
C1002  O1032   1.300   .     A
C1002  C1022   1.473   .     S
C1002  O1034   1.298   .     A
C1003  O1065   1.380   .     S
C1003  C1005   1.421   .     A
C1003  C1011   1.413   .     A
C1004  C1012   1.411   .     A
C1004  C1006   1.415   .     A
C1004  O1073   1.383   .     S
C1005  N1029   1.371   .     A
C1005  O1081   1.383   .     S
C1006  N1030   1.373   .     A
C1006  O1089   1.378   .     S
C1007  N1029   1.375   .     A
C1007  C1009   1.412   .     A
C1007  Cl1097  1.759   .     S
C1008  Cl1098  1.758   .     S
C1008  C1010   1.414   .     A
C1008  N1030   1.374   .     A
C1009  C1011   1.408   .     A
C1009  Cl1099  1.761   .     S
C1010  Cl1100  1.769   .     S
C1010  C1012   1.412   .     A
C1012  C411    1.520   1_556 S
C1013  O1035   1.276   .     A
C1013  C1015   1.406   .     S
C1013  O1037   1.291   .     A
C1014  O1036   1.279   .     A
C1014  O1038   1.288   .     A
C1014  C1016   1.405   .     S
C1016  C1115   1.347   .     S
C1016  Cl1142  1.777   .     S
C1017  C1027   1.409   .     A
C1017  Cl1043  1.770   .     S
C1017  C1019   1.396   .     A
C1018  C1028   1.401   .     A
C1018  Cl1044  1.771   .     S
C1018  C1020   1.399   .     A
C1019  C1021   1.414   .     A
C1019  O1045   1.383   .     S
C1020  C1022   1.415   .     A
C1020  O1053   1.384   .     S
C1021  C1023   1.415   .     A
C1022  C1024   1.419   .     A
C1023  Cl1061  1.772   .     S
C1023  C1025   1.394   .     A
C1024  C1026   1.398   .     A
C1024  Cl1062  1.763   .     S
C1025  Cl1063  1.772   .     S
C1025  C1027   1.410   .     A
C1026  Cl1064  1.772   .     S
C1026  C1028   1.403   .     A
C1028  C727    1.491   1_565 S
N1029  Zn1040  2.019   .     S
N1030  Zn1039  2.019   .     S
O1031  Zn1039  1.978   .     S
O1032  Zn1040  1.978   .     S
O1033  Zn1040  1.967   .     S
O1034  Zn1039  1.967   .     S
O1035  Zn1039  1.989   .     S
O1036  Zn1040  1.989   .     S
O1037  Zn1040  1.994   .     S
O1038  Zn1039  1.994   .     S
Cl1041 C1115   1.775   .     S
O1045  C1046   1.414   .     S
C1046  C1049   1.519   .     S
C1046  H1048   1.115   .     S
C1046  H1047   1.114   .     S
C1049  H1051   1.110   .     S
C1049  H1052   1.110   .     S
C1049  H1050   1.111   .     S
O1053  C1054   1.412   .     S
C1054  H1055   1.108   .     S
C1054  H1056   1.110   .     S
C1054  C1057   1.518   .     S
C1057  H1059   1.110   .     S
C1057  H1060   1.109   .     S
C1057  H1058   1.111   .     S
O1065  C1066   1.408   .     S
C1066  H1068   1.110   .     S
H1067  C466    1.111   1_556 S
C1069  H1072   1.110   .     S
C1069  C466    1.518   1_556 S
H1070  C1169   1.111   .     S
H1071  C1169   1.107   .     S
O1073  C1074   1.416   .     S
C1074  H1076   1.116   .     S
C1074  C1077   1.522   .     S
C1074  H1075   1.109   .     S
C1077  H1079   1.110   .     S
C1077  H1078   1.110   .     S
C1077  H1080   1.110   .     S
O1081  C1082   1.419   .     S
C1082  H1083   1.110   .     S
C1082  H1084   1.118   .     S
C1082  C1085   1.525   .     S
C1085  H1086   1.108   .     S
C1085  H1087   1.111   .     S
C1085  H1088   1.108   .     S
O1089  C1090   1.413   .     S
C1090  H1091   1.110   .     S
C1090  H1092   1.116   .     S
C1090  C1093   1.523   .     S
C1093  H1094   1.108   .     S
C1093  H1095   1.111   .     S
C1093  H1096   1.110   .     S
C1101  C1121   1.466   .     S
C1101  O1133   1.294   .     A
C1101  O1131   1.301   .     A
C1102  O1132   1.300   .     A
C1102  C1122   1.473   .     S
C1102  O1134   1.298   .     A
C1103  O1165   1.380   .     S
C1103  C1105   1.421   .     A
C1103  C1111   1.413   .     A
C1104  C1112   1.411   .     A
C1104  C1106   1.415   .     A
C1104  O1173   1.383   .     S
C1105  N1129   1.371   .     A
C1105  O1181   1.383   .     S
C1106  N1130   1.373   .     A
C1106  O1189   1.378   .     S
C1107  N1129   1.375   .     A
C1107  C1109   1.412   .     A
C1107  Cl1197  1.759   .     S
C1108  Cl1198  1.758   .     S
C1108  C1110   1.414   .     A
C1108  N1130   1.374   .     A
C1109  C1111   1.408   .     A
C1109  Cl1199  1.761   .     S
C1110  Cl1200  1.769   .     S
C1110  C1112   1.412   .     A
C1112  C511    1.520   1_556 S
C1113  O1135   1.276   .     A
C1113  C1115   1.406   .     S
C1113  O1137   1.291   .     A
C1114  O1136   1.279   .     A
C1114  O1138   1.288   .     A
C1114  C1116   1.405   .     S
C1116  C915    1.347   1_655 S
C1116  Cl942   1.777   1_655 S
C1117  C1127   1.409   .     A
C1117  Cl1143  1.770   .     S
C1117  C1119   1.396   .     A
C1118  C1128   1.401   .     A
C1118  Cl1144  1.771   .     S
C1118  C1120   1.399   .     A
C1119  C1121   1.414   .     A
C1119  O1145   1.383   .     S
C1120  C1122   1.415   .     A
C1120  O1153   1.384   .     S
C1121  C1123   1.415   .     A
C1122  C1124   1.419   .     A
C1123  Cl1161  1.772   .     S
C1123  C1125   1.394   .     A
C1124  C1126   1.398   .     A
C1124  Cl1162  1.763   .     S
C1125  Cl1163  1.772   .     S
C1125  C1127   1.410   .     A
C1126  Cl1164  1.772   .     S
C1126  C1128   1.403   .     A
C1128  C827    1.491   1_565 S
N1129  Zn1140  2.019   .     S
N1130  Zn1139  2.019   .     S
O1131  Zn1139  1.978   .     S
O1132  Zn1140  1.978   .     S
O1133  Zn1140  1.967   .     S
O1134  Zn1139  1.967   .     S
O1135  Zn1139  1.989   .     S
O1136  Zn1140  1.989   .     S
O1137  Zn1140  1.994   .     S
O1138  Zn1139  1.994   .     S
Cl1141 C915    1.775   1_655 S
O1145  C1146   1.414   .     S
C1146  C1149   1.519   .     S
C1146  H1148   1.115   .     S
C1146  H1147   1.114   .     S
C1149  H1151   1.110   .     S
C1149  H1152   1.110   .     S
C1149  H1150   1.111   .     S
O1153  C1154   1.412   .     S
C1154  H1155   1.108   .     S
C1154  H1156   1.110   .     S
C1154  C1157   1.518   .     S
C1157  H1159   1.110   .     S
C1157  H1160   1.109   .     S
C1157  H1158   1.111   .     S
O1165  C1166   1.408   .     S
C1166  H1168   1.110   .     S
H1167  C566    1.111   1_556 S
C1169  H1172   1.110   .     S
C1169  C566    1.518   1_556 S
H1170  C969    1.111   1_655 S
H1171  C969    1.107   1_655 S
O1173  C1174   1.416   .     S
C1174  H1176   1.116   .     S
C1174  C1177   1.522   .     S
C1174  H1175   1.109   .     S
C1177  H1179   1.110   .     S
C1177  H1178   1.110   .     S
C1177  H1180   1.110   .     S
O1181  C1182   1.419   .     S
C1182  H1183   1.110   .     S
C1182  H1184   1.118   .     S
C1182  C1185   1.525   .     S
C1185  H1186   1.108   .     S
C1185  H1187   1.111   .     S
C1185  H1188   1.108   .     S
O1189  C1190   1.413   .     S
C1190  H1191   1.110   .     S
C1190  H1192   1.116   .     S
C1190  C1193   1.523   .     S
C1193  H1194   1.108   .     S
C1193  H1195   1.111   .     S
C1193  H1196   1.110   .     S
