data_str_m3_o1_o16_pcu_sym.128
_audit_creation_date              2020-01-03
_audit_creation_method            'Materials Studio'
_symmetry_space_group_name_H-M    'P1'
_symmetry_Int_Tables_number       1
_symmetry_cell_setting            triclinic
loop_
_symmetry_equiv_pos_as_xyz
  x,y,z
_cell_length_a                    29.6208
_cell_length_b                    32.0919
_cell_length_c                    26.2025
_cell_angle_alpha                 90.3629
_cell_angle_beta                  69.3717
_cell_angle_gamma                 89.6731
loop_
_atom_site_label
_atom_site_type_symbol
_atom_site_fract_x
_atom_site_fract_y
_atom_site_fract_z
_atom_site_U_iso_or_equiv
_atom_site_adp_type
_atom_site_occupancy
C1     C     0.16651   0.24667   0.25029   0.00000  Uiso   1.00
C2     C     0.14367   0.16970   0.49274   0.00000  Uiso   1.00
C3     C     0.15077   0.18360   0.43975   0.00000  Uiso   1.00
C4     C     0.18013   0.17767   0.01481   0.00000  Uiso   1.00
C5     C     0.21881   0.20476   0.48775   0.00000  Uiso   1.00
C6     C     0.22143   0.22282   0.43864   0.00000  Uiso   1.00
C7     C     0.18774   0.21256   0.41500   0.00000  Uiso   1.00
C8     C     0.17927   0.15933   0.06317   0.00000  Uiso   1.00
C9     C     0.24839   0.19925   0.06269   0.00000  Uiso   1.00
C10    C     0.12163   0.16730   0.41205   0.00000  Uiso   1.00
C11    C     0.20012   0.31188   0.26709   0.00000  Uiso   1.00
C12    C     0.13965   0.16770   0.35239   0.00000  Uiso   1.00
C13    C     0.20035   0.02126   0.26680   0.00000  Uiso   1.00
C14    C     0.16663   0.04251   0.25032   0.00000  Uiso   1.00
C15    C     0.13259   0.02144   0.23431   0.00000  Uiso   1.00
C16    C     0.13248   0.31209   0.23442   0.00000  Uiso   1.00
C17    C     0.16627   0.29082   0.25074   0.00000  Uiso   1.00
C18    C     0.31772   0.13576   0.22406   0.00000  Uiso   1.00
C19    C     0.03236   0.13590   0.22376   0.00000  Uiso   1.00
C20    C     0.01489   0.19761   0.27650   0.00000  Uiso   1.00
C21    C     0.30072   0.19760   0.27562   0.00000  Uiso   1.00
C22    C     0.16672   0.08667   0.25002   0.00000  Uiso   1.00
C23    C     0.19359   0.16688   0.14773   0.00000  Uiso   1.00
C24    C     0.25350   0.21437   0.01119   0.00000  Uiso   1.00
C25    C     0.21011   0.17273   0.08921   0.00000  Uiso   1.00
C26    C     0.07968   0.14463   0.44067   0.00000  Uiso   1.00
C27    C     0.06670   0.13833   0.49682   0.00000  Uiso   1.00
C28    C     0.10018   0.14896   0.02189   0.00000  Uiso   1.00
H29    H     0.27231   0.21018   0.08295   0.00000  Uiso   1.00
H30    H     0.22645   0.03754   0.27979   0.00000  Uiso   1.00
H31    H     0.10659   0.03783   0.22112   0.00000  Uiso   1.00
H32    H     0.10655   0.29583   0.22114   0.00000  Uiso   1.00
H33    H     0.30623   0.11091   0.20349   0.00000  Uiso   1.00
H34    H     0.05713   0.11129   0.20265   0.00000  Uiso   1.00
H35    H     0.27538   0.22197   0.29645   0.00000  Uiso   1.00
H36    H     0.24983   0.24455   0.41816   0.00000  Uiso   1.00
H37    H     0.28286   0.23533   0.49111   0.00000  Uiso   1.00
H38    H     0.15300   0.13609   0.08347   0.00000  Uiso   1.00
H39    H     0.09134   0.14173   0.06425   0.00000  Uiso   1.00
H40    H     0.19073   0.22775   0.37720   0.00000  Uiso   1.00
H41    H     0.22608   0.29545   0.28032   0.00000  Uiso   1.00
N42    N     0.04760   0.16668   0.25001   0.00000  Uiso   1.00
N43    N     0.28573   0.16665   0.25000   0.00000  Uiso   1.00
O44    O     0.12846   0.22775   0.25000   0.00000  Uiso   1.00
O45    O     0.20490   0.22774   0.25000   0.00000  Uiso   1.00
O46    O     0.10947   0.16666   0.32681   0.00000  Uiso   1.00
O47    O     0.18591   0.16665   0.32681   0.00000  Uiso   1.00
O48    O     0.12843   0.10559   0.24999   0.00000  Uiso   1.00
O49    O     0.20488   0.10558   0.24999   0.00000  Uiso   1.00
O50    O     0.14742   0.16668   0.17319   0.00000  Uiso   1.00
O51    O     0.22387   0.16667   0.17319   0.00000  Uiso   1.00
Zn52   Zn    0.11562   0.16667   0.25000   0.00000  Uiso   1.00
Zn53   Zn    0.21771   0.16666   0.25000   0.00000  Uiso   1.00
C54    C     0.02708   0.23164   0.30720   0.00000  Uiso   1.00
O55    O     0.04421   0.22397   0.34218   0.00000  Uiso   1.00
O56    O     0.01569   0.27274   0.29871   0.00000  Uiso   1.00
H57    H     0.02486   0.29342   0.32275   0.00000  Uiso   1.00
O58    O     0.05003   0.12976   0.41407   0.00000  Uiso   1.00
C59    C     0.06237   0.08773   0.39916   0.00000  Uiso   1.00
H60    H     0.10111   0.08406   0.37327   0.00000  Uiso   1.00
H61    H     0.04075   0.07668   0.37481   0.00000  Uiso   1.00
H62    H     0.05373   0.06760   0.43570   0.00000  Uiso   1.00
O63    O     0.02358   0.11751   0.02312   0.00000  Uiso   1.00
C64    C     0.00319   0.12705   0.07929   0.00000  Uiso   1.00
H65    H     0.00481   0.16093   0.08784   0.00000  Uiso   1.00
H66    H     0.02074   0.10812   0.10250   0.00000  Uiso   1.00
H67    H     0.29792   0.11831   0.09387   0.00000  Uiso   1.00
C68    C     0.49984   0.24667   0.25029   0.00000  Uiso   1.00
C69    C     0.47700   0.16970   0.49274   0.00000  Uiso   1.00
C70    C     0.48410   0.18360   0.43975   0.00000  Uiso   1.00
C71    C     0.51347   0.17767   0.01481   0.00000  Uiso   1.00
C72    C     0.55215   0.20476   0.48775   0.00000  Uiso   1.00
C73    C     0.55476   0.22282   0.43864   0.00000  Uiso   1.00
C74    C     0.52107   0.21256   0.41500   0.00000  Uiso   1.00
C75    C     0.51260   0.15933   0.06317   0.00000  Uiso   1.00
C76    C     0.58173   0.19925   0.06269   0.00000  Uiso   1.00
C77    C     0.45497   0.16730   0.41205   0.00000  Uiso   1.00
C78    C     0.53346   0.31188   0.26709   0.00000  Uiso   1.00
C79    C     0.47298   0.16770   0.35239   0.00000  Uiso   1.00
C80    C     0.53368   0.02126   0.26680   0.00000  Uiso   1.00
C81    C     0.49997   0.04251   0.25032   0.00000  Uiso   1.00
C82    C     0.46593   0.02144   0.23431   0.00000  Uiso   1.00
C83    C     0.46581   0.31209   0.23442   0.00000  Uiso   1.00
C84    C     0.49961   0.29082   0.25074   0.00000  Uiso   1.00
C85    C     0.65105   0.13576   0.22406   0.00000  Uiso   1.00
C86    C     0.36569   0.13590   0.22376   0.00000  Uiso   1.00
C87    C     0.34822   0.19761   0.27650   0.00000  Uiso   1.00
C88    C     0.63406   0.19760   0.27562   0.00000  Uiso   1.00
C89    C     0.50005   0.08667   0.25002   0.00000  Uiso   1.00
C90    C     0.52693   0.16688   0.14773   0.00000  Uiso   1.00
C91    C     0.58683   0.21437   0.01119   0.00000  Uiso   1.00
C92    C     0.54345   0.17273   0.08921   0.00000  Uiso   1.00
C93    C     0.41301   0.14463   0.44067   0.00000  Uiso   1.00
C94    C     0.40003   0.13833   0.49682   0.00000  Uiso   1.00
C95    C     0.43351   0.14896   0.02189   0.00000  Uiso   1.00
H96    H     0.60565   0.21018   0.08295   0.00000  Uiso   1.00
H97    H     0.55978   0.03754   0.27979   0.00000  Uiso   1.00
H98    H     0.43992   0.03783   0.22112   0.00000  Uiso   1.00
H99    H     0.43988   0.29583   0.22114   0.00000  Uiso   1.00
H100   H     0.63957   0.11091   0.20349   0.00000  Uiso   1.00
H101   H     0.39046   0.11129   0.20265   0.00000  Uiso   1.00
H102   H     0.60872   0.22197   0.29645   0.00000  Uiso   1.00
H103   H     0.58316   0.24455   0.41816   0.00000  Uiso   1.00
H104   H     0.61620   0.23533   0.49111   0.00000  Uiso   1.00
H105   H     0.48634   0.13609   0.08347   0.00000  Uiso   1.00
H106   H     0.42468   0.14173   0.06425   0.00000  Uiso   1.00
H107   H     0.52407   0.22775   0.37720   0.00000  Uiso   1.00
H108   H     0.55942   0.29545   0.28032   0.00000  Uiso   1.00
N109   N     0.38093   0.16668   0.25001   0.00000  Uiso   1.00
N110   N     0.61906   0.16665   0.25000   0.00000  Uiso   1.00
O111   O     0.46179   0.22775   0.25000   0.00000  Uiso   1.00
O112   O     0.53823   0.22774   0.25000   0.00000  Uiso   1.00
O113   O     0.44280   0.16666   0.32681   0.00000  Uiso   1.00
O114   O     0.51924   0.16665   0.32681   0.00000  Uiso   1.00
O115   O     0.46177   0.10559   0.24999   0.00000  Uiso   1.00
O116   O     0.53821   0.10558   0.24999   0.00000  Uiso   1.00
O117   O     0.48076   0.16668   0.17319   0.00000  Uiso   1.00
O118   O     0.55720   0.16667   0.17319   0.00000  Uiso   1.00
Zn119  Zn    0.44896   0.16667   0.25000   0.00000  Uiso   1.00
Zn120  Zn    0.55104   0.16666   0.25000   0.00000  Uiso   1.00
C121   C     0.36042   0.23164   0.30720   0.00000  Uiso   1.00
O122   O     0.37754   0.22397   0.34218   0.00000  Uiso   1.00
O123   O     0.34902   0.27274   0.29871   0.00000  Uiso   1.00
H124   H     0.35819   0.29342   0.32275   0.00000  Uiso   1.00
O125   O     0.38337   0.12976   0.41407   0.00000  Uiso   1.00
C126   C     0.39570   0.08773   0.39916   0.00000  Uiso   1.00
H127   H     0.43444   0.08406   0.37327   0.00000  Uiso   1.00
H128   H     0.37409   0.07668   0.37481   0.00000  Uiso   1.00
H129   H     0.38706   0.06760   0.43570   0.00000  Uiso   1.00
O130   O     0.35691   0.11751   0.02312   0.00000  Uiso   1.00
C131   C     0.33653   0.12705   0.07929   0.00000  Uiso   1.00
H132   H     0.33815   0.16093   0.08784   0.00000  Uiso   1.00
H133   H     0.35408   0.10812   0.10250   0.00000  Uiso   1.00
H134   H     0.63125   0.11831   0.09387   0.00000  Uiso   1.00
C135   C     0.83317   0.24667   0.25029   0.00000  Uiso   1.00
C136   C     0.81033   0.16970   0.49274   0.00000  Uiso   1.00
C137   C     0.81744   0.18360   0.43975   0.00000  Uiso   1.00
C138   C     0.84680   0.17767   0.01481   0.00000  Uiso   1.00
C139   C     0.88548   0.20476   0.48775   0.00000  Uiso   1.00
C140   C     0.88809   0.22282   0.43864   0.00000  Uiso   1.00
C141   C     0.85441   0.21256   0.41500   0.00000  Uiso   1.00
C142   C     0.84593   0.15933   0.06317   0.00000  Uiso   1.00
C143   C     0.91506   0.19925   0.06269   0.00000  Uiso   1.00
C144   C     0.78830   0.16730   0.41205   0.00000  Uiso   1.00
C145   C     0.86679   0.31188   0.26709   0.00000  Uiso   1.00
C146   C     0.80632   0.16770   0.35239   0.00000  Uiso   1.00
C147   C     0.86702   0.02126   0.26680   0.00000  Uiso   1.00
C148   C     0.83330   0.04251   0.25032   0.00000  Uiso   1.00
C149   C     0.79926   0.02144   0.23431   0.00000  Uiso   1.00
C150   C     0.79914   0.31209   0.23442   0.00000  Uiso   1.00
C151   C     0.83294   0.29082   0.25074   0.00000  Uiso   1.00
C152   C     0.98439   0.13576   0.22406   0.00000  Uiso   1.00
C153   C     0.69902   0.13590   0.22376   0.00000  Uiso   1.00
C154   C     0.68156   0.19761   0.27650   0.00000  Uiso   1.00
C155   C     0.96739   0.19760   0.27562   0.00000  Uiso   1.00
C156   C     0.83339   0.08667   0.25002   0.00000  Uiso   1.00
C157   C     0.86026   0.16688   0.14773   0.00000  Uiso   1.00
C158   C     0.92017   0.21437   0.01119   0.00000  Uiso   1.00
C159   C     0.87678   0.17273   0.08921   0.00000  Uiso   1.00
C160   C     0.74634   0.14463   0.44067   0.00000  Uiso   1.00
C161   C     0.73336   0.13833   0.49682   0.00000  Uiso   1.00
C162   C     0.76685   0.14896   0.02189   0.00000  Uiso   1.00
H163   H     0.93898   0.21018   0.08295   0.00000  Uiso   1.00
H164   H     0.89312   0.03754   0.27979   0.00000  Uiso   1.00
H165   H     0.77325   0.03783   0.22112   0.00000  Uiso   1.00
H166   H     0.77321   0.29583   0.22114   0.00000  Uiso   1.00
H167   H     0.97290   0.11091   0.20349   0.00000  Uiso   1.00
H168   H     0.72380   0.11129   0.20265   0.00000  Uiso   1.00
H169   H     0.94205   0.22197   0.29645   0.00000  Uiso   1.00
H170   H     0.91650   0.24455   0.41816   0.00000  Uiso   1.00
H171   H     0.94953   0.23533   0.49111   0.00000  Uiso   1.00
H172   H     0.81967   0.13609   0.08347   0.00000  Uiso   1.00
H173   H     0.75801   0.14173   0.06425   0.00000  Uiso   1.00
H174   H     0.85740   0.22775   0.37720   0.00000  Uiso   1.00
H175   H     0.89275   0.29545   0.28032   0.00000  Uiso   1.00
N176   N     0.71426   0.16668   0.25001   0.00000  Uiso   1.00
N177   N     0.95239   0.16665   0.25000   0.00000  Uiso   1.00
O178   O     0.79512   0.22775   0.25000   0.00000  Uiso   1.00
O179   O     0.87157   0.22774   0.25000   0.00000  Uiso   1.00
O180   O     0.77613   0.16666   0.32681   0.00000  Uiso   1.00
O181   O     0.85258   0.16665   0.32681   0.00000  Uiso   1.00
O182   O     0.79510   0.10559   0.24999   0.00000  Uiso   1.00
O183   O     0.87154   0.10558   0.24999   0.00000  Uiso   1.00
O184   O     0.81409   0.16668   0.17319   0.00000  Uiso   1.00
O185   O     0.89053   0.16667   0.17319   0.00000  Uiso   1.00
Zn186  Zn    0.78229   0.16667   0.25000   0.00000  Uiso   1.00
Zn187  Zn    0.88438   0.16666   0.25000   0.00000  Uiso   1.00
C188   C     0.69375   0.23164   0.30720   0.00000  Uiso   1.00
O189   O     0.71087   0.22397   0.34218   0.00000  Uiso   1.00
O190   O     0.68235   0.27274   0.29871   0.00000  Uiso   1.00
H191   H     0.69152   0.29342   0.32275   0.00000  Uiso   1.00
O192   O     0.71670   0.12976   0.41407   0.00000  Uiso   1.00
C193   C     0.72903   0.08773   0.39916   0.00000  Uiso   1.00
H194   H     0.76778   0.08406   0.37327   0.00000  Uiso   1.00
H195   H     0.70742   0.07668   0.37481   0.00000  Uiso   1.00
H196   H     0.72040   0.06760   0.43570   0.00000  Uiso   1.00
O197   O     0.69024   0.11751   0.02312   0.00000  Uiso   1.00
C198   C     0.66986   0.12705   0.07929   0.00000  Uiso   1.00
H199   H     0.67148   0.16093   0.08784   0.00000  Uiso   1.00
H200   H     0.68741   0.10812   0.10250   0.00000  Uiso   1.00
H201   H     0.96458   0.11831   0.09387   0.00000  Uiso   1.00
C202   C     0.16651   0.58000   0.25029   0.00000  Uiso   1.00
C203   C     0.14367   0.50303   0.49274   0.00000  Uiso   1.00
C204   C     0.15077   0.51693   0.43975   0.00000  Uiso   1.00
C205   C     0.18013   0.51100   0.01481   0.00000  Uiso   1.00
C206   C     0.21881   0.53809   0.48775   0.00000  Uiso   1.00
C207   C     0.22143   0.55616   0.43864   0.00000  Uiso   1.00
C208   C     0.18774   0.54589   0.41500   0.00000  Uiso   1.00
C209   C     0.17927   0.49266   0.06317   0.00000  Uiso   1.00
C210   C     0.24839   0.53258   0.06269   0.00000  Uiso   1.00
C211   C     0.12163   0.50064   0.41205   0.00000  Uiso   1.00
C212   C     0.20012   0.64522   0.26709   0.00000  Uiso   1.00
C213   C     0.13965   0.50103   0.35239   0.00000  Uiso   1.00
C214   C     0.20035   0.35459   0.26680   0.00000  Uiso   1.00
C215   C     0.16663   0.37584   0.25032   0.00000  Uiso   1.00
C216   C     0.13259   0.35477   0.23431   0.00000  Uiso   1.00
C217   C     0.13248   0.64542   0.23442   0.00000  Uiso   1.00
C218   C     0.16627   0.62416   0.25074   0.00000  Uiso   1.00
C219   C     0.31772   0.46910   0.22406   0.00000  Uiso   1.00
C220   C     0.03236   0.46924   0.22376   0.00000  Uiso   1.00
C221   C     0.01489   0.53095   0.27650   0.00000  Uiso   1.00
C222   C     0.30072   0.53093   0.27562   0.00000  Uiso   1.00
C223   C     0.16672   0.42000   0.25002   0.00000  Uiso   1.00
C224   C     0.19359   0.50021   0.14773   0.00000  Uiso   1.00
C225   C     0.25350   0.54770   0.01119   0.00000  Uiso   1.00
C226   C     0.21011   0.50606   0.08921   0.00000  Uiso   1.00
C227   C     0.07968   0.47797   0.44067   0.00000  Uiso   1.00
C228   C     0.06670   0.47166   0.49682   0.00000  Uiso   1.00
C229   C     0.10018   0.48230   0.02189   0.00000  Uiso   1.00
H230   H     0.27231   0.54351   0.08295   0.00000  Uiso   1.00
H231   H     0.22645   0.37088   0.27979   0.00000  Uiso   1.00
H232   H     0.10659   0.37116   0.22112   0.00000  Uiso   1.00
H233   H     0.10655   0.62916   0.22114   0.00000  Uiso   1.00
H234   H     0.30623   0.44424   0.20349   0.00000  Uiso   1.00
H235   H     0.05713   0.44463   0.20265   0.00000  Uiso   1.00
H236   H     0.27538   0.55531   0.29645   0.00000  Uiso   1.00
H237   H     0.24983   0.57788   0.41816   0.00000  Uiso   1.00
H238   H     0.28286   0.56866   0.49111   0.00000  Uiso   1.00
H239   H     0.15300   0.46942   0.08347   0.00000  Uiso   1.00
H240   H     0.09134   0.47506   0.06425   0.00000  Uiso   1.00
H241   H     0.19073   0.56108   0.37720   0.00000  Uiso   1.00
H242   H     0.22608   0.62878   0.28032   0.00000  Uiso   1.00
N243   N     0.04760   0.50001   0.25001   0.00000  Uiso   1.00
N244   N     0.28573   0.49998   0.25000   0.00000  Uiso   1.00
O245   O     0.12846   0.56108   0.25000   0.00000  Uiso   1.00
O246   O     0.20490   0.56107   0.25000   0.00000  Uiso   1.00
O247   O     0.10947   0.50000   0.32681   0.00000  Uiso   1.00
O248   O     0.18591   0.49999   0.32681   0.00000  Uiso   1.00
O249   O     0.12843   0.43893   0.24999   0.00000  Uiso   1.00
O250   O     0.20488   0.43892   0.24999   0.00000  Uiso   1.00
O251   O     0.14742   0.50001   0.17319   0.00000  Uiso   1.00
O252   O     0.22387   0.50000   0.17319   0.00000  Uiso   1.00
Zn253  Zn    0.11562   0.50001   0.25000   0.00000  Uiso   1.00
Zn254  Zn    0.21771   0.49999   0.25000   0.00000  Uiso   1.00
C255   C     0.02708   0.56498   0.30720   0.00000  Uiso   1.00
O256   O     0.04421   0.55731   0.34218   0.00000  Uiso   1.00
O257   O     0.01569   0.60607   0.29871   0.00000  Uiso   1.00
H258   H     0.02486   0.62675   0.32275   0.00000  Uiso   1.00
O259   O     0.05003   0.46310   0.41407   0.00000  Uiso   1.00
C260   C     0.06237   0.42107   0.39916   0.00000  Uiso   1.00
H261   H     0.10111   0.41739   0.37327   0.00000  Uiso   1.00
H262   H     0.04075   0.41001   0.37481   0.00000  Uiso   1.00
H263   H     0.05373   0.40093   0.43570   0.00000  Uiso   1.00
O264   O     0.02358   0.45084   0.02312   0.00000  Uiso   1.00
C265   C     0.00319   0.46038   0.07929   0.00000  Uiso   1.00
H266   H     0.00481   0.49426   0.08784   0.00000  Uiso   1.00
H267   H     0.02074   0.44145   0.10250   0.00000  Uiso   1.00
H268   H     0.29792   0.45164   0.09387   0.00000  Uiso   1.00
C269   C     0.49984   0.58000   0.25029   0.00000  Uiso   1.00
C270   C     0.47700   0.50303   0.49274   0.00000  Uiso   1.00
C271   C     0.48410   0.51693   0.43975   0.00000  Uiso   1.00
C272   C     0.51347   0.51100   0.01481   0.00000  Uiso   1.00
C273   C     0.55215   0.53809   0.48775   0.00000  Uiso   1.00
C274   C     0.55476   0.55616   0.43864   0.00000  Uiso   1.00
C275   C     0.52107   0.54589   0.41500   0.00000  Uiso   1.00
C276   C     0.51260   0.49266   0.06317   0.00000  Uiso   1.00
C277   C     0.58173   0.53258   0.06269   0.00000  Uiso   1.00
C278   C     0.45497   0.50064   0.41205   0.00000  Uiso   1.00
C279   C     0.53346   0.64522   0.26709   0.00000  Uiso   1.00
C280   C     0.47298   0.50103   0.35239   0.00000  Uiso   1.00
C281   C     0.53368   0.35459   0.26680   0.00000  Uiso   1.00
C282   C     0.49997   0.37584   0.25032   0.00000  Uiso   1.00
C283   C     0.46593   0.35477   0.23431   0.00000  Uiso   1.00
C284   C     0.46581   0.64542   0.23442   0.00000  Uiso   1.00
C285   C     0.49961   0.62416   0.25074   0.00000  Uiso   1.00
C286   C     0.65105   0.46910   0.22406   0.00000  Uiso   1.00
C287   C     0.36569   0.46924   0.22376   0.00000  Uiso   1.00
C288   C     0.34822   0.53095   0.27650   0.00000  Uiso   1.00
C289   C     0.63406   0.53093   0.27562   0.00000  Uiso   1.00
C290   C     0.50005   0.42000   0.25002   0.00000  Uiso   1.00
C291   C     0.52693   0.50021   0.14773   0.00000  Uiso   1.00
C292   C     0.58683   0.54770   0.01119   0.00000  Uiso   1.00
C293   C     0.54345   0.50606   0.08921   0.00000  Uiso   1.00
C294   C     0.41301   0.47797   0.44067   0.00000  Uiso   1.00
C295   C     0.40003   0.47166   0.49682   0.00000  Uiso   1.00
C296   C     0.43351   0.48230   0.02189   0.00000  Uiso   1.00
H297   H     0.60565   0.54351   0.08295   0.00000  Uiso   1.00
H298   H     0.55978   0.37088   0.27979   0.00000  Uiso   1.00
H299   H     0.43992   0.37116   0.22112   0.00000  Uiso   1.00
H300   H     0.43988   0.62916   0.22114   0.00000  Uiso   1.00
H301   H     0.63957   0.44424   0.20349   0.00000  Uiso   1.00
H302   H     0.39046   0.44463   0.20265   0.00000  Uiso   1.00
H303   H     0.60872   0.55531   0.29645   0.00000  Uiso   1.00
H304   H     0.58316   0.57788   0.41816   0.00000  Uiso   1.00
H305   H     0.61620   0.56866   0.49111   0.00000  Uiso   1.00
H306   H     0.48634   0.46942   0.08347   0.00000  Uiso   1.00
H307   H     0.42468   0.47506   0.06425   0.00000  Uiso   1.00
H308   H     0.52407   0.56108   0.37720   0.00000  Uiso   1.00
H309   H     0.55942   0.62878   0.28032   0.00000  Uiso   1.00
N310   N     0.38093   0.50001   0.25001   0.00000  Uiso   1.00
N311   N     0.61906   0.49998   0.25000   0.00000  Uiso   1.00
O312   O     0.46179   0.56108   0.25000   0.00000  Uiso   1.00
O313   O     0.53823   0.56107   0.25000   0.00000  Uiso   1.00
O314   O     0.44280   0.50000   0.32681   0.00000  Uiso   1.00
O315   O     0.51924   0.49999   0.32681   0.00000  Uiso   1.00
O316   O     0.46177   0.43893   0.24999   0.00000  Uiso   1.00
O317   O     0.53821   0.43892   0.24999   0.00000  Uiso   1.00
O318   O     0.48076   0.50001   0.17319   0.00000  Uiso   1.00
O319   O     0.55720   0.50000   0.17319   0.00000  Uiso   1.00
Zn320  Zn    0.44896   0.50001   0.25000   0.00000  Uiso   1.00
Zn321  Zn    0.55104   0.49999   0.25000   0.00000  Uiso   1.00
C322   C     0.36042   0.56498   0.30720   0.00000  Uiso   1.00
O323   O     0.37754   0.55731   0.34218   0.00000  Uiso   1.00
O324   O     0.34902   0.60607   0.29871   0.00000  Uiso   1.00
H325   H     0.35819   0.62675   0.32275   0.00000  Uiso   1.00
O326   O     0.38337   0.46310   0.41407   0.00000  Uiso   1.00
C327   C     0.39570   0.42107   0.39916   0.00000  Uiso   1.00
H328   H     0.43444   0.41739   0.37327   0.00000  Uiso   1.00
H329   H     0.37409   0.41001   0.37481   0.00000  Uiso   1.00
H330   H     0.38706   0.40093   0.43570   0.00000  Uiso   1.00
O331   O     0.35691   0.45084   0.02312   0.00000  Uiso   1.00
C332   C     0.33653   0.46038   0.07929   0.00000  Uiso   1.00
H333   H     0.33815   0.49426   0.08784   0.00000  Uiso   1.00
H334   H     0.35408   0.44145   0.10250   0.00000  Uiso   1.00
H335   H     0.63125   0.45164   0.09387   0.00000  Uiso   1.00
C336   C     0.83317   0.58000   0.25029   0.00000  Uiso   1.00
C337   C     0.81033   0.50303   0.49274   0.00000  Uiso   1.00
C338   C     0.81744   0.51693   0.43975   0.00000  Uiso   1.00
C339   C     0.84680   0.51100   0.01481   0.00000  Uiso   1.00
C340   C     0.88548   0.53809   0.48775   0.00000  Uiso   1.00
C341   C     0.88809   0.55616   0.43864   0.00000  Uiso   1.00
C342   C     0.85441   0.54589   0.41500   0.00000  Uiso   1.00
C343   C     0.84593   0.49266   0.06317   0.00000  Uiso   1.00
C344   C     0.91506   0.53258   0.06269   0.00000  Uiso   1.00
C345   C     0.78830   0.50064   0.41205   0.00000  Uiso   1.00
C346   C     0.86679   0.64522   0.26709   0.00000  Uiso   1.00
C347   C     0.80632   0.50103   0.35239   0.00000  Uiso   1.00
C348   C     0.86702   0.35459   0.26680   0.00000  Uiso   1.00
C349   C     0.83330   0.37584   0.25032   0.00000  Uiso   1.00
C350   C     0.79926   0.35477   0.23431   0.00000  Uiso   1.00
C351   C     0.79914   0.64542   0.23442   0.00000  Uiso   1.00
C352   C     0.83294   0.62416   0.25074   0.00000  Uiso   1.00
C353   C     0.98439   0.46910   0.22406   0.00000  Uiso   1.00
C354   C     0.69902   0.46924   0.22376   0.00000  Uiso   1.00
C355   C     0.68156   0.53095   0.27650   0.00000  Uiso   1.00
C356   C     0.96739   0.53093   0.27562   0.00000  Uiso   1.00
C357   C     0.83339   0.42000   0.25002   0.00000  Uiso   1.00
C358   C     0.86026   0.50021   0.14773   0.00000  Uiso   1.00
C359   C     0.92017   0.54770   0.01119   0.00000  Uiso   1.00
C360   C     0.87678   0.50606   0.08921   0.00000  Uiso   1.00
C361   C     0.74634   0.47797   0.44067   0.00000  Uiso   1.00
C362   C     0.73336   0.47166   0.49682   0.00000  Uiso   1.00
C363   C     0.76685   0.48230   0.02189   0.00000  Uiso   1.00
H364   H     0.93898   0.54351   0.08295   0.00000  Uiso   1.00
H365   H     0.89312   0.37088   0.27979   0.00000  Uiso   1.00
H366   H     0.77325   0.37116   0.22112   0.00000  Uiso   1.00
H367   H     0.77321   0.62916   0.22114   0.00000  Uiso   1.00
H368   H     0.97290   0.44424   0.20349   0.00000  Uiso   1.00
H369   H     0.72380   0.44463   0.20265   0.00000  Uiso   1.00
H370   H     0.94205   0.55531   0.29645   0.00000  Uiso   1.00
H371   H     0.91650   0.57788   0.41816   0.00000  Uiso   1.00
H372   H     0.94953   0.56866   0.49111   0.00000  Uiso   1.00
H373   H     0.81967   0.46942   0.08347   0.00000  Uiso   1.00
H374   H     0.75801   0.47506   0.06425   0.00000  Uiso   1.00
H375   H     0.85740   0.56108   0.37720   0.00000  Uiso   1.00
H376   H     0.89275   0.62878   0.28032   0.00000  Uiso   1.00
N377   N     0.71426   0.50001   0.25001   0.00000  Uiso   1.00
N378   N     0.95239   0.49998   0.25000   0.00000  Uiso   1.00
O379   O     0.79512   0.56108   0.25000   0.00000  Uiso   1.00
O380   O     0.87157   0.56107   0.25000   0.00000  Uiso   1.00
O381   O     0.77613   0.50000   0.32681   0.00000  Uiso   1.00
O382   O     0.85258   0.49999   0.32681   0.00000  Uiso   1.00
O383   O     0.79510   0.43893   0.24999   0.00000  Uiso   1.00
O384   O     0.87154   0.43892   0.24999   0.00000  Uiso   1.00
O385   O     0.81409   0.50001   0.17319   0.00000  Uiso   1.00
O386   O     0.89053   0.50000   0.17319   0.00000  Uiso   1.00
Zn387  Zn    0.78229   0.50001   0.25000   0.00000  Uiso   1.00
Zn388  Zn    0.88438   0.49999   0.25000   0.00000  Uiso   1.00
C389   C     0.69375   0.56498   0.30720   0.00000  Uiso   1.00
O390   O     0.71087   0.55731   0.34218   0.00000  Uiso   1.00
O391   O     0.68235   0.60607   0.29871   0.00000  Uiso   1.00
H392   H     0.69152   0.62675   0.32275   0.00000  Uiso   1.00
O393   O     0.71670   0.46310   0.41407   0.00000  Uiso   1.00
C394   C     0.72903   0.42107   0.39916   0.00000  Uiso   1.00
H395   H     0.76778   0.41739   0.37327   0.00000  Uiso   1.00
H396   H     0.70742   0.41001   0.37481   0.00000  Uiso   1.00
H397   H     0.72040   0.40093   0.43570   0.00000  Uiso   1.00
O398   O     0.69024   0.45084   0.02312   0.00000  Uiso   1.00
C399   C     0.66986   0.46038   0.07929   0.00000  Uiso   1.00
H400   H     0.67148   0.49426   0.08784   0.00000  Uiso   1.00
H401   H     0.68741   0.44145   0.10250   0.00000  Uiso   1.00
H402   H     0.96458   0.45164   0.09387   0.00000  Uiso   1.00
C403   C     0.16651   0.91333   0.25029   0.00000  Uiso   1.00
C404   C     0.14367   0.83636   0.49274   0.00000  Uiso   1.00
C405   C     0.15077   0.85027   0.43975   0.00000  Uiso   1.00
C406   C     0.18013   0.84434   0.01481   0.00000  Uiso   1.00
C407   C     0.21881   0.87143   0.48775   0.00000  Uiso   1.00
C408   C     0.22143   0.88949   0.43864   0.00000  Uiso   1.00
C409   C     0.18774   0.87922   0.41500   0.00000  Uiso   1.00
C410   C     0.17927   0.82600   0.06317   0.00000  Uiso   1.00
C411   C     0.24839   0.86592   0.06269   0.00000  Uiso   1.00
C412   C     0.12163   0.83397   0.41205   0.00000  Uiso   1.00
C413   C     0.20012   0.97855   0.26709   0.00000  Uiso   1.00
C414   C     0.13965   0.83437   0.35239   0.00000  Uiso   1.00
C415   C     0.20035   0.68793   0.26680   0.00000  Uiso   1.00
C416   C     0.16663   0.70918   0.25032   0.00000  Uiso   1.00
C417   C     0.13259   0.68810   0.23431   0.00000  Uiso   1.00
C418   C     0.13248   0.97875   0.23442   0.00000  Uiso   1.00
C419   C     0.16627   0.95749   0.25074   0.00000  Uiso   1.00
C420   C     0.31772   0.80243   0.22406   0.00000  Uiso   1.00
C421   C     0.03236   0.80257   0.22376   0.00000  Uiso   1.00
C422   C     0.01489   0.86428   0.27650   0.00000  Uiso   1.00
C423   C     0.30072   0.86427   0.27562   0.00000  Uiso   1.00
C424   C     0.16672   0.75333   0.25002   0.00000  Uiso   1.00
C425   C     0.19359   0.83355   0.14773   0.00000  Uiso   1.00
C426   C     0.25350   0.88103   0.01119   0.00000  Uiso   1.00
C427   C     0.21011   0.83940   0.08921   0.00000  Uiso   1.00
C428   C     0.07968   0.81130   0.44067   0.00000  Uiso   1.00
C429   C     0.06670   0.80500   0.49682   0.00000  Uiso   1.00
C430   C     0.10018   0.81563   0.02189   0.00000  Uiso   1.00
H431   H     0.27231   0.87685   0.08295   0.00000  Uiso   1.00
H432   H     0.22645   0.70421   0.27979   0.00000  Uiso   1.00
H433   H     0.10659   0.70450   0.22112   0.00000  Uiso   1.00
H434   H     0.10655   0.96250   0.22114   0.00000  Uiso   1.00
H435   H     0.30623   0.77758   0.20349   0.00000  Uiso   1.00
H436   H     0.05713   0.77796   0.20265   0.00000  Uiso   1.00
H437   H     0.27538   0.88864   0.29645   0.00000  Uiso   1.00
H438   H     0.24983   0.91122   0.41816   0.00000  Uiso   1.00
H439   H     0.28286   0.90200   0.49111   0.00000  Uiso   1.00
H440   H     0.15300   0.80276   0.08347   0.00000  Uiso   1.00
H441   H     0.09134   0.80840   0.06425   0.00000  Uiso   1.00
H442   H     0.19073   0.89442   0.37720   0.00000  Uiso   1.00
H443   H     0.22608   0.96212   0.28032   0.00000  Uiso   1.00
N444   N     0.04760   0.83334   0.25001   0.00000  Uiso   1.00
N445   N     0.28573   0.83331   0.25000   0.00000  Uiso   1.00
O446   O     0.12846   0.89442   0.25000   0.00000  Uiso   1.00
O447   O     0.20490   0.89441   0.25000   0.00000  Uiso   1.00
O448   O     0.10947   0.83333   0.32681   0.00000  Uiso   1.00
O449   O     0.18591   0.83332   0.32681   0.00000  Uiso   1.00
O450   O     0.12843   0.77226   0.24999   0.00000  Uiso   1.00
O451   O     0.20488   0.77225   0.24999   0.00000  Uiso   1.00
O452   O     0.14742   0.83335   0.17319   0.00000  Uiso   1.00
O453   O     0.22387   0.83334   0.17319   0.00000  Uiso   1.00
Zn454  Zn    0.11562   0.83334   0.25000   0.00000  Uiso   1.00
Zn455  Zn    0.21771   0.83333   0.25000   0.00000  Uiso   1.00
C456   C     0.02708   0.89831   0.30720   0.00000  Uiso   1.00
O457   O     0.04421   0.89064   0.34218   0.00000  Uiso   1.00
O458   O     0.01569   0.93941   0.29871   0.00000  Uiso   1.00
H459   H     0.02486   0.96008   0.32275   0.00000  Uiso   1.00
O460   O     0.05003   0.79643   0.41407   0.00000  Uiso   1.00
C461   C     0.06237   0.75440   0.39916   0.00000  Uiso   1.00
H462   H     0.10111   0.75073   0.37327   0.00000  Uiso   1.00
H463   H     0.04075   0.74334   0.37481   0.00000  Uiso   1.00
H464   H     0.05373   0.73427   0.43570   0.00000  Uiso   1.00
O465   O     0.02358   0.78417   0.02312   0.00000  Uiso   1.00
C466   C     0.00319   0.79371   0.07929   0.00000  Uiso   1.00
H467   H     0.00481   0.82760   0.08784   0.00000  Uiso   1.00
H468   H     0.02074   0.77479   0.10250   0.00000  Uiso   1.00
H469   H     0.29792   0.78497   0.09387   0.00000  Uiso   1.00
C470   C     0.49984   0.91333   0.25029   0.00000  Uiso   1.00
C471   C     0.47700   0.83636   0.49274   0.00000  Uiso   1.00
C472   C     0.48410   0.85027   0.43975   0.00000  Uiso   1.00
C473   C     0.51347   0.84434   0.01481   0.00000  Uiso   1.00
C474   C     0.55215   0.87143   0.48775   0.00000  Uiso   1.00
C475   C     0.55476   0.88949   0.43864   0.00000  Uiso   1.00
C476   C     0.52107   0.87922   0.41500   0.00000  Uiso   1.00
C477   C     0.51260   0.82600   0.06317   0.00000  Uiso   1.00
C478   C     0.58173   0.86592   0.06269   0.00000  Uiso   1.00
C479   C     0.45497   0.83397   0.41205   0.00000  Uiso   1.00
C480   C     0.53346   0.97855   0.26709   0.00000  Uiso   1.00
C481   C     0.47298   0.83437   0.35239   0.00000  Uiso   1.00
C482   C     0.53368   0.68793   0.26680   0.00000  Uiso   1.00
C483   C     0.49997   0.70918   0.25032   0.00000  Uiso   1.00
C484   C     0.46593   0.68810   0.23431   0.00000  Uiso   1.00
C485   C     0.46581   0.97875   0.23442   0.00000  Uiso   1.00
C486   C     0.49961   0.95749   0.25074   0.00000  Uiso   1.00
C487   C     0.65105   0.80243   0.22406   0.00000  Uiso   1.00
C488   C     0.36569   0.80257   0.22376   0.00000  Uiso   1.00
C489   C     0.34822   0.86428   0.27650   0.00000  Uiso   1.00
C490   C     0.63406   0.86427   0.27562   0.00000  Uiso   1.00
C491   C     0.50005   0.75333   0.25002   0.00000  Uiso   1.00
C492   C     0.52693   0.83355   0.14773   0.00000  Uiso   1.00
C493   C     0.58683   0.88103   0.01119   0.00000  Uiso   1.00
C494   C     0.54345   0.83940   0.08921   0.00000  Uiso   1.00
C495   C     0.41301   0.81130   0.44067   0.00000  Uiso   1.00
C496   C     0.40003   0.80500   0.49682   0.00000  Uiso   1.00
C497   C     0.43351   0.81563   0.02189   0.00000  Uiso   1.00
H498   H     0.60565   0.87685   0.08295   0.00000  Uiso   1.00
H499   H     0.55978   0.70421   0.27979   0.00000  Uiso   1.00
H500   H     0.43992   0.70450   0.22112   0.00000  Uiso   1.00
H501   H     0.43988   0.96250   0.22114   0.00000  Uiso   1.00
H502   H     0.63957   0.77758   0.20349   0.00000  Uiso   1.00
H503   H     0.39046   0.77796   0.20265   0.00000  Uiso   1.00
H504   H     0.60872   0.88864   0.29645   0.00000  Uiso   1.00
H505   H     0.58316   0.91122   0.41816   0.00000  Uiso   1.00
H506   H     0.61620   0.90200   0.49111   0.00000  Uiso   1.00
H507   H     0.48634   0.80276   0.08347   0.00000  Uiso   1.00
H508   H     0.42468   0.80840   0.06425   0.00000  Uiso   1.00
H509   H     0.52407   0.89442   0.37720   0.00000  Uiso   1.00
H510   H     0.55942   0.96212   0.28032   0.00000  Uiso   1.00
N511   N     0.38093   0.83334   0.25001   0.00000  Uiso   1.00
N512   N     0.61906   0.83331   0.25000   0.00000  Uiso   1.00
O513   O     0.46179   0.89442   0.25000   0.00000  Uiso   1.00
O514   O     0.53823   0.89441   0.25000   0.00000  Uiso   1.00
O515   O     0.44280   0.83333   0.32681   0.00000  Uiso   1.00
O516   O     0.51924   0.83332   0.32681   0.00000  Uiso   1.00
O517   O     0.46177   0.77226   0.24999   0.00000  Uiso   1.00
O518   O     0.53821   0.77225   0.24999   0.00000  Uiso   1.00
O519   O     0.48076   0.83335   0.17319   0.00000  Uiso   1.00
O520   O     0.55720   0.83334   0.17319   0.00000  Uiso   1.00
Zn521  Zn    0.44896   0.83334   0.25000   0.00000  Uiso   1.00
Zn522  Zn    0.55104   0.83333   0.25000   0.00000  Uiso   1.00
C523   C     0.36042   0.89831   0.30720   0.00000  Uiso   1.00
O524   O     0.37754   0.89064   0.34218   0.00000  Uiso   1.00
O525   O     0.34902   0.93941   0.29871   0.00000  Uiso   1.00
H526   H     0.35819   0.96008   0.32275   0.00000  Uiso   1.00
O527   O     0.38337   0.79643   0.41407   0.00000  Uiso   1.00
C528   C     0.39570   0.75440   0.39916   0.00000  Uiso   1.00
H529   H     0.43444   0.75073   0.37327   0.00000  Uiso   1.00
H530   H     0.37409   0.74334   0.37481   0.00000  Uiso   1.00
H531   H     0.38706   0.73427   0.43570   0.00000  Uiso   1.00
O532   O     0.35691   0.78417   0.02312   0.00000  Uiso   1.00
C533   C     0.33653   0.79371   0.07929   0.00000  Uiso   1.00
H534   H     0.33815   0.82760   0.08784   0.00000  Uiso   1.00
H535   H     0.35408   0.77479   0.10250   0.00000  Uiso   1.00
H536   H     0.63125   0.78497   0.09387   0.00000  Uiso   1.00
C537   C     0.83317   0.91333   0.25029   0.00000  Uiso   1.00
C538   C     0.81033   0.83636   0.49274   0.00000  Uiso   1.00
C539   C     0.81744   0.85027   0.43975   0.00000  Uiso   1.00
C540   C     0.84680   0.84434   0.01481   0.00000  Uiso   1.00
C541   C     0.88548   0.87143   0.48775   0.00000  Uiso   1.00
C542   C     0.88809   0.88949   0.43864   0.00000  Uiso   1.00
C543   C     0.85441   0.87922   0.41500   0.00000  Uiso   1.00
C544   C     0.84593   0.82600   0.06317   0.00000  Uiso   1.00
C545   C     0.91506   0.86592   0.06269   0.00000  Uiso   1.00
C546   C     0.78830   0.83397   0.41205   0.00000  Uiso   1.00
C547   C     0.86679   0.97855   0.26709   0.00000  Uiso   1.00
C548   C     0.80632   0.83437   0.35239   0.00000  Uiso   1.00
C549   C     0.86702   0.68793   0.26680   0.00000  Uiso   1.00
C550   C     0.83330   0.70918   0.25032   0.00000  Uiso   1.00
C551   C     0.79926   0.68810   0.23431   0.00000  Uiso   1.00
C552   C     0.79914   0.97875   0.23442   0.00000  Uiso   1.00
C553   C     0.83294   0.95749   0.25074   0.00000  Uiso   1.00
C554   C     0.98439   0.80243   0.22406   0.00000  Uiso   1.00
C555   C     0.69902   0.80257   0.22376   0.00000  Uiso   1.00
C556   C     0.68156   0.86428   0.27650   0.00000  Uiso   1.00
C557   C     0.96739   0.86427   0.27562   0.00000  Uiso   1.00
C558   C     0.83339   0.75333   0.25002   0.00000  Uiso   1.00
C559   C     0.86026   0.83355   0.14773   0.00000  Uiso   1.00
C560   C     0.92017   0.88103   0.01119   0.00000  Uiso   1.00
C561   C     0.87678   0.83940   0.08921   0.00000  Uiso   1.00
C562   C     0.74634   0.81130   0.44067   0.00000  Uiso   1.00
C563   C     0.73336   0.80500   0.49682   0.00000  Uiso   1.00
C564   C     0.76685   0.81563   0.02189   0.00000  Uiso   1.00
H565   H     0.93898   0.87685   0.08295   0.00000  Uiso   1.00
H566   H     0.89312   0.70421   0.27979   0.00000  Uiso   1.00
H567   H     0.77325   0.70450   0.22112   0.00000  Uiso   1.00
H568   H     0.77321   0.96250   0.22114   0.00000  Uiso   1.00
H569   H     0.97290   0.77758   0.20349   0.00000  Uiso   1.00
H570   H     0.72380   0.77796   0.20265   0.00000  Uiso   1.00
H571   H     0.94205   0.88864   0.29645   0.00000  Uiso   1.00
H572   H     0.91650   0.91122   0.41816   0.00000  Uiso   1.00
H573   H     0.94953   0.90200   0.49111   0.00000  Uiso   1.00
H574   H     0.81967   0.80276   0.08347   0.00000  Uiso   1.00
H575   H     0.75801   0.80840   0.06425   0.00000  Uiso   1.00
H576   H     0.85740   0.89442   0.37720   0.00000  Uiso   1.00
H577   H     0.89275   0.96212   0.28032   0.00000  Uiso   1.00
N578   N     0.71426   0.83334   0.25001   0.00000  Uiso   1.00
N579   N     0.95239   0.83331   0.25000   0.00000  Uiso   1.00
O580   O     0.79512   0.89442   0.25000   0.00000  Uiso   1.00
O581   O     0.87157   0.89441   0.25000   0.00000  Uiso   1.00
O582   O     0.77613   0.83333   0.32681   0.00000  Uiso   1.00
O583   O     0.85258   0.83332   0.32681   0.00000  Uiso   1.00
O584   O     0.79510   0.77226   0.24999   0.00000  Uiso   1.00
O585   O     0.87154   0.77225   0.24999   0.00000  Uiso   1.00
O586   O     0.81409   0.83335   0.17319   0.00000  Uiso   1.00
O587   O     0.89053   0.83334   0.17319   0.00000  Uiso   1.00
Zn588  Zn    0.78229   0.83334   0.25000   0.00000  Uiso   1.00
Zn589  Zn    0.88438   0.83333   0.25000   0.00000  Uiso   1.00
C590   C     0.69375   0.89831   0.30720   0.00000  Uiso   1.00
O591   O     0.71087   0.89064   0.34218   0.00000  Uiso   1.00
O592   O     0.68235   0.93941   0.29871   0.00000  Uiso   1.00
H593   H     0.69152   0.96008   0.32275   0.00000  Uiso   1.00
O594   O     0.71670   0.79643   0.41407   0.00000  Uiso   1.00
C595   C     0.72903   0.75440   0.39916   0.00000  Uiso   1.00
H596   H     0.76778   0.75073   0.37327   0.00000  Uiso   1.00
H597   H     0.70742   0.74334   0.37481   0.00000  Uiso   1.00
H598   H     0.72040   0.73427   0.43570   0.00000  Uiso   1.00
O599   O     0.69024   0.78417   0.02312   0.00000  Uiso   1.00
C600   C     0.66986   0.79371   0.07929   0.00000  Uiso   1.00
H601   H     0.67148   0.82760   0.08784   0.00000  Uiso   1.00
H602   H     0.68741   0.77479   0.10250   0.00000  Uiso   1.00
H603   H     0.96458   0.78497   0.09387   0.00000  Uiso   1.00
C604   C     0.16651   0.24667   0.75029   0.00000  Uiso   1.00
C605   C     0.14367   0.16970   0.99274   0.00000  Uiso   1.00
C606   C     0.15077   0.18360   0.93975   0.00000  Uiso   1.00
C607   C     0.18013   0.17767   0.51481   0.00000  Uiso   1.00
C608   C     0.21881   0.20476   0.98775   0.00000  Uiso   1.00
C609   C     0.22143   0.22282   0.93864   0.00000  Uiso   1.00
C610   C     0.18774   0.21256   0.91500   0.00000  Uiso   1.00
C611   C     0.17927   0.15933   0.56317   0.00000  Uiso   1.00
C612   C     0.24839   0.19925   0.56269   0.00000  Uiso   1.00
C613   C     0.12163   0.16730   0.91205   0.00000  Uiso   1.00
C614   C     0.20012   0.31188   0.76709   0.00000  Uiso   1.00
C615   C     0.13965   0.16770   0.85239   0.00000  Uiso   1.00
C616   C     0.20035   0.02126   0.76680   0.00000  Uiso   1.00
C617   C     0.16663   0.04251   0.75032   0.00000  Uiso   1.00
C618   C     0.13259   0.02144   0.73431   0.00000  Uiso   1.00
C619   C     0.13248   0.31209   0.73442   0.00000  Uiso   1.00
C620   C     0.16627   0.29082   0.75074   0.00000  Uiso   1.00
C621   C     0.31772   0.13576   0.72406   0.00000  Uiso   1.00
C622   C     0.03236   0.13590   0.72376   0.00000  Uiso   1.00
C623   C     0.01489   0.19761   0.77650   0.00000  Uiso   1.00
C624   C     0.30072   0.19760   0.77562   0.00000  Uiso   1.00
C625   C     0.16672   0.08667   0.75002   0.00000  Uiso   1.00
C626   C     0.19359   0.16688   0.64773   0.00000  Uiso   1.00
C627   C     0.25350   0.21437   0.51119   0.00000  Uiso   1.00
C628   C     0.21011   0.17273   0.58921   0.00000  Uiso   1.00
C629   C     0.07968   0.14463   0.94067   0.00000  Uiso   1.00
C630   C     0.06670   0.13833   0.99682   0.00000  Uiso   1.00
C631   C     0.10018   0.14896   0.52189   0.00000  Uiso   1.00
H632   H     0.27231   0.21018   0.58295   0.00000  Uiso   1.00
H633   H     0.22645   0.03754   0.77979   0.00000  Uiso   1.00
H634   H     0.10659   0.03783   0.72112   0.00000  Uiso   1.00
H635   H     0.10655   0.29583   0.72114   0.00000  Uiso   1.00
H636   H     0.30623   0.11091   0.70349   0.00000  Uiso   1.00
H637   H     0.05713   0.11129   0.70265   0.00000  Uiso   1.00
H638   H     0.27538   0.22197   0.79645   0.00000  Uiso   1.00
H639   H     0.24983   0.24455   0.91816   0.00000  Uiso   1.00
H640   H     0.28286   0.23533   0.99111   0.00000  Uiso   1.00
H641   H     0.15300   0.13609   0.58347   0.00000  Uiso   1.00
H642   H     0.09134   0.14173   0.56425   0.00000  Uiso   1.00
H643   H     0.19073   0.22775   0.87720   0.00000  Uiso   1.00
H644   H     0.22608   0.29545   0.78032   0.00000  Uiso   1.00
N645   N     0.04760   0.16668   0.75001   0.00000  Uiso   1.00
N646   N     0.28573   0.16665   0.75000   0.00000  Uiso   1.00
O647   O     0.12846   0.22775   0.75000   0.00000  Uiso   1.00
O648   O     0.20490   0.22774   0.75000   0.00000  Uiso   1.00
O649   O     0.10947   0.16666   0.82681   0.00000  Uiso   1.00
O650   O     0.18591   0.16665   0.82681   0.00000  Uiso   1.00
O651   O     0.12843   0.10559   0.74999   0.00000  Uiso   1.00
O652   O     0.20488   0.10558   0.74999   0.00000  Uiso   1.00
O653   O     0.14742   0.16668   0.67319   0.00000  Uiso   1.00
O654   O     0.22387   0.16667   0.67319   0.00000  Uiso   1.00
Zn655  Zn    0.11562   0.16667   0.75000   0.00000  Uiso   1.00
Zn656  Zn    0.21771   0.16666   0.75000   0.00000  Uiso   1.00
C657   C     0.02708   0.23164   0.80720   0.00000  Uiso   1.00
O658   O     0.04421   0.22397   0.84218   0.00000  Uiso   1.00
O659   O     0.01569   0.27274   0.79871   0.00000  Uiso   1.00
H660   H     0.02486   0.29342   0.82275   0.00000  Uiso   1.00
O661   O     0.05003   0.12976   0.91407   0.00000  Uiso   1.00
C662   C     0.06237   0.08773   0.89916   0.00000  Uiso   1.00
H663   H     0.10111   0.08406   0.87327   0.00000  Uiso   1.00
H664   H     0.04075   0.07668   0.87481   0.00000  Uiso   1.00
H665   H     0.05373   0.06760   0.93570   0.00000  Uiso   1.00
O666   O     0.02358   0.11751   0.52312   0.00000  Uiso   1.00
C667   C     0.00319   0.12705   0.57929   0.00000  Uiso   1.00
H668   H     0.00481   0.16093   0.58784   0.00000  Uiso   1.00
H669   H     0.02074   0.10812   0.60250   0.00000  Uiso   1.00
H670   H     0.29792   0.11831   0.59387   0.00000  Uiso   1.00
C671   C     0.49984   0.24667   0.75029   0.00000  Uiso   1.00
C672   C     0.47700   0.16970   0.99274   0.00000  Uiso   1.00
C673   C     0.48410   0.18360   0.93975   0.00000  Uiso   1.00
C674   C     0.51347   0.17767   0.51481   0.00000  Uiso   1.00
C675   C     0.55215   0.20476   0.98775   0.00000  Uiso   1.00
C676   C     0.55476   0.22282   0.93864   0.00000  Uiso   1.00
C677   C     0.52107   0.21256   0.91500   0.00000  Uiso   1.00
C678   C     0.51260   0.15933   0.56317   0.00000  Uiso   1.00
C679   C     0.58173   0.19925   0.56269   0.00000  Uiso   1.00
C680   C     0.45497   0.16730   0.91205   0.00000  Uiso   1.00
C681   C     0.53346   0.31188   0.76709   0.00000  Uiso   1.00
C682   C     0.47298   0.16770   0.85239   0.00000  Uiso   1.00
C683   C     0.53368   0.02126   0.76680   0.00000  Uiso   1.00
C684   C     0.49997   0.04251   0.75032   0.00000  Uiso   1.00
C685   C     0.46593   0.02144   0.73431   0.00000  Uiso   1.00
C686   C     0.46581   0.31209   0.73442   0.00000  Uiso   1.00
C687   C     0.49961   0.29082   0.75074   0.00000  Uiso   1.00
C688   C     0.65105   0.13576   0.72406   0.00000  Uiso   1.00
C689   C     0.36569   0.13590   0.72376   0.00000  Uiso   1.00
C690   C     0.34822   0.19761   0.77650   0.00000  Uiso   1.00
C691   C     0.63406   0.19760   0.77562   0.00000  Uiso   1.00
C692   C     0.50005   0.08667   0.75002   0.00000  Uiso   1.00
C693   C     0.52693   0.16688   0.64773   0.00000  Uiso   1.00
C694   C     0.58683   0.21437   0.51119   0.00000  Uiso   1.00
C695   C     0.54345   0.17273   0.58921   0.00000  Uiso   1.00
C696   C     0.41301   0.14463   0.94067   0.00000  Uiso   1.00
C697   C     0.40003   0.13833   0.99682   0.00000  Uiso   1.00
C698   C     0.43351   0.14896   0.52189   0.00000  Uiso   1.00
H699   H     0.60565   0.21018   0.58295   0.00000  Uiso   1.00
H700   H     0.55978   0.03754   0.77979   0.00000  Uiso   1.00
H701   H     0.43992   0.03783   0.72112   0.00000  Uiso   1.00
H702   H     0.43988   0.29583   0.72114   0.00000  Uiso   1.00
H703   H     0.63957   0.11091   0.70349   0.00000  Uiso   1.00
H704   H     0.39046   0.11129   0.70265   0.00000  Uiso   1.00
H705   H     0.60872   0.22197   0.79645   0.00000  Uiso   1.00
H706   H     0.58316   0.24455   0.91816   0.00000  Uiso   1.00
H707   H     0.61620   0.23533   0.99111   0.00000  Uiso   1.00
H708   H     0.48634   0.13609   0.58347   0.00000  Uiso   1.00
H709   H     0.42468   0.14173   0.56425   0.00000  Uiso   1.00
H710   H     0.52407   0.22775   0.87720   0.00000  Uiso   1.00
H711   H     0.55942   0.29545   0.78032   0.00000  Uiso   1.00
N712   N     0.38093   0.16668   0.75001   0.00000  Uiso   1.00
N713   N     0.61906   0.16665   0.75000   0.00000  Uiso   1.00
O714   O     0.46179   0.22775   0.75000   0.00000  Uiso   1.00
O715   O     0.53823   0.22774   0.75000   0.00000  Uiso   1.00
O716   O     0.44280   0.16666   0.82681   0.00000  Uiso   1.00
O717   O     0.51924   0.16665   0.82681   0.00000  Uiso   1.00
O718   O     0.46177   0.10559   0.74999   0.00000  Uiso   1.00
O719   O     0.53821   0.10558   0.74999   0.00000  Uiso   1.00
O720   O     0.48076   0.16668   0.67319   0.00000  Uiso   1.00
O721   O     0.55720   0.16667   0.67319   0.00000  Uiso   1.00
Zn722  Zn    0.44896   0.16667   0.75000   0.00000  Uiso   1.00
Zn723  Zn    0.55104   0.16666   0.75000   0.00000  Uiso   1.00
C724   C     0.36042   0.23164   0.80720   0.00000  Uiso   1.00
O725   O     0.37754   0.22397   0.84218   0.00000  Uiso   1.00
O726   O     0.34902   0.27274   0.79871   0.00000  Uiso   1.00
H727   H     0.35819   0.29342   0.82275   0.00000  Uiso   1.00
O728   O     0.38337   0.12976   0.91407   0.00000  Uiso   1.00
C729   C     0.39570   0.08773   0.89916   0.00000  Uiso   1.00
H730   H     0.43444   0.08406   0.87327   0.00000  Uiso   1.00
H731   H     0.37409   0.07668   0.87481   0.00000  Uiso   1.00
H732   H     0.38706   0.06760   0.93570   0.00000  Uiso   1.00
O733   O     0.35691   0.11751   0.52312   0.00000  Uiso   1.00
C734   C     0.33653   0.12705   0.57929   0.00000  Uiso   1.00
H735   H     0.33815   0.16093   0.58784   0.00000  Uiso   1.00
H736   H     0.35408   0.10812   0.60250   0.00000  Uiso   1.00
H737   H     0.63125   0.11831   0.59387   0.00000  Uiso   1.00
C738   C     0.83317   0.24667   0.75029   0.00000  Uiso   1.00
C739   C     0.81033   0.16970   0.99274   0.00000  Uiso   1.00
C740   C     0.81744   0.18360   0.93975   0.00000  Uiso   1.00
C741   C     0.84680   0.17767   0.51481   0.00000  Uiso   1.00
C742   C     0.88548   0.20476   0.98775   0.00000  Uiso   1.00
C743   C     0.88809   0.22282   0.93864   0.00000  Uiso   1.00
C744   C     0.85441   0.21256   0.91500   0.00000  Uiso   1.00
C745   C     0.84593   0.15933   0.56317   0.00000  Uiso   1.00
C746   C     0.91506   0.19925   0.56269   0.00000  Uiso   1.00
C747   C     0.78830   0.16730   0.91205   0.00000  Uiso   1.00
C748   C     0.86679   0.31188   0.76709   0.00000  Uiso   1.00
C749   C     0.80632   0.16770   0.85239   0.00000  Uiso   1.00
C750   C     0.86702   0.02126   0.76680   0.00000  Uiso   1.00
C751   C     0.83330   0.04251   0.75032   0.00000  Uiso   1.00
C752   C     0.79926   0.02144   0.73431   0.00000  Uiso   1.00
C753   C     0.79914   0.31209   0.73442   0.00000  Uiso   1.00
C754   C     0.83294   0.29082   0.75074   0.00000  Uiso   1.00
C755   C     0.98439   0.13576   0.72406   0.00000  Uiso   1.00
C756   C     0.69902   0.13590   0.72376   0.00000  Uiso   1.00
C757   C     0.68156   0.19761   0.77650   0.00000  Uiso   1.00
C758   C     0.96739   0.19760   0.77562   0.00000  Uiso   1.00
C759   C     0.83339   0.08667   0.75002   0.00000  Uiso   1.00
C760   C     0.86026   0.16688   0.64773   0.00000  Uiso   1.00
C761   C     0.92017   0.21437   0.51119   0.00000  Uiso   1.00
C762   C     0.87678   0.17273   0.58921   0.00000  Uiso   1.00
C763   C     0.74634   0.14463   0.94067   0.00000  Uiso   1.00
C764   C     0.73336   0.13833   0.99682   0.00000  Uiso   1.00
C765   C     0.76685   0.14896   0.52189   0.00000  Uiso   1.00
H766   H     0.93898   0.21018   0.58295   0.00000  Uiso   1.00
H767   H     0.89312   0.03754   0.77979   0.00000  Uiso   1.00
H768   H     0.77325   0.03783   0.72112   0.00000  Uiso   1.00
H769   H     0.77321   0.29583   0.72114   0.00000  Uiso   1.00
H770   H     0.97290   0.11091   0.70349   0.00000  Uiso   1.00
H771   H     0.72380   0.11129   0.70265   0.00000  Uiso   1.00
H772   H     0.94205   0.22197   0.79645   0.00000  Uiso   1.00
H773   H     0.91650   0.24455   0.91816   0.00000  Uiso   1.00
H774   H     0.94953   0.23533   0.99111   0.00000  Uiso   1.00
H775   H     0.81967   0.13609   0.58347   0.00000  Uiso   1.00
H776   H     0.75801   0.14173   0.56425   0.00000  Uiso   1.00
H777   H     0.85740   0.22775   0.87720   0.00000  Uiso   1.00
H778   H     0.89275   0.29545   0.78032   0.00000  Uiso   1.00
N779   N     0.71426   0.16668   0.75001   0.00000  Uiso   1.00
N780   N     0.95239   0.16665   0.75000   0.00000  Uiso   1.00
O781   O     0.79512   0.22775   0.75000   0.00000  Uiso   1.00
O782   O     0.87157   0.22774   0.75000   0.00000  Uiso   1.00
O783   O     0.77613   0.16666   0.82681   0.00000  Uiso   1.00
O784   O     0.85258   0.16665   0.82681   0.00000  Uiso   1.00
O785   O     0.79510   0.10559   0.74999   0.00000  Uiso   1.00
O786   O     0.87154   0.10558   0.74999   0.00000  Uiso   1.00
O787   O     0.81409   0.16668   0.67319   0.00000  Uiso   1.00
O788   O     0.89053   0.16667   0.67319   0.00000  Uiso   1.00
Zn789  Zn    0.78229   0.16667   0.75000   0.00000  Uiso   1.00
Zn790  Zn    0.88438   0.16666   0.75000   0.00000  Uiso   1.00
C791   C     0.69375   0.23164   0.80720   0.00000  Uiso   1.00
O792   O     0.71087   0.22397   0.84218   0.00000  Uiso   1.00
O793   O     0.68235   0.27274   0.79871   0.00000  Uiso   1.00
H794   H     0.69152   0.29342   0.82275   0.00000  Uiso   1.00
O795   O     0.71670   0.12976   0.91407   0.00000  Uiso   1.00
C796   C     0.72903   0.08773   0.89916   0.00000  Uiso   1.00
H797   H     0.76778   0.08406   0.87327   0.00000  Uiso   1.00
H798   H     0.70742   0.07668   0.87481   0.00000  Uiso   1.00
H799   H     0.72040   0.06760   0.93570   0.00000  Uiso   1.00
O800   O     0.69024   0.11751   0.52312   0.00000  Uiso   1.00
C801   C     0.66986   0.12705   0.57929   0.00000  Uiso   1.00
H802   H     0.67148   0.16093   0.58784   0.00000  Uiso   1.00
H803   H     0.68741   0.10812   0.60250   0.00000  Uiso   1.00
H804   H     0.96458   0.11831   0.59387   0.00000  Uiso   1.00
C805   C     0.16651   0.58000   0.75029   0.00000  Uiso   1.00
C806   C     0.14367   0.50303   0.99274   0.00000  Uiso   1.00
C807   C     0.15077   0.51693   0.93975   0.00000  Uiso   1.00
C808   C     0.18013   0.51100   0.51481   0.00000  Uiso   1.00
C809   C     0.21881   0.53809   0.98775   0.00000  Uiso   1.00
C810   C     0.22143   0.55616   0.93864   0.00000  Uiso   1.00
C811   C     0.18774   0.54589   0.91500   0.00000  Uiso   1.00
C812   C     0.17927   0.49266   0.56317   0.00000  Uiso   1.00
C813   C     0.24839   0.53258   0.56269   0.00000  Uiso   1.00
C814   C     0.12163   0.50064   0.91205   0.00000  Uiso   1.00
C815   C     0.20012   0.64522   0.76709   0.00000  Uiso   1.00
C816   C     0.13965   0.50103   0.85239   0.00000  Uiso   1.00
C817   C     0.20035   0.35459   0.76680   0.00000  Uiso   1.00
C818   C     0.16663   0.37584   0.75032   0.00000  Uiso   1.00
C819   C     0.13259   0.35477   0.73431   0.00000  Uiso   1.00
C820   C     0.13248   0.64542   0.73442   0.00000  Uiso   1.00
C821   C     0.16627   0.62416   0.75074   0.00000  Uiso   1.00
C822   C     0.31772   0.46910   0.72406   0.00000  Uiso   1.00
C823   C     0.03236   0.46924   0.72376   0.00000  Uiso   1.00
C824   C     0.01489   0.53095   0.77650   0.00000  Uiso   1.00
C825   C     0.30072   0.53093   0.77562   0.00000  Uiso   1.00
C826   C     0.16672   0.42000   0.75002   0.00000  Uiso   1.00
C827   C     0.19359   0.50021   0.64773   0.00000  Uiso   1.00
C828   C     0.25350   0.54770   0.51119   0.00000  Uiso   1.00
C829   C     0.21011   0.50606   0.58921   0.00000  Uiso   1.00
C830   C     0.07968   0.47797   0.94067   0.00000  Uiso   1.00
C831   C     0.06670   0.47166   0.99682   0.00000  Uiso   1.00
C832   C     0.10018   0.48230   0.52189   0.00000  Uiso   1.00
H833   H     0.27231   0.54351   0.58295   0.00000  Uiso   1.00
H834   H     0.22645   0.37088   0.77979   0.00000  Uiso   1.00
H835   H     0.10659   0.37116   0.72112   0.00000  Uiso   1.00
H836   H     0.10655   0.62916   0.72114   0.00000  Uiso   1.00
H837   H     0.30623   0.44424   0.70349   0.00000  Uiso   1.00
H838   H     0.05713   0.44463   0.70265   0.00000  Uiso   1.00
H839   H     0.27538   0.55531   0.79645   0.00000  Uiso   1.00
H840   H     0.24983   0.57788   0.91816   0.00000  Uiso   1.00
H841   H     0.28286   0.56866   0.99111   0.00000  Uiso   1.00
H842   H     0.15300   0.46942   0.58347   0.00000  Uiso   1.00
H843   H     0.09134   0.47506   0.56425   0.00000  Uiso   1.00
H844   H     0.19073   0.56108   0.87720   0.00000  Uiso   1.00
H845   H     0.22608   0.62878   0.78032   0.00000  Uiso   1.00
N846   N     0.04760   0.50001   0.75001   0.00000  Uiso   1.00
N847   N     0.28573   0.49998   0.75000   0.00000  Uiso   1.00
O848   O     0.12846   0.56108   0.75000   0.00000  Uiso   1.00
O849   O     0.20490   0.56107   0.75000   0.00000  Uiso   1.00
O850   O     0.10947   0.50000   0.82681   0.00000  Uiso   1.00
O851   O     0.18591   0.49999   0.82681   0.00000  Uiso   1.00
O852   O     0.12843   0.43893   0.74999   0.00000  Uiso   1.00
O853   O     0.20488   0.43892   0.74999   0.00000  Uiso   1.00
O854   O     0.14742   0.50001   0.67319   0.00000  Uiso   1.00
O855   O     0.22387   0.50000   0.67319   0.00000  Uiso   1.00
Zn856  Zn    0.11562   0.50001   0.75000   0.00000  Uiso   1.00
Zn857  Zn    0.21771   0.49999   0.75000   0.00000  Uiso   1.00
C858   C     0.02708   0.56498   0.80720   0.00000  Uiso   1.00
O859   O     0.04421   0.55731   0.84218   0.00000  Uiso   1.00
O860   O     0.01569   0.60607   0.79871   0.00000  Uiso   1.00
H861   H     0.02486   0.62675   0.82275   0.00000  Uiso   1.00
O862   O     0.05003   0.46310   0.91407   0.00000  Uiso   1.00
C863   C     0.06237   0.42107   0.89916   0.00000  Uiso   1.00
H864   H     0.10111   0.41739   0.87327   0.00000  Uiso   1.00
H865   H     0.04075   0.41001   0.87481   0.00000  Uiso   1.00
H866   H     0.05373   0.40093   0.93570   0.00000  Uiso   1.00
O867   O     0.02358   0.45084   0.52312   0.00000  Uiso   1.00
C868   C     0.00319   0.46038   0.57929   0.00000  Uiso   1.00
H869   H     0.00481   0.49426   0.58784   0.00000  Uiso   1.00
H870   H     0.02074   0.44145   0.60250   0.00000  Uiso   1.00
H871   H     0.29792   0.45164   0.59387   0.00000  Uiso   1.00
C872   C     0.49984   0.58000   0.75029   0.00000  Uiso   1.00
C873   C     0.47700   0.50303   0.99274   0.00000  Uiso   1.00
C874   C     0.48410   0.51693   0.93975   0.00000  Uiso   1.00
C875   C     0.51347   0.51100   0.51481   0.00000  Uiso   1.00
C876   C     0.55215   0.53809   0.98775   0.00000  Uiso   1.00
C877   C     0.55476   0.55616   0.93864   0.00000  Uiso   1.00
C878   C     0.52107   0.54589   0.91500   0.00000  Uiso   1.00
C879   C     0.51260   0.49266   0.56317   0.00000  Uiso   1.00
C880   C     0.58173   0.53258   0.56269   0.00000  Uiso   1.00
C881   C     0.45497   0.50064   0.91205   0.00000  Uiso   1.00
C882   C     0.53346   0.64522   0.76709   0.00000  Uiso   1.00
C883   C     0.47298   0.50103   0.85239   0.00000  Uiso   1.00
C884   C     0.53368   0.35459   0.76680   0.00000  Uiso   1.00
C885   C     0.49997   0.37584   0.75032   0.00000  Uiso   1.00
C886   C     0.46593   0.35477   0.73431   0.00000  Uiso   1.00
C887   C     0.46581   0.64542   0.73442   0.00000  Uiso   1.00
C888   C     0.49961   0.62416   0.75074   0.00000  Uiso   1.00
C889   C     0.65105   0.46910   0.72406   0.00000  Uiso   1.00
C890   C     0.36569   0.46924   0.72376   0.00000  Uiso   1.00
C891   C     0.34822   0.53095   0.77650   0.00000  Uiso   1.00
C892   C     0.63406   0.53093   0.77562   0.00000  Uiso   1.00
C893   C     0.50005   0.42000   0.75002   0.00000  Uiso   1.00
C894   C     0.52693   0.50021   0.64773   0.00000  Uiso   1.00
C895   C     0.58683   0.54770   0.51119   0.00000  Uiso   1.00
C896   C     0.54345   0.50606   0.58921   0.00000  Uiso   1.00
C897   C     0.41301   0.47797   0.94067   0.00000  Uiso   1.00
C898   C     0.40003   0.47166   0.99682   0.00000  Uiso   1.00
C899   C     0.43351   0.48230   0.52189   0.00000  Uiso   1.00
H900   H     0.60565   0.54351   0.58295   0.00000  Uiso   1.00
H901   H     0.55978   0.37088   0.77979   0.00000  Uiso   1.00
H902   H     0.43992   0.37116   0.72112   0.00000  Uiso   1.00
H903   H     0.43988   0.62916   0.72114   0.00000  Uiso   1.00
H904   H     0.63957   0.44424   0.70349   0.00000  Uiso   1.00
H905   H     0.39046   0.44463   0.70265   0.00000  Uiso   1.00
H906   H     0.60872   0.55531   0.79645   0.00000  Uiso   1.00
H907   H     0.58316   0.57788   0.91816   0.00000  Uiso   1.00
H908   H     0.61620   0.56866   0.99111   0.00000  Uiso   1.00
H909   H     0.48634   0.46942   0.58347   0.00000  Uiso   1.00
H910   H     0.42468   0.47506   0.56425   0.00000  Uiso   1.00
H911   H     0.52407   0.56108   0.87720   0.00000  Uiso   1.00
H912   H     0.55942   0.62878   0.78032   0.00000  Uiso   1.00
N913   N     0.38093   0.50001   0.75001   0.00000  Uiso   1.00
N914   N     0.61906   0.49998   0.75000   0.00000  Uiso   1.00
O915   O     0.46179   0.56108   0.75000   0.00000  Uiso   1.00
O916   O     0.53823   0.56107   0.75000   0.00000  Uiso   1.00
O917   O     0.44280   0.50000   0.82681   0.00000  Uiso   1.00
O918   O     0.51924   0.49999   0.82681   0.00000  Uiso   1.00
O919   O     0.46177   0.43893   0.74999   0.00000  Uiso   1.00
O920   O     0.53821   0.43892   0.74999   0.00000  Uiso   1.00
O921   O     0.48076   0.50001   0.67319   0.00000  Uiso   1.00
O922   O     0.55720   0.50000   0.67319   0.00000  Uiso   1.00
Zn923  Zn    0.44896   0.50001   0.75000   0.00000  Uiso   1.00
Zn924  Zn    0.55104   0.49999   0.75000   0.00000  Uiso   1.00
C925   C     0.36042   0.56498   0.80720   0.00000  Uiso   1.00
O926   O     0.37754   0.55731   0.84218   0.00000  Uiso   1.00
O927   O     0.34902   0.60607   0.79871   0.00000  Uiso   1.00
H928   H     0.35819   0.62675   0.82275   0.00000  Uiso   1.00
O929   O     0.38337   0.46310   0.91407   0.00000  Uiso   1.00
C930   C     0.39570   0.42107   0.89916   0.00000  Uiso   1.00
H931   H     0.43444   0.41739   0.87327   0.00000  Uiso   1.00
H932   H     0.37409   0.41001   0.87481   0.00000  Uiso   1.00
H933   H     0.38706   0.40093   0.93570   0.00000  Uiso   1.00
O934   O     0.35691   0.45084   0.52312   0.00000  Uiso   1.00
C935   C     0.33653   0.46038   0.57929   0.00000  Uiso   1.00
H936   H     0.33815   0.49426   0.58784   0.00000  Uiso   1.00
H937   H     0.35408   0.44145   0.60250   0.00000  Uiso   1.00
H938   H     0.63125   0.45164   0.59387   0.00000  Uiso   1.00
C939   C     0.83317   0.58000   0.75029   0.00000  Uiso   1.00
C940   C     0.81033   0.50303   0.99274   0.00000  Uiso   1.00
C941   C     0.81744   0.51693   0.93975   0.00000  Uiso   1.00
C942   C     0.84680   0.51100   0.51481   0.00000  Uiso   1.00
C943   C     0.88548   0.53809   0.98775   0.00000  Uiso   1.00
C944   C     0.88809   0.55616   0.93864   0.00000  Uiso   1.00
C945   C     0.85441   0.54589   0.91500   0.00000  Uiso   1.00
C946   C     0.84593   0.49266   0.56317   0.00000  Uiso   1.00
C947   C     0.91506   0.53258   0.56269   0.00000  Uiso   1.00
C948   C     0.78830   0.50064   0.91205   0.00000  Uiso   1.00
C949   C     0.86679   0.64522   0.76709   0.00000  Uiso   1.00
C950   C     0.80632   0.50103   0.85239   0.00000  Uiso   1.00
C951   C     0.86702   0.35459   0.76680   0.00000  Uiso   1.00
C952   C     0.83330   0.37584   0.75032   0.00000  Uiso   1.00
C953   C     0.79926   0.35477   0.73431   0.00000  Uiso   1.00
C954   C     0.79914   0.64542   0.73442   0.00000  Uiso   1.00
C955   C     0.83294   0.62416   0.75074   0.00000  Uiso   1.00
C956   C     0.98439   0.46910   0.72406   0.00000  Uiso   1.00
C957   C     0.69902   0.46924   0.72376   0.00000  Uiso   1.00
C958   C     0.68156   0.53095   0.77650   0.00000  Uiso   1.00
C959   C     0.96739   0.53093   0.77562   0.00000  Uiso   1.00
C960   C     0.83339   0.42000   0.75002   0.00000  Uiso   1.00
C961   C     0.86026   0.50021   0.64773   0.00000  Uiso   1.00
C962   C     0.92017   0.54770   0.51119   0.00000  Uiso   1.00
C963   C     0.87678   0.50606   0.58921   0.00000  Uiso   1.00
C964   C     0.74634   0.47797   0.94067   0.00000  Uiso   1.00
C965   C     0.73336   0.47166   0.99682   0.00000  Uiso   1.00
C966   C     0.76685   0.48230   0.52189   0.00000  Uiso   1.00
H967   H     0.93898   0.54351   0.58295   0.00000  Uiso   1.00
H968   H     0.89312   0.37088   0.77979   0.00000  Uiso   1.00
H969   H     0.77325   0.37116   0.72112   0.00000  Uiso   1.00
H970   H     0.77321   0.62916   0.72114   0.00000  Uiso   1.00
H971   H     0.97290   0.44424   0.70349   0.00000  Uiso   1.00
H972   H     0.72380   0.44463   0.70265   0.00000  Uiso   1.00
H973   H     0.94205   0.55531   0.79645   0.00000  Uiso   1.00
H974   H     0.91650   0.57788   0.91816   0.00000  Uiso   1.00
H975   H     0.94953   0.56866   0.99111   0.00000  Uiso   1.00
H976   H     0.81967   0.46942   0.58347   0.00000  Uiso   1.00
H977   H     0.75801   0.47506   0.56425   0.00000  Uiso   1.00
H978   H     0.85740   0.56108   0.87720   0.00000  Uiso   1.00
H979   H     0.89275   0.62878   0.78032   0.00000  Uiso   1.00
N980   N     0.71426   0.50001   0.75001   0.00000  Uiso   1.00
N981   N     0.95239   0.49998   0.75000   0.00000  Uiso   1.00
O982   O     0.79512   0.56108   0.75000   0.00000  Uiso   1.00
O983   O     0.87157   0.56107   0.75000   0.00000  Uiso   1.00
O984   O     0.77613   0.50000   0.82681   0.00000  Uiso   1.00
O985   O     0.85258   0.49999   0.82681   0.00000  Uiso   1.00
O986   O     0.79510   0.43893   0.74999   0.00000  Uiso   1.00
O987   O     0.87154   0.43892   0.74999   0.00000  Uiso   1.00
O988   O     0.81409   0.50001   0.67319   0.00000  Uiso   1.00
O989   O     0.89053   0.50000   0.67319   0.00000  Uiso   1.00
Zn990  Zn    0.78229   0.50001   0.75000   0.00000  Uiso   1.00
Zn991  Zn    0.88438   0.49999   0.75000   0.00000  Uiso   1.00
C992   C     0.69375   0.56498   0.80720   0.00000  Uiso   1.00
O993   O     0.71087   0.55731   0.84218   0.00000  Uiso   1.00
O994   O     0.68235   0.60607   0.79871   0.00000  Uiso   1.00
H995   H     0.69152   0.62675   0.82275   0.00000  Uiso   1.00
O996   O     0.71670   0.46310   0.91407   0.00000  Uiso   1.00
C997   C     0.72903   0.42107   0.89916   0.00000  Uiso   1.00
H998   H     0.76778   0.41739   0.87327   0.00000  Uiso   1.00
H999   H     0.70742   0.41001   0.87481   0.00000  Uiso   1.00
H1000  H     0.72040   0.40093   0.93570   0.00000  Uiso   1.00
O1001  O     0.69024   0.45084   0.52312   0.00000  Uiso   1.00
C1002  C     0.66986   0.46038   0.57929   0.00000  Uiso   1.00
H1003  H     0.67148   0.49426   0.58784   0.00000  Uiso   1.00
H1004  H     0.68741   0.44145   0.60250   0.00000  Uiso   1.00
H1005  H     0.96458   0.45164   0.59387   0.00000  Uiso   1.00
C1006  C     0.16651   0.91333   0.75029   0.00000  Uiso   1.00
C1007  C     0.14367   0.83636   0.99274   0.00000  Uiso   1.00
C1008  C     0.15077   0.85027   0.93975   0.00000  Uiso   1.00
C1009  C     0.18013   0.84434   0.51481   0.00000  Uiso   1.00
C1010  C     0.21881   0.87143   0.98775   0.00000  Uiso   1.00
C1011  C     0.22143   0.88949   0.93864   0.00000  Uiso   1.00
C1012  C     0.18774   0.87922   0.91500   0.00000  Uiso   1.00
C1013  C     0.17927   0.82600   0.56317   0.00000  Uiso   1.00
C1014  C     0.24839   0.86592   0.56269   0.00000  Uiso   1.00
C1015  C     0.12163   0.83397   0.91205   0.00000  Uiso   1.00
C1016  C     0.20012   0.97855   0.76709   0.00000  Uiso   1.00
C1017  C     0.13965   0.83437   0.85239   0.00000  Uiso   1.00
C1018  C     0.20035   0.68793   0.76680   0.00000  Uiso   1.00
C1019  C     0.16663   0.70918   0.75032   0.00000  Uiso   1.00
C1020  C     0.13259   0.68810   0.73431   0.00000  Uiso   1.00
C1021  C     0.13248   0.97875   0.73442   0.00000  Uiso   1.00
C1022  C     0.16627   0.95749   0.75074   0.00000  Uiso   1.00
C1023  C     0.31772   0.80243   0.72406   0.00000  Uiso   1.00
C1024  C     0.03236   0.80257   0.72376   0.00000  Uiso   1.00
C1025  C     0.01489   0.86428   0.77650   0.00000  Uiso   1.00
C1026  C     0.30072   0.86427   0.77562   0.00000  Uiso   1.00
C1027  C     0.16672   0.75333   0.75002   0.00000  Uiso   1.00
C1028  C     0.19359   0.83355   0.64773   0.00000  Uiso   1.00
C1029  C     0.25350   0.88103   0.51119   0.00000  Uiso   1.00
C1030  C     0.21011   0.83940   0.58921   0.00000  Uiso   1.00
C1031  C     0.07968   0.81130   0.94067   0.00000  Uiso   1.00
C1032  C     0.06670   0.80500   0.99682   0.00000  Uiso   1.00
C1033  C     0.10018   0.81563   0.52189   0.00000  Uiso   1.00
H1034  H     0.27231   0.87685   0.58295   0.00000  Uiso   1.00
H1035  H     0.22645   0.70421   0.77979   0.00000  Uiso   1.00
H1036  H     0.10659   0.70450   0.72112   0.00000  Uiso   1.00
H1037  H     0.10655   0.96250   0.72114   0.00000  Uiso   1.00
H1038  H     0.30623   0.77758   0.70349   0.00000  Uiso   1.00
H1039  H     0.05713   0.77796   0.70265   0.00000  Uiso   1.00
H1040  H     0.27538   0.88864   0.79645   0.00000  Uiso   1.00
H1041  H     0.24983   0.91122   0.91816   0.00000  Uiso   1.00
H1042  H     0.28286   0.90200   0.99111   0.00000  Uiso   1.00
H1043  H     0.15300   0.80276   0.58347   0.00000  Uiso   1.00
H1044  H     0.09134   0.80840   0.56425   0.00000  Uiso   1.00
H1045  H     0.19073   0.89442   0.87720   0.00000  Uiso   1.00
H1046  H     0.22608   0.96212   0.78032   0.00000  Uiso   1.00
N1047  N     0.04760   0.83334   0.75001   0.00000  Uiso   1.00
N1048  N     0.28573   0.83331   0.75000   0.00000  Uiso   1.00
O1049  O     0.12846   0.89442   0.75000   0.00000  Uiso   1.00
O1050  O     0.20490   0.89441   0.75000   0.00000  Uiso   1.00
O1051  O     0.10947   0.83333   0.82681   0.00000  Uiso   1.00
O1052  O     0.18591   0.83332   0.82681   0.00000  Uiso   1.00
O1053  O     0.12843   0.77226   0.74999   0.00000  Uiso   1.00
O1054  O     0.20488   0.77225   0.74999   0.00000  Uiso   1.00
O1055  O     0.14742   0.83335   0.67319   0.00000  Uiso   1.00
O1056  O     0.22387   0.83334   0.67319   0.00000  Uiso   1.00
Zn1057 Zn    0.11562   0.83334   0.75000   0.00000  Uiso   1.00
Zn1058 Zn    0.21771   0.83333   0.75000   0.00000  Uiso   1.00
C1059  C     0.02708   0.89831   0.80720   0.00000  Uiso   1.00
O1060  O     0.04421   0.89064   0.84218   0.00000  Uiso   1.00
O1061  O     0.01569   0.93941   0.79871   0.00000  Uiso   1.00
H1062  H     0.02486   0.96008   0.82275   0.00000  Uiso   1.00
O1063  O     0.05003   0.79643   0.91407   0.00000  Uiso   1.00
C1064  C     0.06237   0.75440   0.89916   0.00000  Uiso   1.00
H1065  H     0.10111   0.75073   0.87327   0.00000  Uiso   1.00
H1066  H     0.04075   0.74334   0.87481   0.00000  Uiso   1.00
H1067  H     0.05373   0.73427   0.93570   0.00000  Uiso   1.00
O1068  O     0.02358   0.78417   0.52312   0.00000  Uiso   1.00
C1069  C     0.00319   0.79371   0.57929   0.00000  Uiso   1.00
H1070  H     0.00481   0.82760   0.58784   0.00000  Uiso   1.00
H1071  H     0.02074   0.77479   0.60250   0.00000  Uiso   1.00
H1072  H     0.29792   0.78497   0.59387   0.00000  Uiso   1.00
C1073  C     0.49984   0.91333   0.75029   0.00000  Uiso   1.00
C1074  C     0.47700   0.83636   0.99274   0.00000  Uiso   1.00
C1075  C     0.48410   0.85027   0.93975   0.00000  Uiso   1.00
C1076  C     0.51347   0.84434   0.51481   0.00000  Uiso   1.00
C1077  C     0.55215   0.87143   0.98775   0.00000  Uiso   1.00
C1078  C     0.55476   0.88949   0.93864   0.00000  Uiso   1.00
C1079  C     0.52107   0.87922   0.91500   0.00000  Uiso   1.00
C1080  C     0.51260   0.82600   0.56317   0.00000  Uiso   1.00
C1081  C     0.58173   0.86592   0.56269   0.00000  Uiso   1.00
C1082  C     0.45497   0.83397   0.91205   0.00000  Uiso   1.00
C1083  C     0.53346   0.97855   0.76709   0.00000  Uiso   1.00
C1084  C     0.47298   0.83437   0.85239   0.00000  Uiso   1.00
C1085  C     0.53368   0.68793   0.76680   0.00000  Uiso   1.00
C1086  C     0.49997   0.70918   0.75032   0.00000  Uiso   1.00
C1087  C     0.46593   0.68810   0.73431   0.00000  Uiso   1.00
C1088  C     0.46581   0.97875   0.73442   0.00000  Uiso   1.00
C1089  C     0.49961   0.95749   0.75074   0.00000  Uiso   1.00
C1090  C     0.65105   0.80243   0.72406   0.00000  Uiso   1.00
C1091  C     0.36569   0.80257   0.72376   0.00000  Uiso   1.00
C1092  C     0.34822   0.86428   0.77650   0.00000  Uiso   1.00
C1093  C     0.63406   0.86427   0.77562   0.00000  Uiso   1.00
C1094  C     0.50005   0.75333   0.75002   0.00000  Uiso   1.00
C1095  C     0.52693   0.83355   0.64773   0.00000  Uiso   1.00
C1096  C     0.58683   0.88103   0.51119   0.00000  Uiso   1.00
C1097  C     0.54345   0.83940   0.58921   0.00000  Uiso   1.00
C1098  C     0.41301   0.81130   0.94067   0.00000  Uiso   1.00
C1099  C     0.40003   0.80500   0.99682   0.00000  Uiso   1.00
C1100  C     0.43351   0.81563   0.52189   0.00000  Uiso   1.00
H1101  H     0.60565   0.87685   0.58295   0.00000  Uiso   1.00
H1102  H     0.55978   0.70421   0.77979   0.00000  Uiso   1.00
H1103  H     0.43992   0.70450   0.72112   0.00000  Uiso   1.00
H1104  H     0.43988   0.96250   0.72114   0.00000  Uiso   1.00
H1105  H     0.63957   0.77758   0.70349   0.00000  Uiso   1.00
H1106  H     0.39046   0.77796   0.70265   0.00000  Uiso   1.00
H1107  H     0.60872   0.88864   0.79645   0.00000  Uiso   1.00
H1108  H     0.58316   0.91122   0.91816   0.00000  Uiso   1.00
H1109  H     0.61620   0.90200   0.99111   0.00000  Uiso   1.00
H1110  H     0.48634   0.80276   0.58347   0.00000  Uiso   1.00
H1111  H     0.42468   0.80840   0.56425   0.00000  Uiso   1.00
H1112  H     0.52407   0.89442   0.87720   0.00000  Uiso   1.00
H1113  H     0.55942   0.96212   0.78032   0.00000  Uiso   1.00
N1114  N     0.38093   0.83334   0.75001   0.00000  Uiso   1.00
N1115  N     0.61906   0.83331   0.75000   0.00000  Uiso   1.00
O1116  O     0.46179   0.89442   0.75000   0.00000  Uiso   1.00
O1117  O     0.53823   0.89441   0.75000   0.00000  Uiso   1.00
O1118  O     0.44280   0.83333   0.82681   0.00000  Uiso   1.00
O1119  O     0.51924   0.83332   0.82681   0.00000  Uiso   1.00
O1120  O     0.46177   0.77226   0.74999   0.00000  Uiso   1.00
O1121  O     0.53821   0.77225   0.74999   0.00000  Uiso   1.00
O1122  O     0.48076   0.83335   0.67319   0.00000  Uiso   1.00
O1123  O     0.55720   0.83334   0.67319   0.00000  Uiso   1.00
Zn1124 Zn    0.44896   0.83334   0.75000   0.00000  Uiso   1.00
Zn1125 Zn    0.55104   0.83333   0.75000   0.00000  Uiso   1.00
C1126  C     0.36042   0.89831   0.80720   0.00000  Uiso   1.00
O1127  O     0.37754   0.89064   0.84218   0.00000  Uiso   1.00
O1128  O     0.34902   0.93941   0.79871   0.00000  Uiso   1.00
H1129  H     0.35819   0.96008   0.82275   0.00000  Uiso   1.00
O1130  O     0.38337   0.79643   0.91407   0.00000  Uiso   1.00
C1131  C     0.39570   0.75440   0.89916   0.00000  Uiso   1.00
H1132  H     0.43444   0.75073   0.87327   0.00000  Uiso   1.00
H1133  H     0.37409   0.74334   0.87481   0.00000  Uiso   1.00
H1134  H     0.38706   0.73427   0.93570   0.00000  Uiso   1.00
O1135  O     0.35691   0.78417   0.52312   0.00000  Uiso   1.00
C1136  C     0.33653   0.79371   0.57929   0.00000  Uiso   1.00
H1137  H     0.33815   0.82760   0.58784   0.00000  Uiso   1.00
H1138  H     0.35408   0.77479   0.60250   0.00000  Uiso   1.00
H1139  H     0.63125   0.78497   0.59387   0.00000  Uiso   1.00
C1140  C     0.83317   0.91333   0.75029   0.00000  Uiso   1.00
C1141  C     0.81033   0.83636   0.99274   0.00000  Uiso   1.00
C1142  C     0.81744   0.85027   0.93975   0.00000  Uiso   1.00
C1143  C     0.84680   0.84434   0.51481   0.00000  Uiso   1.00
C1144  C     0.88548   0.87143   0.98775   0.00000  Uiso   1.00
C1145  C     0.88809   0.88949   0.93864   0.00000  Uiso   1.00
C1146  C     0.85441   0.87922   0.91500   0.00000  Uiso   1.00
C1147  C     0.84593   0.82600   0.56317   0.00000  Uiso   1.00
C1148  C     0.91506   0.86592   0.56269   0.00000  Uiso   1.00
C1149  C     0.78830   0.83397   0.91205   0.00000  Uiso   1.00
C1150  C     0.86679   0.97855   0.76709   0.00000  Uiso   1.00
C1151  C     0.80632   0.83437   0.85239   0.00000  Uiso   1.00
C1152  C     0.86702   0.68793   0.76680   0.00000  Uiso   1.00
C1153  C     0.83330   0.70918   0.75032   0.00000  Uiso   1.00
C1154  C     0.79926   0.68810   0.73431   0.00000  Uiso   1.00
C1155  C     0.79914   0.97875   0.73442   0.00000  Uiso   1.00
C1156  C     0.83294   0.95749   0.75074   0.00000  Uiso   1.00
C1157  C     0.98439   0.80243   0.72406   0.00000  Uiso   1.00
C1158  C     0.69902   0.80257   0.72376   0.00000  Uiso   1.00
C1159  C     0.68156   0.86428   0.77650   0.00000  Uiso   1.00
C1160  C     0.96739   0.86427   0.77562   0.00000  Uiso   1.00
C1161  C     0.83339   0.75333   0.75002   0.00000  Uiso   1.00
C1162  C     0.86026   0.83355   0.64773   0.00000  Uiso   1.00
C1163  C     0.92017   0.88103   0.51119   0.00000  Uiso   1.00
C1164  C     0.87678   0.83940   0.58921   0.00000  Uiso   1.00
C1165  C     0.74634   0.81130   0.94067   0.00000  Uiso   1.00
C1166  C     0.73336   0.80500   0.99682   0.00000  Uiso   1.00
C1167  C     0.76685   0.81563   0.52189   0.00000  Uiso   1.00
H1168  H     0.93898   0.87685   0.58295   0.00000  Uiso   1.00
H1169  H     0.89312   0.70421   0.77979   0.00000  Uiso   1.00
H1170  H     0.77325   0.70450   0.72112   0.00000  Uiso   1.00
H1171  H     0.77321   0.96250   0.72114   0.00000  Uiso   1.00
H1172  H     0.97290   0.77758   0.70349   0.00000  Uiso   1.00
H1173  H     0.72380   0.77796   0.70265   0.00000  Uiso   1.00
H1174  H     0.94205   0.88864   0.79645   0.00000  Uiso   1.00
H1175  H     0.91650   0.91122   0.91816   0.00000  Uiso   1.00
H1176  H     0.94953   0.90200   0.99111   0.00000  Uiso   1.00
H1177  H     0.81967   0.80276   0.58347   0.00000  Uiso   1.00
H1178  H     0.75801   0.80840   0.56425   0.00000  Uiso   1.00
H1179  H     0.85740   0.89442   0.87720   0.00000  Uiso   1.00
H1180  H     0.89275   0.96212   0.78032   0.00000  Uiso   1.00
N1181  N     0.71426   0.83334   0.75001   0.00000  Uiso   1.00
N1182  N     0.95239   0.83331   0.75000   0.00000  Uiso   1.00
O1183  O     0.79512   0.89442   0.75000   0.00000  Uiso   1.00
O1184  O     0.87157   0.89441   0.75000   0.00000  Uiso   1.00
O1185  O     0.77613   0.83333   0.82681   0.00000  Uiso   1.00
O1186  O     0.85258   0.83332   0.82681   0.00000  Uiso   1.00
O1187  O     0.79510   0.77226   0.74999   0.00000  Uiso   1.00
O1188  O     0.87154   0.77225   0.74999   0.00000  Uiso   1.00
O1189  O     0.81409   0.83335   0.67319   0.00000  Uiso   1.00
O1190  O     0.89053   0.83334   0.67319   0.00000  Uiso   1.00
Zn1191 Zn    0.78229   0.83334   0.75000   0.00000  Uiso   1.00
Zn1192 Zn    0.88438   0.83333   0.75000   0.00000  Uiso   1.00
C1193  C     0.69375   0.89831   0.80720   0.00000  Uiso   1.00
O1194  O     0.71087   0.89064   0.84218   0.00000  Uiso   1.00
O1195  O     0.68235   0.93941   0.79871   0.00000  Uiso   1.00
H1196  H     0.69152   0.96008   0.82275   0.00000  Uiso   1.00
O1197  O     0.71670   0.79643   0.91407   0.00000  Uiso   1.00
C1198  C     0.72903   0.75440   0.89916   0.00000  Uiso   1.00
H1199  H     0.76778   0.75073   0.87327   0.00000  Uiso   1.00
H1200  H     0.70742   0.74334   0.87481   0.00000  Uiso   1.00
H1201  H     0.72040   0.73427   0.93570   0.00000  Uiso   1.00
O1202  O     0.69024   0.78417   0.52312   0.00000  Uiso   1.00
C1203  C     0.66986   0.79371   0.57929   0.00000  Uiso   1.00
H1204  H     0.67148   0.82760   0.58784   0.00000  Uiso   1.00
H1205  H     0.68741   0.77479   0.60250   0.00000  Uiso   1.00
H1206  H     0.96458   0.78497   0.59387   0.00000  Uiso   1.00
loop_
_geom_bond_atom_site_label_1
_geom_bond_atom_site_label_2
_geom_bond_distance
_geom_bond_site_symmetry_2
_ccdc_geom_bond_type
C1     O44     1.285   .     A
C1     O45     1.284   .     A
C1     C17     1.417   .     S
C2     C3      1.405   .     A
C2     C607    1.417   .     S
C2     C631    1.417   .     S
C3     C10     1.409   .     A
C3     C7      1.415   .     A
C4     C8      1.393   .     A
C4     C605    1.417   1_554 S
C4     C608    1.421   1_554 S
C5     C6      1.392   .     A
C5     C607    1.421   .     S
C5     C627    1.405   .     S
C6     C7      1.387   .     A
C6     H36     1.084   .     S
C7     H40     1.082   .     S
C8     C25     1.387   .     A
C8     H38     1.079   .     S
C9     C24     1.394   .     A
C9     H29     1.083   .     S
C9     C25     1.399   .     A
C10    C12     1.463   .     S
C10    C26     1.413   .     A
C11    H41     1.084   .     S
C11    C17     1.397   .     A
C11    C214    1.371   .     S
C12    O47     1.296   .     A
C12    O46     1.293   .     A
C13    C14     1.396   .     A
C13    H30     1.084   .     S
C13    C413    1.371   1_545 S
C14    C22     1.417   .     S
C14    C15     1.397   .     A
C15    H31     1.084   .     S
C15    C418    1.370   1_545 S
C16    H32     1.084   .     S
C16    C17     1.396   .     A
C16    C216    1.370   .     S
C18    N43     1.367   .     A
C18    H33     1.081   .     S
C18    C86     1.418   .     S
C19    N42     1.367   .     A
C19    H34     1.082   .     S
C19    C152    1.418   1_455 S
C20    N42     1.383   .     A
C20    C54     1.472   .     S
C20    C155    1.415   1_455 S
C21    H35     1.083   .     S
C21    N43     1.357   .     A
C21    C87     1.415   .     S
C22    O48     1.284   .     A
C22    O49     1.286   .     A
C23    C25     1.450   .     S
C23    O50     1.293   .     A
C23    O51     1.293   .     A
C24    C608    1.405   1_554 S
C24    H640    1.084   1_554 S
C26    O58     1.384   .     S
C26    C27     1.400   .     A
C27    C631    1.411   .     S
C27    O666    1.396   .     S
C28    H39     1.074   .     S
C28    C630    1.411   1_554 S
C28    C605    1.417   1_554 S
H37    C627    1.084   .     S
N42    Zn52    2.015   .     S
N43    Zn53    2.015   .     S
O44    Zn52    1.999   .     S
O45    Zn53    1.994   .     S
O46    Zn52    1.956   .     S
O47    Zn53    1.898   .     S
O48    Zn52    1.994   .     S
O49    Zn53    1.999   .     S
O50    Zn52    1.898   .     S
O51    Zn53    1.956   .     S
C54    O55     1.220   .     D
C54    O56     1.398   .     S
O56    H57     1.014   .     S
O58    C59     1.412   .     S
C59    H60     1.114   .     S
C59    H61     1.109   .     S
C59    H62     1.112   .     S
O63    C64     1.411   .     S
O63    C630    1.396   1_554 S
C64    H65     1.114   .     S
C64    H66     1.110   .     S
C64    H201    1.109   1_455 S
H67    C131    1.109   .     S
C68    O111    1.285   .     A
C68    O112    1.284   .     A
C68    C84     1.417   .     S
C69    C70     1.405   .     A
C69    C674    1.417   .     S
C69    C698    1.417   .     S
C70    C77     1.409   .     A
C70    C74     1.415   .     A
C71    C75     1.393   .     A
C71    C672    1.417   1_554 S
C71    C675    1.421   1_554 S
C72    C73     1.392   .     A
C72    C674    1.421   .     S
C72    C694    1.405   .     S
C73    C74     1.387   .     A
C73    H103    1.084   .     S
C74    H107    1.082   .     S
C75    C92     1.387   .     A
C75    H105    1.079   .     S
C76    C91     1.394   .     A
C76    H96     1.083   .     S
C76    C92     1.399   .     A
C77    C79     1.463   .     S
C77    C93     1.413   .     A
C78    H108    1.084   .     S
C78    C84     1.397   .     A
C78    C281    1.371   .     S
C79    O114    1.296   .     A
C79    O113    1.293   .     A
C80    C81     1.396   .     A
C80    H97     1.084   .     S
C80    C480    1.371   1_545 S
C81    C89     1.417   .     S
C81    C82     1.397   .     A
C82    H98     1.084   .     S
C82    C485    1.370   1_545 S
C83    H99     1.084   .     S
C83    C84     1.396   .     A
C83    C283    1.370   .     S
C85    N110    1.367   .     A
C85    H100    1.081   .     S
C85    C153    1.418   .     S
C86    N109    1.367   .     A
C86    H101    1.082   .     S
C87    N109    1.383   .     A
C87    C121    1.472   .     S
C88    H102    1.083   .     S
C88    N110    1.357   .     A
C88    C154    1.415   .     S
C89    O115    1.284   .     A
C89    O116    1.286   .     A
C90    C92     1.450   .     S
C90    O117    1.293   .     A
C90    O118    1.293   .     A
C91    C675    1.405   1_554 S
C91    H707    1.084   1_554 S
C93    O125    1.384   .     S
C93    C94     1.400   .     A
C94    C698    1.411   .     S
C94    O733    1.396   .     S
C95    H106    1.074   .     S
C95    C697    1.411   1_554 S
C95    C672    1.417   1_554 S
H104   C694    1.084   .     S
N109   Zn119   2.015   .     S
N110   Zn120   2.015   .     S
O111   Zn119   1.999   .     S
O112   Zn120   1.994   .     S
O113   Zn119   1.956   .     S
O114   Zn120   1.898   .     S
O115   Zn119   1.994   .     S
O116   Zn120   1.999   .     S
O117   Zn119   1.898   .     S
O118   Zn120   1.956   .     S
C121   O122    1.220   .     D
C121   O123    1.398   .     S
O123   H124    1.014   .     S
O125   C126    1.412   .     S
C126   H127    1.114   .     S
C126   H128    1.109   .     S
C126   H129    1.112   .     S
O130   C131    1.411   .     S
O130   C697    1.396   1_554 S
C131   H132    1.114   .     S
C131   H133    1.110   .     S
H134   C198    1.109   .     S
C135   O178    1.285   .     A
C135   O179    1.284   .     A
C135   C151    1.417   .     S
C136   C137    1.405   .     A
C136   C741    1.417   .     S
C136   C765    1.417   .     S
C137   C144    1.409   .     A
C137   C141    1.415   .     A
C138   C142    1.393   .     A
C138   C739    1.417   1_554 S
C138   C742    1.421   1_554 S
C139   C140    1.392   .     A
C139   C741    1.421   .     S
C139   C761    1.405   .     S
C140   C141    1.387   .     A
C140   H170    1.084   .     S
C141   H174    1.082   .     S
C142   C159    1.387   .     A
C142   H172    1.079   .     S
C143   C158    1.394   .     A
C143   H163    1.083   .     S
C143   C159    1.399   .     A
C144   C146    1.463   .     S
C144   C160    1.413   .     A
C145   H175    1.084   .     S
C145   C151    1.397   .     A
C145   C348    1.371   .     S
C146   O181    1.296   .     A
C146   O180    1.293   .     A
C147   C148    1.396   .     A
C147   H164    1.084   .     S
C147   C547    1.371   1_545 S
C148   C156    1.417   .     S
C148   C149    1.397   .     A
C149   H165    1.084   .     S
C149   C552    1.370   1_545 S
C150   H166    1.084   .     S
C150   C151    1.396   .     A
C150   C350    1.370   .     S
C152   N177    1.367   .     A
C152   H167    1.081   .     S
C152   C19     1.418   1_655 S
C153   N176    1.367   .     A
C153   H168    1.082   .     S
C154   N176    1.383   .     A
C154   C188    1.472   .     S
C155   H169    1.083   .     S
C155   N177    1.357   .     A
C155   C20     1.415   1_655 S
C156   O182    1.284   .     A
C156   O183    1.286   .     A
C157   C159    1.450   .     S
C157   O184    1.293   .     A
C157   O185    1.293   .     A
C158   C742    1.405   1_554 S
C158   H774    1.084   1_554 S
C160   O192    1.384   .     S
C160   C161    1.400   .     A
C161   C765    1.411   .     S
C161   O800    1.396   .     S
C162   H173    1.074   .     S
C162   C764    1.411   1_554 S
C162   C739    1.417   1_554 S
H171   C761    1.084   .     S
N176   Zn186   2.015   .     S
N177   Zn187   2.015   .     S
O178   Zn186   1.999   .     S
O179   Zn187   1.994   .     S
O180   Zn186   1.956   .     S
O181   Zn187   1.898   .     S
O182   Zn186   1.994   .     S
O183   Zn187   1.999   .     S
O184   Zn186   1.898   .     S
O185   Zn187   1.956   .     S
C188   O189    1.220   .     D
C188   O190    1.398   .     S
O190   H191    1.014   .     S
O192   C193    1.412   .     S
C193   H194    1.114   .     S
C193   H195    1.109   .     S
C193   H196    1.112   .     S
O197   C198    1.411   .     S
O197   C764    1.396   1_554 S
C198   H199    1.114   .     S
C198   H200    1.110   .     S
H201   C64     1.109   1_655 S
C202   O245    1.285   .     A
C202   O246    1.284   .     A
C202   C218    1.417   .     S
C203   C204    1.405   .     A
C203   C808    1.417   .     S
C203   C832    1.417   .     S
C204   C211    1.409   .     A
C204   C208    1.415   .     A
C205   C209    1.393   .     A
C205   C806    1.417   1_554 S
C205   C809    1.421   1_554 S
C206   C207    1.392   .     A
C206   C808    1.421   .     S
C206   C828    1.405   .     S
C207   C208    1.387   .     A
C207   H237    1.084   .     S
C208   H241    1.082   .     S
C209   C226    1.387   .     A
C209   H239    1.079   .     S
C210   C225    1.394   .     A
C210   H230    1.083   .     S
C210   C226    1.399   .     A
C211   C213    1.463   .     S
C211   C227    1.413   .     A
C212   H242    1.084   .     S
C212   C218    1.397   .     A
C212   C415    1.371   .     S
C213   O248    1.296   .     A
C213   O247    1.293   .     A
C214   C215    1.396   .     A
C214   H231    1.084   .     S
C215   C223    1.417   .     S
C215   C216    1.397   .     A
C216   H232    1.084   .     S
C217   H233    1.084   .     S
C217   C218    1.396   .     A
C217   C417    1.370   .     S
C219   N244    1.367   .     A
C219   H234    1.081   .     S
C219   C287    1.418   .     S
C220   N243    1.367   .     A
C220   H235    1.082   .     S
C220   C353    1.418   1_455 S
C221   N243    1.383   .     A
C221   C255    1.472   .     S
C221   C356    1.415   1_455 S
C222   H236    1.083   .     S
C222   N244    1.357   .     A
C222   C288    1.415   .     S
C223   O249    1.284   .     A
C223   O250    1.286   .     A
C224   C226    1.450   .     S
C224   O251    1.293   .     A
C224   O252    1.293   .     A
C225   C809    1.405   1_554 S
C225   H841    1.084   1_554 S
C227   O259    1.384   .     S
C227   C228    1.400   .     A
C228   C832    1.411   .     S
C228   O867    1.396   .     S
C229   H240    1.074   .     S
C229   C831    1.411   1_554 S
C229   C806    1.417   1_554 S
H238   C828    1.084   .     S
N243   Zn253   2.015   .     S
N244   Zn254   2.015   .     S
O245   Zn253   1.999   .     S
O246   Zn254   1.994   .     S
O247   Zn253   1.956   .     S
O248   Zn254   1.898   .     S
O249   Zn253   1.994   .     S
O250   Zn254   1.999   .     S
O251   Zn253   1.898   .     S
O252   Zn254   1.956   .     S
C255   O256    1.220   .     D
C255   O257    1.398   .     S
O257   H258    1.014   .     S
O259   C260    1.412   .     S
C260   H261    1.114   .     S
C260   H262    1.109   .     S
C260   H263    1.112   .     S
O264   C265    1.411   .     S
O264   C831    1.396   1_554 S
C265   H266    1.114   .     S
C265   H267    1.110   .     S
C265   H402    1.109   1_455 S
H268   C332    1.109   .     S
C269   O312    1.285   .     A
C269   O313    1.284   .     A
C269   C285    1.417   .     S
C270   C271    1.405   .     A
C270   C875    1.417   .     S
C270   C899    1.417   .     S
C271   C278    1.409   .     A
C271   C275    1.415   .     A
C272   C276    1.393   .     A
C272   C873    1.417   1_554 S
C272   C876    1.421   1_554 S
C273   C274    1.392   .     A
C273   C875    1.421   .     S
C273   C895    1.405   .     S
C274   C275    1.387   .     A
C274   H304    1.084   .     S
C275   H308    1.082   .     S
C276   C293    1.387   .     A
C276   H306    1.079   .     S
C277   C292    1.394   .     A
C277   H297    1.083   .     S
C277   C293    1.399   .     A
C278   C280    1.463   .     S
C278   C294    1.413   .     A
C279   H309    1.084   .     S
C279   C285    1.397   .     A
C279   C482    1.371   .     S
C280   O315    1.296   .     A
C280   O314    1.293   .     A
C281   C282    1.396   .     A
C281   H298    1.084   .     S
C282   C290    1.417   .     S
C282   C283    1.397   .     A
C283   H299    1.084   .     S
C284   H300    1.084   .     S
C284   C285    1.396   .     A
C284   C484    1.370   .     S
C286   N311    1.367   .     A
C286   H301    1.081   .     S
C286   C354    1.418   .     S
C287   N310    1.367   .     A
C287   H302    1.082   .     S
C288   N310    1.383   .     A
C288   C322    1.472   .     S
C289   H303    1.083   .     S
C289   N311    1.357   .     A
C289   C355    1.415   .     S
C290   O316    1.284   .     A
C290   O317    1.286   .     A
C291   C293    1.450   .     S
C291   O318    1.293   .     A
C291   O319    1.293   .     A
C292   C876    1.405   1_554 S
C292   H908    1.084   1_554 S
C294   O326    1.384   .     S
C294   C295    1.400   .     A
C295   C899    1.411   .     S
C295   O934    1.396   .     S
C296   H307    1.074   .     S
C296   C898    1.411   1_554 S
C296   C873    1.417   1_554 S
H305   C895    1.084   .     S
N310   Zn320   2.015   .     S
N311   Zn321   2.015   .     S
O312   Zn320   1.999   .     S
O313   Zn321   1.994   .     S
O314   Zn320   1.956   .     S
O315   Zn321   1.898   .     S
O316   Zn320   1.994   .     S
O317   Zn321   1.999   .     S
O318   Zn320   1.898   .     S
O319   Zn321   1.956   .     S
C322   O323    1.220   .     D
C322   O324    1.398   .     S
O324   H325    1.014   .     S
O326   C327    1.412   .     S
C327   H328    1.114   .     S
C327   H329    1.109   .     S
C327   H330    1.112   .     S
O331   C332    1.411   .     S
O331   C898    1.396   1_554 S
C332   H333    1.114   .     S
C332   H334    1.110   .     S
H335   C399    1.109   .     S
C336   O379    1.285   .     A
C336   O380    1.284   .     A
C336   C352    1.417   .     S
C337   C338    1.405   .     A
C337   C942    1.417   .     S
C337   C966    1.417   .     S
C338   C345    1.409   .     A
C338   C342    1.415   .     A
C339   C343    1.393   .     A
C339   C940    1.417   1_554 S
C339   C943    1.421   1_554 S
C340   C341    1.392   .     A
C340   C942    1.421   .     S
C340   C962    1.405   .     S
C341   C342    1.387   .     A
C341   H371    1.084   .     S
C342   H375    1.082   .     S
C343   C360    1.387   .     A
C343   H373    1.079   .     S
C344   C359    1.394   .     A
C344   H364    1.083   .     S
C344   C360    1.399   .     A
C345   C347    1.463   .     S
C345   C361    1.413   .     A
C346   H376    1.084   .     S
C346   C352    1.397   .     A
C346   C549    1.371   .     S
C347   O382    1.296   .     A
C347   O381    1.293   .     A
C348   C349    1.396   .     A
C348   H365    1.084   .     S
C349   C357    1.417   .     S
C349   C350    1.397   .     A
C350   H366    1.084   .     S
C351   H367    1.084   .     S
C351   C352    1.396   .     A
C351   C551    1.370   .     S
C353   N378    1.367   .     A
C353   H368    1.081   .     S
C353   C220    1.418   1_655 S
C354   N377    1.367   .     A
C354   H369    1.082   .     S
C355   N377    1.383   .     A
C355   C389    1.472   .     S
C356   H370    1.083   .     S
C356   N378    1.357   .     A
C356   C221    1.415   1_655 S
C357   O383    1.284   .     A
C357   O384    1.286   .     A
C358   C360    1.450   .     S
C358   O385    1.293   .     A
C358   O386    1.293   .     A
C359   C943    1.405   1_554 S
C359   H975    1.084   1_554 S
C361   O393    1.384   .     S
C361   C362    1.400   .     A
C362   C966    1.411   .     S
C362   O1001   1.396   .     S
C363   H374    1.074   .     S
C363   C965    1.411   1_554 S
C363   C940    1.417   1_554 S
H372   C962    1.084   .     S
N377   Zn387   2.015   .     S
N378   Zn388   2.015   .     S
O379   Zn387   1.999   .     S
O380   Zn388   1.994   .     S
O381   Zn387   1.956   .     S
O382   Zn388   1.898   .     S
O383   Zn387   1.994   .     S
O384   Zn388   1.999   .     S
O385   Zn387   1.898   .     S
O386   Zn388   1.956   .     S
C389   O390    1.220   .     D
C389   O391    1.398   .     S
O391   H392    1.014   .     S
O393   C394    1.412   .     S
C394   H395    1.114   .     S
C394   H396    1.109   .     S
C394   H397    1.112   .     S
O398   C399    1.411   .     S
O398   C965    1.396   1_554 S
C399   H400    1.114   .     S
C399   H401    1.110   .     S
H402   C265    1.109   1_655 S
C403   O446    1.285   .     A
C403   O447    1.284   .     A
C403   C419    1.417   .     S
C404   C405    1.405   .     A
C404   C1009   1.417   .     S
C404   C1033   1.417   .     S
C405   C412    1.409   .     A
C405   C409    1.415   .     A
C406   C410    1.393   .     A
C406   C1007   1.417   1_554 S
C406   C1010   1.421   1_554 S
C407   C408    1.392   .     A
C407   C1009   1.421   .     S
C407   C1029   1.405   .     S
C408   C409    1.387   .     A
C408   H438    1.084   .     S
C409   H442    1.082   .     S
C410   C427    1.387   .     A
C410   H440    1.079   .     S
C411   C426    1.394   .     A
C411   H431    1.083   .     S
C411   C427    1.399   .     A
C412   C414    1.463   .     S
C412   C428    1.413   .     A
C413   H443    1.084   .     S
C413   C419    1.397   .     A
C413   C13     1.371   1_565 S
C414   O449    1.296   .     A
C414   O448    1.293   .     A
C415   C416    1.396   .     A
C415   H432    1.084   .     S
C416   C424    1.417   .     S
C416   C417    1.397   .     A
C417   H433    1.084   .     S
C418   H434    1.084   .     S
C418   C419    1.396   .     A
C418   C15     1.370   1_565 S
C420   N445    1.367   .     A
C420   H435    1.081   .     S
C420   C488    1.418   .     S
C421   N444    1.367   .     A
C421   H436    1.082   .     S
C421   C554    1.418   1_455 S
C422   N444    1.383   .     A
C422   C456    1.472   .     S
C422   C557    1.415   1_455 S
C423   H437    1.083   .     S
C423   N445    1.357   .     A
C423   C489    1.415   .     S
C424   O450    1.284   .     A
C424   O451    1.286   .     A
C425   C427    1.450   .     S
C425   O452    1.293   .     A
C425   O453    1.293   .     A
C426   C1010   1.405   1_554 S
C426   H1042   1.084   1_554 S
C428   O460    1.384   .     S
C428   C429    1.400   .     A
C429   C1033   1.411   .     S
C429   O1068   1.396   .     S
C430   H441    1.074   .     S
C430   C1032   1.411   1_554 S
C430   C1007   1.417   1_554 S
H439   C1029   1.084   .     S
N444   Zn454   2.015   .     S
N445   Zn455   2.015   .     S
O446   Zn454   1.999   .     S
O447   Zn455   1.994   .     S
O448   Zn454   1.956   .     S
O449   Zn455   1.898   .     S
O450   Zn454   1.994   .     S
O451   Zn455   1.999   .     S
O452   Zn454   1.898   .     S
O453   Zn455   1.956   .     S
C456   O457    1.220   .     D
C456   O458    1.398   .     S
O458   H459    1.014   .     S
O460   C461    1.412   .     S
C461   H462    1.114   .     S
C461   H463    1.109   .     S
C461   H464    1.112   .     S
O465   C466    1.411   .     S
O465   C1032   1.396   1_554 S
C466   H467    1.114   .     S
C466   H468    1.110   .     S
C466   H603    1.109   1_455 S
H469   C533    1.109   .     S
C470   O513    1.285   .     A
C470   O514    1.284   .     A
C470   C486    1.417   .     S
C471   C472    1.405   .     A
C471   C1076   1.417   .     S
C471   C1100   1.417   .     S
C472   C479    1.409   .     A
C472   C476    1.415   .     A
C473   C477    1.393   .     A
C473   C1074   1.417   1_554 S
C473   C1077   1.421   1_554 S
C474   C475    1.392   .     A
C474   C1076   1.421   .     S
C474   C1096   1.405   .     S
C475   C476    1.387   .     A
C475   H505    1.084   .     S
C476   H509    1.082   .     S
C477   C494    1.387   .     A
C477   H507    1.079   .     S
C478   C493    1.394   .     A
C478   H498    1.083   .     S
C478   C494    1.399   .     A
C479   C481    1.463   .     S
C479   C495    1.413   .     A
C480   H510    1.084   .     S
C480   C486    1.397   .     A
C480   C80     1.371   1_565 S
C481   O516    1.296   .     A
C481   O515    1.293   .     A
C482   C483    1.396   .     A
C482   H499    1.084   .     S
C483   C491    1.417   .     S
C483   C484    1.397   .     A
C484   H500    1.084   .     S
C485   H501    1.084   .     S
C485   C486    1.396   .     A
C485   C82     1.370   1_565 S
C487   N512    1.367   .     A
C487   H502    1.081   .     S
C487   C555    1.418   .     S
C488   N511    1.367   .     A
C488   H503    1.082   .     S
C489   N511    1.383   .     A
C489   C523    1.472   .     S
C490   H504    1.083   .     S
C490   N512    1.357   .     A
C490   C556    1.415   .     S
C491   O517    1.284   .     A
C491   O518    1.286   .     A
C492   C494    1.450   .     S
C492   O519    1.293   .     A
C492   O520    1.293   .     A
C493   C1077   1.405   1_554 S
C493   H1109   1.084   1_554 S
C495   O527    1.384   .     S
C495   C496    1.400   .     A
C496   C1100   1.411   .     S
C496   O1135   1.396   .     S
C497   H508    1.074   .     S
C497   C1099   1.411   1_554 S
C497   C1074   1.417   1_554 S
H506   C1096   1.084   .     S
N511   Zn521   2.015   .     S
N512   Zn522   2.015   .     S
O513   Zn521   1.999   .     S
O514   Zn522   1.994   .     S
O515   Zn521   1.956   .     S
O516   Zn522   1.898   .     S
O517   Zn521   1.994   .     S
O518   Zn522   1.999   .     S
O519   Zn521   1.898   .     S
O520   Zn522   1.956   .     S
C523   O524    1.220   .     D
C523   O525    1.398   .     S
O525   H526    1.014   .     S
O527   C528    1.412   .     S
C528   H529    1.114   .     S
C528   H530    1.109   .     S
C528   H531    1.112   .     S
O532   C533    1.411   .     S
O532   C1099   1.396   1_554 S
C533   H534    1.114   .     S
C533   H535    1.110   .     S
H536   C600    1.109   .     S
C537   O580    1.285   .     A
C537   O581    1.284   .     A
C537   C553    1.417   .     S
C538   C539    1.405   .     A
C538   C1143   1.417   .     S
C538   C1167   1.417   .     S
C539   C546    1.409   .     A
C539   C543    1.415   .     A
C540   C544    1.393   .     A
C540   C1141   1.417   1_554 S
C540   C1144   1.421   1_554 S
C541   C542    1.392   .     A
C541   C1143   1.421   .     S
C541   C1163   1.405   .     S
C542   C543    1.387   .     A
C542   H572    1.084   .     S
C543   H576    1.082   .     S
C544   C561    1.387   .     A
C544   H574    1.079   .     S
C545   C560    1.394   .     A
C545   H565    1.083   .     S
C545   C561    1.399   .     A
C546   C548    1.463   .     S
C546   C562    1.413   .     A
C547   H577    1.084   .     S
C547   C553    1.397   .     A
C547   C147    1.371   1_565 S
C548   O583    1.296   .     A
C548   O582    1.293   .     A
C549   C550    1.396   .     A
C549   H566    1.084   .     S
C550   C558    1.417   .     S
C550   C551    1.397   .     A
C551   H567    1.084   .     S
C552   H568    1.084   .     S
C552   C553    1.396   .     A
C552   C149    1.370   1_565 S
C554   N579    1.367   .     A
C554   H569    1.081   .     S
C554   C421    1.418   1_655 S
C555   N578    1.367   .     A
C555   H570    1.082   .     S
C556   N578    1.383   .     A
C556   C590    1.472   .     S
C557   H571    1.083   .     S
C557   N579    1.357   .     A
C557   C422    1.415   1_655 S
C558   O584    1.284   .     A
C558   O585    1.286   .     A
C559   C561    1.450   .     S
C559   O586    1.293   .     A
C559   O587    1.293   .     A
C560   C1144   1.405   1_554 S
C560   H1176   1.084   1_554 S
C562   O594    1.384   .     S
C562   C563    1.400   .     A
C563   C1167   1.411   .     S
C563   O1202   1.396   .     S
C564   H575    1.074   .     S
C564   C1166   1.411   1_554 S
C564   C1141   1.417   1_554 S
H573   C1163   1.084   .     S
N578   Zn588   2.015   .     S
N579   Zn589   2.015   .     S
O580   Zn588   1.999   .     S
O581   Zn589   1.994   .     S
O582   Zn588   1.956   .     S
O583   Zn589   1.898   .     S
O584   Zn588   1.994   .     S
O585   Zn589   1.999   .     S
O586   Zn588   1.898   .     S
O587   Zn589   1.956   .     S
C590   O591    1.220   .     D
C590   O592    1.398   .     S
O592   H593    1.014   .     S
O594   C595    1.412   .     S
C595   H596    1.114   .     S
C595   H597    1.109   .     S
C595   H598    1.112   .     S
O599   C600    1.411   .     S
O599   C1166   1.396   1_554 S
C600   H601    1.114   .     S
C600   H602    1.110   .     S
H603   C466    1.109   1_655 S
C604   O647    1.285   .     A
C604   O648    1.284   .     A
C604   C620    1.417   .     S
C605   C606    1.405   .     A
C605   C4      1.417   1_556 S
C605   C28     1.417   1_556 S
C606   C613    1.409   .     A
C606   C610    1.415   .     A
C607   C611    1.393   .     A
C608   C609    1.392   .     A
C608   C4      1.421   1_556 S
C608   C24     1.405   1_556 S
C609   C610    1.387   .     A
C609   H639    1.084   .     S
C610   H643    1.082   .     S
C611   C628    1.387   .     A
C611   H641    1.079   .     S
C612   C627    1.394   .     A
C612   H632    1.083   .     S
C612   C628    1.399   .     A
C613   C615    1.463   .     S
C613   C629    1.413   .     A
C614   H644    1.084   .     S
C614   C620    1.397   .     A
C614   C817    1.371   .     S
C615   O650    1.296   .     A
C615   O649    1.293   .     A
C616   C617    1.396   .     A
C616   H633    1.084   .     S
C616   C1016   1.371   1_545 S
C617   C625    1.417   .     S
C617   C618    1.397   .     A
C618   H634    1.084   .     S
C618   C1021   1.370   1_545 S
C619   H635    1.084   .     S
C619   C620    1.396   .     A
C619   C819    1.370   .     S
C621   N646    1.367   .     A
C621   H636    1.081   .     S
C621   C689    1.418   .     S
C622   N645    1.367   .     A
C622   H637    1.082   .     S
C622   C755    1.418   1_455 S
C623   N645    1.383   .     A
C623   C657    1.472   .     S
C623   C758    1.415   1_455 S
C624   H638    1.083   .     S
C624   N646    1.357   .     A
C624   C690    1.415   .     S
C625   O651    1.284   .     A
C625   O652    1.286   .     A
C626   C628    1.450   .     S
C626   O653    1.293   .     A
C626   O654    1.293   .     A
C629   O661    1.384   .     S
C629   C630    1.400   .     A
C630   C28     1.411   1_556 S
C630   O63     1.396   1_556 S
C631   H642    1.074   .     S
H640   C24     1.084   1_556 S
N645   Zn655   2.015   .     S
N646   Zn656   2.015   .     S
O647   Zn655   1.999   .     S
O648   Zn656   1.994   .     S
O649   Zn655   1.956   .     S
O650   Zn656   1.898   .     S
O651   Zn655   1.994   .     S
O652   Zn656   1.999   .     S
O653   Zn655   1.898   .     S
O654   Zn656   1.956   .     S
C657   O658    1.220   .     D
C657   O659    1.398   .     S
O659   H660    1.014   .     S
O661   C662    1.412   .     S
C662   H663    1.114   .     S
C662   H664    1.109   .     S
C662   H665    1.112   .     S
O666   C667    1.411   .     S
C667   H668    1.114   .     S
C667   H669    1.110   .     S
C667   H804    1.109   1_455 S
H670   C734    1.109   .     S
C671   O714    1.285   .     A
C671   O715    1.284   .     A
C671   C687    1.417   .     S
C672   C673    1.405   .     A
C672   C71     1.417   1_556 S
C672   C95     1.417   1_556 S
C673   C680    1.409   .     A
C673   C677    1.415   .     A
C674   C678    1.393   .     A
C675   C676    1.392   .     A
C675   C71     1.421   1_556 S
C675   C91     1.405   1_556 S
C676   C677    1.387   .     A
C676   H706    1.084   .     S
C677   H710    1.082   .     S
C678   C695    1.387   .     A
C678   H708    1.079   .     S
C679   C694    1.394   .     A
C679   H699    1.083   .     S
C679   C695    1.399   .     A
C680   C682    1.463   .     S
C680   C696    1.413   .     A
C681   H711    1.084   .     S
C681   C687    1.397   .     A
C681   C884    1.371   .     S
C682   O717    1.296   .     A
C682   O716    1.293   .     A
C683   C684    1.396   .     A
C683   H700    1.084   .     S
C683   C1083   1.371   1_545 S
C684   C692    1.417   .     S
C684   C685    1.397   .     A
C685   H701    1.084   .     S
C685   C1088   1.370   1_545 S
C686   H702    1.084   .     S
C686   C687    1.396   .     A
C686   C886    1.370   .     S
C688   N713    1.367   .     A
C688   H703    1.081   .     S
C688   C756    1.418   .     S
C689   N712    1.367   .     A
C689   H704    1.082   .     S
C690   N712    1.383   .     A
C690   C724    1.472   .     S
C691   H705    1.083   .     S
C691   N713    1.357   .     A
C691   C757    1.415   .     S
C692   O718    1.284   .     A
C692   O719    1.286   .     A
C693   C695    1.450   .     S
C693   O720    1.293   .     A
C693   O721    1.293   .     A
C696   O728    1.384   .     S
C696   C697    1.400   .     A
C697   C95     1.411   1_556 S
C697   O130    1.396   1_556 S
C698   H709    1.074   .     S
H707   C91     1.084   1_556 S
N712   Zn722   2.015   .     S
N713   Zn723   2.015   .     S
O714   Zn722   1.999   .     S
O715   Zn723   1.994   .     S
O716   Zn722   1.956   .     S
O717   Zn723   1.898   .     S
O718   Zn722   1.994   .     S
O719   Zn723   1.999   .     S
O720   Zn722   1.898   .     S
O721   Zn723   1.956   .     S
C724   O725    1.220   .     D
C724   O726    1.398   .     S
O726   H727    1.014   .     S
O728   C729    1.412   .     S
C729   H730    1.114   .     S
C729   H731    1.109   .     S
C729   H732    1.112   .     S
O733   C734    1.411   .     S
C734   H735    1.114   .     S
C734   H736    1.110   .     S
H737   C801    1.109   .     S
C738   O781    1.285   .     A
C738   O782    1.284   .     A
C738   C754    1.417   .     S
C739   C740    1.405   .     A
C739   C138    1.417   1_556 S
C739   C162    1.417   1_556 S
C740   C747    1.409   .     A
C740   C744    1.415   .     A
C741   C745    1.393   .     A
C742   C743    1.392   .     A
C742   C138    1.421   1_556 S
C742   C158    1.405   1_556 S
C743   C744    1.387   .     A
C743   H773    1.084   .     S
C744   H777    1.082   .     S
C745   C762    1.387   .     A
C745   H775    1.079   .     S
C746   C761    1.394   .     A
C746   H766    1.083   .     S
C746   C762    1.399   .     A
C747   C749    1.463   .     S
C747   C763    1.413   .     A
C748   H778    1.084   .     S
C748   C754    1.397   .     A
C748   C951    1.371   .     S
C749   O784    1.296   .     A
C749   O783    1.293   .     A
C750   C751    1.396   .     A
C750   H767    1.084   .     S
C750   C1150   1.371   1_545 S
C751   C759    1.417   .     S
C751   C752    1.397   .     A
C752   H768    1.084   .     S
C752   C1155   1.370   1_545 S
C753   H769    1.084   .     S
C753   C754    1.396   .     A
C753   C953    1.370   .     S
C755   N780    1.367   .     A
C755   H770    1.081   .     S
C755   C622    1.418   1_655 S
C756   N779    1.367   .     A
C756   H771    1.082   .     S
C757   N779    1.383   .     A
C757   C791    1.472   .     S
C758   H772    1.083   .     S
C758   N780    1.357   .     A
C758   C623    1.415   1_655 S
C759   O785    1.284   .     A
C759   O786    1.286   .     A
C760   C762    1.450   .     S
C760   O787    1.293   .     A
C760   O788    1.293   .     A
C763   O795    1.384   .     S
C763   C764    1.400   .     A
C764   C162    1.411   1_556 S
C764   O197    1.396   1_556 S
C765   H776    1.074   .     S
H774   C158    1.084   1_556 S
N779   Zn789   2.015   .     S
N780   Zn790   2.015   .     S
O781   Zn789   1.999   .     S
O782   Zn790   1.994   .     S
O783   Zn789   1.956   .     S
O784   Zn790   1.898   .     S
O785   Zn789   1.994   .     S
O786   Zn790   1.999   .     S
O787   Zn789   1.898   .     S
O788   Zn790   1.956   .     S
C791   O792    1.220   .     D
C791   O793    1.398   .     S
O793   H794    1.014   .     S
O795   C796    1.412   .     S
C796   H797    1.114   .     S
C796   H798    1.109   .     S
C796   H799    1.112   .     S
O800   C801    1.411   .     S
C801   H802    1.114   .     S
C801   H803    1.110   .     S
H804   C667    1.109   1_655 S
C805   O848    1.285   .     A
C805   O849    1.284   .     A
C805   C821    1.417   .     S
C806   C807    1.405   .     A
C806   C205    1.417   1_556 S
C806   C229    1.417   1_556 S
C807   C814    1.409   .     A
C807   C811    1.415   .     A
C808   C812    1.393   .     A
C809   C810    1.392   .     A
C809   C205    1.421   1_556 S
C809   C225    1.405   1_556 S
C810   C811    1.387   .     A
C810   H840    1.084   .     S
C811   H844    1.082   .     S
C812   C829    1.387   .     A
C812   H842    1.079   .     S
C813   C828    1.394   .     A
C813   H833    1.083   .     S
C813   C829    1.399   .     A
C814   C816    1.463   .     S
C814   C830    1.413   .     A
C815   H845    1.084   .     S
C815   C821    1.397   .     A
C815   C1018   1.371   .     S
C816   O851    1.296   .     A
C816   O850    1.293   .     A
C817   C818    1.396   .     A
C817   H834    1.084   .     S
C818   C826    1.417   .     S
C818   C819    1.397   .     A
C819   H835    1.084   .     S
C820   H836    1.084   .     S
C820   C821    1.396   .     A
C820   C1020   1.370   .     S
C822   N847    1.367   .     A
C822   H837    1.081   .     S
C822   C890    1.418   .     S
C823   N846    1.367   .     A
C823   H838    1.082   .     S
C823   C956    1.418   1_455 S
C824   N846    1.383   .     A
C824   C858    1.472   .     S
C824   C959    1.415   1_455 S
C825   H839    1.083   .     S
C825   N847    1.357   .     A
C825   C891    1.415   .     S
C826   O852    1.284   .     A
C826   O853    1.286   .     A
C827   C829    1.450   .     S
C827   O854    1.293   .     A
C827   O855    1.293   .     A
C830   O862    1.384   .     S
C830   C831    1.400   .     A
C831   C229    1.411   1_556 S
C831   O264    1.396   1_556 S
C832   H843    1.074   .     S
H841   C225    1.084   1_556 S
N846   Zn856   2.015   .     S
N847   Zn857   2.015   .     S
O848   Zn856   1.999   .     S
O849   Zn857   1.994   .     S
O850   Zn856   1.956   .     S
O851   Zn857   1.898   .     S
O852   Zn856   1.994   .     S
O853   Zn857   1.999   .     S
O854   Zn856   1.898   .     S
O855   Zn857   1.956   .     S
C858   O859    1.220   .     D
C858   O860    1.398   .     S
O860   H861    1.014   .     S
O862   C863    1.412   .     S
C863   H864    1.114   .     S
C863   H865    1.109   .     S
C863   H866    1.112   .     S
O867   C868    1.411   .     S
C868   H869    1.114   .     S
C868   H870    1.110   .     S
C868   H1005   1.109   1_455 S
H871   C935    1.109   .     S
C872   O915    1.285   .     A
C872   O916    1.284   .     A
C872   C888    1.417   .     S
C873   C874    1.405   .     A
C873   C272    1.417   1_556 S
C873   C296    1.417   1_556 S
C874   C881    1.409   .     A
C874   C878    1.415   .     A
C875   C879    1.393   .     A
C876   C877    1.392   .     A
C876   C272    1.421   1_556 S
C876   C292    1.405   1_556 S
C877   C878    1.387   .     A
C877   H907    1.084   .     S
C878   H911    1.082   .     S
C879   C896    1.387   .     A
C879   H909    1.079   .     S
C880   C895    1.394   .     A
C880   H900    1.083   .     S
C880   C896    1.399   .     A
C881   C883    1.463   .     S
C881   C897    1.413   .     A
C882   H912    1.084   .     S
C882   C888    1.397   .     A
C882   C1085   1.371   .     S
C883   O918    1.296   .     A
C883   O917    1.293   .     A
C884   C885    1.396   .     A
C884   H901    1.084   .     S
C885   C893    1.417   .     S
C885   C886    1.397   .     A
C886   H902    1.084   .     S
C887   H903    1.084   .     S
C887   C888    1.396   .     A
C887   C1087   1.370   .     S
C889   N914    1.367   .     A
C889   H904    1.081   .     S
C889   C957    1.418   .     S
C890   N913    1.367   .     A
C890   H905    1.082   .     S
C891   N913    1.383   .     A
C891   C925    1.472   .     S
C892   H906    1.083   .     S
C892   N914    1.357   .     A
C892   C958    1.415   .     S
C893   O919    1.284   .     A
C893   O920    1.286   .     A
C894   C896    1.450   .     S
C894   O921    1.293   .     A
C894   O922    1.293   .     A
C897   O929    1.384   .     S
C897   C898    1.400   .     A
C898   C296    1.411   1_556 S
C898   O331    1.396   1_556 S
C899   H910    1.074   .     S
H908   C292    1.084   1_556 S
N913   Zn923   2.015   .     S
N914   Zn924   2.015   .     S
O915   Zn923   1.999   .     S
O916   Zn924   1.994   .     S
O917   Zn923   1.956   .     S
O918   Zn924   1.898   .     S
O919   Zn923   1.994   .     S
O920   Zn924   1.999   .     S
O921   Zn923   1.898   .     S
O922   Zn924   1.956   .     S
C925   O926    1.220   .     D
C925   O927    1.398   .     S
O927   H928    1.014   .     S
O929   C930    1.412   .     S
C930   H931    1.114   .     S
C930   H932    1.109   .     S
C930   H933    1.112   .     S
O934   C935    1.411   .     S
C935   H936    1.114   .     S
C935   H937    1.110   .     S
H938   C1002   1.109   .     S
C939   O982    1.285   .     A
C939   O983    1.284   .     A
C939   C955    1.417   .     S
C940   C941    1.405   .     A
C940   C339    1.417   1_556 S
C940   C363    1.417   1_556 S
C941   C948    1.409   .     A
C941   C945    1.415   .     A
C942   C946    1.393   .     A
C943   C944    1.392   .     A
C943   C339    1.421   1_556 S
C943   C359    1.405   1_556 S
C944   C945    1.387   .     A
C944   H974    1.084   .     S
C945   H978    1.082   .     S
C946   C963    1.387   .     A
C946   H976    1.079   .     S
C947   C962    1.394   .     A
C947   H967    1.083   .     S
C947   C963    1.399   .     A
C948   C950    1.463   .     S
C948   C964    1.413   .     A
C949   H979    1.084   .     S
C949   C955    1.397   .     A
C949   C1152   1.371   .     S
C950   O985    1.296   .     A
C950   O984    1.293   .     A
C951   C952    1.396   .     A
C951   H968    1.084   .     S
C952   C960    1.417   .     S
C952   C953    1.397   .     A
C953   H969    1.084   .     S
C954   H970    1.084   .     S
C954   C955    1.396   .     A
C954   C1154   1.370   .     S
C956   N981    1.367   .     A
C956   H971    1.081   .     S
C956   C823    1.418   1_655 S
C957   N980    1.367   .     A
C957   H972    1.082   .     S
C958   N980    1.383   .     A
C958   C992    1.472   .     S
C959   H973    1.083   .     S
C959   N981    1.357   .     A
C959   C824    1.415   1_655 S
C960   O986    1.284   .     A
C960   O987    1.286   .     A
C961   C963    1.450   .     S
C961   O988    1.293   .     A
C961   O989    1.293   .     A
C964   O996    1.384   .     S
C964   C965    1.400   .     A
C965   C363    1.411   1_556 S
C965   O398    1.396   1_556 S
C966   H977    1.074   .     S
H975   C359    1.084   1_556 S
N980   Zn990   2.015   .     S
N981   Zn991   2.015   .     S
O982   Zn990   1.999   .     S
O983   Zn991   1.994   .     S
O984   Zn990   1.956   .     S
O985   Zn991   1.898   .     S
O986   Zn990   1.994   .     S
O987   Zn991   1.999   .     S
O988   Zn990   1.898   .     S
O989   Zn991   1.956   .     S
C992   O993    1.220   .     D
C992   O994    1.398   .     S
O994   H995    1.014   .     S
O996   C997    1.412   .     S
C997   H998    1.114   .     S
C997   H999    1.109   .     S
C997   H1000   1.112   .     S
O1001  C1002   1.411   .     S
C1002  H1003   1.114   .     S
C1002  H1004   1.110   .     S
H1005  C868    1.109   1_655 S
C1006  O1049   1.285   .     A
C1006  O1050   1.284   .     A
C1006  C1022   1.417   .     S
C1007  C1008   1.405   .     A
C1007  C406    1.417   1_556 S
C1007  C430    1.417   1_556 S
C1008  C1015   1.409   .     A
C1008  C1012   1.415   .     A
C1009  C1013   1.393   .     A
C1010  C1011   1.392   .     A
C1010  C406    1.421   1_556 S
C1010  C426    1.405   1_556 S
C1011  C1012   1.387   .     A
C1011  H1041   1.084   .     S
C1012  H1045   1.082   .     S
C1013  C1030   1.387   .     A
C1013  H1043   1.079   .     S
C1014  C1029   1.394   .     A
C1014  H1034   1.083   .     S
C1014  C1030   1.399   .     A
C1015  C1017   1.463   .     S
C1015  C1031   1.413   .     A
C1016  H1046   1.084   .     S
C1016  C1022   1.397   .     A
C1016  C616    1.371   1_565 S
C1017  O1052   1.296   .     A
C1017  O1051   1.293   .     A
C1018  C1019   1.396   .     A
C1018  H1035   1.084   .     S
C1019  C1027   1.417   .     S
C1019  C1020   1.397   .     A
C1020  H1036   1.084   .     S
C1021  H1037   1.084   .     S
C1021  C1022   1.396   .     A
C1021  C618    1.370   1_565 S
C1023  N1048   1.367   .     A
C1023  H1038   1.081   .     S
C1023  C1091   1.418   .     S
C1024  N1047   1.367   .     A
C1024  H1039   1.082   .     S
C1024  C1157   1.418   1_455 S
C1025  N1047   1.383   .     A
C1025  C1059   1.472   .     S
C1025  C1160   1.415   1_455 S
C1026  H1040   1.083   .     S
C1026  N1048   1.357   .     A
C1026  C1092   1.415   .     S
C1027  O1053   1.284   .     A
C1027  O1054   1.286   .     A
C1028  C1030   1.450   .     S
C1028  O1055   1.293   .     A
C1028  O1056   1.293   .     A
C1031  O1063   1.384   .     S
C1031  C1032   1.400   .     A
C1032  C430    1.411   1_556 S
C1032  O465    1.396   1_556 S
C1033  H1044   1.074   .     S
H1042  C426    1.084   1_556 S
N1047  Zn1057  2.015   .     S
N1048  Zn1058  2.015   .     S
O1049  Zn1057  1.999   .     S
O1050  Zn1058  1.994   .     S
O1051  Zn1057  1.956   .     S
O1052  Zn1058  1.898   .     S
O1053  Zn1057  1.994   .     S
O1054  Zn1058  1.999   .     S
O1055  Zn1057  1.898   .     S
O1056  Zn1058  1.956   .     S
C1059  O1060   1.220   .     D
C1059  O1061   1.398   .     S
O1061  H1062   1.014   .     S
O1063  C1064   1.412   .     S
C1064  H1065   1.114   .     S
C1064  H1066   1.109   .     S
C1064  H1067   1.112   .     S
O1068  C1069   1.411   .     S
C1069  H1070   1.114   .     S
C1069  H1071   1.110   .     S
C1069  H1206   1.109   1_455 S
H1072  C1136   1.109   .     S
C1073  O1116   1.285   .     A
C1073  O1117   1.284   .     A
C1073  C1089   1.417   .     S
C1074  C1075   1.405   .     A
C1074  C473    1.417   1_556 S
C1074  C497    1.417   1_556 S
C1075  C1082   1.409   .     A
C1075  C1079   1.415   .     A
C1076  C1080   1.393   .     A
C1077  C1078   1.392   .     A
C1077  C473    1.421   1_556 S
C1077  C493    1.405   1_556 S
C1078  C1079   1.387   .     A
C1078  H1108   1.084   .     S
C1079  H1112   1.082   .     S
C1080  C1097   1.387   .     A
C1080  H1110   1.079   .     S
C1081  C1096   1.394   .     A
C1081  H1101   1.083   .     S
C1081  C1097   1.399   .     A
C1082  C1084   1.463   .     S
C1082  C1098   1.413   .     A
C1083  H1113   1.084   .     S
C1083  C1089   1.397   .     A
C1083  C683    1.371   1_565 S
C1084  O1119   1.296   .     A
C1084  O1118   1.293   .     A
C1085  C1086   1.396   .     A
C1085  H1102   1.084   .     S
C1086  C1094   1.417   .     S
C1086  C1087   1.397   .     A
C1087  H1103   1.084   .     S
C1088  H1104   1.084   .     S
C1088  C1089   1.396   .     A
C1088  C685    1.370   1_565 S
C1090  N1115   1.367   .     A
C1090  H1105   1.081   .     S
C1090  C1158   1.418   .     S
C1091  N1114   1.367   .     A
C1091  H1106   1.082   .     S
C1092  N1114   1.383   .     A
C1092  C1126   1.472   .     S
C1093  H1107   1.083   .     S
C1093  N1115   1.357   .     A
C1093  C1159   1.415   .     S
C1094  O1120   1.284   .     A
C1094  O1121   1.286   .     A
C1095  C1097   1.450   .     S
C1095  O1122   1.293   .     A
C1095  O1123   1.293   .     A
C1098  O1130   1.384   .     S
C1098  C1099   1.400   .     A
C1099  C497    1.411   1_556 S
C1099  O532    1.396   1_556 S
C1100  H1111   1.074   .     S
H1109  C493    1.084   1_556 S
N1114  Zn1124  2.015   .     S
N1115  Zn1125  2.015   .     S
O1116  Zn1124  1.999   .     S
O1117  Zn1125  1.994   .     S
O1118  Zn1124  1.956   .     S
O1119  Zn1125  1.898   .     S
O1120  Zn1124  1.994   .     S
O1121  Zn1125  1.999   .     S
O1122  Zn1124  1.898   .     S
O1123  Zn1125  1.956   .     S
C1126  O1127   1.220   .     D
C1126  O1128   1.398   .     S
O1128  H1129   1.014   .     S
O1130  C1131   1.412   .     S
C1131  H1132   1.114   .     S
C1131  H1133   1.109   .     S
C1131  H1134   1.112   .     S
O1135  C1136   1.411   .     S
C1136  H1137   1.114   .     S
C1136  H1138   1.110   .     S
H1139  C1203   1.109   .     S
C1140  O1183   1.285   .     A
C1140  O1184   1.284   .     A
C1140  C1156   1.417   .     S
C1141  C1142   1.405   .     A
C1141  C540    1.417   1_556 S
C1141  C564    1.417   1_556 S
C1142  C1149   1.409   .     A
C1142  C1146   1.415   .     A
C1143  C1147   1.393   .     A
C1144  C1145   1.392   .     A
C1144  C540    1.421   1_556 S
C1144  C560    1.405   1_556 S
C1145  C1146   1.387   .     A
C1145  H1175   1.084   .     S
C1146  H1179   1.082   .     S
C1147  C1164   1.387   .     A
C1147  H1177   1.079   .     S
C1148  C1163   1.394   .     A
C1148  H1168   1.083   .     S
C1148  C1164   1.399   .     A
C1149  C1151   1.463   .     S
C1149  C1165   1.413   .     A
C1150  H1180   1.084   .     S
C1150  C1156   1.397   .     A
C1150  C750    1.371   1_565 S
C1151  O1186   1.296   .     A
C1151  O1185   1.293   .     A
C1152  C1153   1.396   .     A
C1152  H1169   1.084   .     S
C1153  C1161   1.417   .     S
C1153  C1154   1.397   .     A
C1154  H1170   1.084   .     S
C1155  H1171   1.084   .     S
C1155  C1156   1.396   .     A
C1155  C752    1.370   1_565 S
C1157  N1182   1.367   .     A
C1157  H1172   1.081   .     S
C1157  C1024   1.418   1_655 S
C1158  N1181   1.367   .     A
C1158  H1173   1.082   .     S
C1159  N1181   1.383   .     A
C1159  C1193   1.472   .     S
C1160  H1174   1.083   .     S
C1160  N1182   1.357   .     A
C1160  C1025   1.415   1_655 S
C1161  O1187   1.284   .     A
C1161  O1188   1.286   .     A
C1162  C1164   1.450   .     S
C1162  O1189   1.293   .     A
C1162  O1190   1.293   .     A
C1165  O1197   1.384   .     S
C1165  C1166   1.400   .     A
C1166  C564    1.411   1_556 S
C1166  O599    1.396   1_556 S
C1167  H1178   1.074   .     S
H1176  C560    1.084   1_556 S
N1181  Zn1191  2.015   .     S
N1182  Zn1192  2.015   .     S
O1183  Zn1191  1.999   .     S
O1184  Zn1192  1.994   .     S
O1185  Zn1191  1.956   .     S
O1186  Zn1192  1.898   .     S
O1187  Zn1191  1.994   .     S
O1188  Zn1192  1.999   .     S
O1189  Zn1191  1.898   .     S
O1190  Zn1192  1.956   .     S
C1193  O1194   1.220   .     D
C1193  O1195   1.398   .     S
O1195  H1196   1.014   .     S
O1197  C1198   1.412   .     S
C1198  H1199   1.114   .     S
C1198  H1200   1.109   .     S
C1198  H1201   1.112   .     S
O1202  C1203   1.411   .     S
C1203  H1204   1.114   .     S
C1203  H1205   1.110   .     S
H1206  C1069   1.109   1_655 S
