data_str_m1_o1_o2_pcu_sym.59
_audit_creation_date              2020-01-03
_audit_creation_method            'Materials Studio'
_symmetry_space_group_name_H-M    'P1'
_symmetry_Int_Tables_number       1
_symmetry_cell_setting            triclinic
loop_
_symmetry_equiv_pos_as_xyz
  x,y,z
_cell_length_a                    36.6987
_cell_length_b                    36.6986
_cell_length_c                    34.4611
_cell_angle_alpha                 90.0111
_cell_angle_beta                  90.0110
_cell_angle_gamma                 89.9997
loop_
_atom_site_label
_atom_site_type_symbol
_atom_site_fract_x
_atom_site_fract_y
_atom_site_fract_z
_atom_site_U_iso_or_equiv
_atom_site_adp_type
_atom_site_occupancy
C1     C     0.22087   0.01718   0.04144   0.00000  Uiso   1.00
C2     C     0.02804   0.26720   0.45871   0.00000  Uiso   1.00
C3     C     0.34814   0.40186   0.75000   0.00000  Uiso   1.00
C4     C     0.40186   0.15185   0.25000   0.00000  Uiso   1.00
C5     C     0.09814   0.34814   0.75001   0.00000  Uiso   1.00
C6     C     0.34814   0.40186   0.25000   0.00000  Uiso   1.00
C7     C     0.15186   0.09814   0.75000   0.00000  Uiso   1.00
C8     C     0.09814   0.15186   0.75000   0.00000  Uiso   1.00
C9     C     0.40186   0.34814   0.25000   0.00000  Uiso   1.00
C10    C     0.15186   0.40185   0.75000   0.00000  Uiso   1.00
C11    C     0.34814   0.09814   0.25001   0.00000  Uiso   1.00
C12    C     0.40186   0.34814   0.75000   0.00000  Uiso   1.00
C13    C     0.23261   0.47209   0.54130   0.00000  Uiso   1.00
C14    C     0.09814   0.15186   0.25000   0.00000  Uiso   1.00
C15    C     0.34815   0.09814   0.75000   0.00000  Uiso   1.00
C16    C     0.15186   0.40186   0.24999   0.00000  Uiso   1.00
C17    C     0.24981   0.49990   0.10243   0.00000  Uiso   1.00
C18    C     0.24995   0.49974   0.89756   0.00000  Uiso   1.00
C19    C     0.00026   0.25005   0.10244   0.00000  Uiso   1.00
C20    C     0.00010   0.25019   0.89757   0.00000  Uiso   1.00
C21    C     0.49981   0.24990   0.60244   0.00000  Uiso   1.00
C22    C     0.49995   0.24974   0.39756   0.00000  Uiso   1.00
C23    C     0.25027   0.00005   0.60245   0.00000  Uiso   1.00
C24    C     0.23301   0.02924   0.45857   0.00000  Uiso   1.00
C25    C     0.25011   0.00019   0.39757   0.00000  Uiso   1.00
C26    C     0.15975   0.03320   0.03591   0.00000  Uiso   1.00
C27    C     0.33947   0.02902   0.96690   0.00000  Uiso   1.00
C28    C     0.47079   0.16059   0.03311   0.00000  Uiso   1.00
C29    C     0.46702   0.34033   0.96411   0.00000  Uiso   1.00
C30    C     0.29591   0.42673   0.01863   0.00000  Uiso   1.00
C31    C     0.16034   0.46518   0.96365   0.00000  Uiso   1.00
C32    C     0.03504   0.33959   0.03637   0.00000  Uiso   1.00
C33    C     0.07319   0.20392   0.98134   0.00000  Uiso   1.00
C34    C     0.40980   0.28338   0.53592   0.00000  Uiso   1.00
C35    C     0.02713   0.23133   0.54165   0.00000  Uiso   1.00
C36    C     0.08951   0.27889   0.46690   0.00000  Uiso   1.00
C37    C     0.22043   0.41070   0.53312   0.00000  Uiso   1.00
C38    C     0.21747   0.09047   0.46415   0.00000  Uiso   1.00
C39    C     0.04581   0.17666   0.51865   0.00000  Uiso   1.00
C40    C     0.41028   0.21535   0.46366   0.00000  Uiso   1.00
C41    C     0.28549   0.08944   0.53641   0.00000  Uiso   1.00
C42    C     0.32302   0.45363   0.48134   0.00000  Uiso   1.00
C43    C     0.47131   0.23179   0.45835   0.00000  Uiso   1.00
C44    C     0.26844   0.02856   0.54166   0.00000  Uiso   1.00
C45    C     0.26849   0.47274   0.45836   0.00000  Uiso   1.00
C46    C     0.22161   0.01727   0.08229   0.00000  Uiso   1.00
C47    C     0.27761   0.01757   0.91797   0.00000  Uiso   1.00
C48    C     0.48238   0.22242   0.08204   0.00000  Uiso   1.00
C49    C     0.27801   0.01724   0.95870   0.00000  Uiso   1.00
C50    C     0.48279   0.27843   0.91771   0.00000  Uiso   1.00
C51    C     0.27772   0.48241   0.08208   0.00000  Uiso   1.00
C52    C     0.22219   0.48165   0.91755   0.00000  Uiso   1.00
C53    C     0.01841   0.27777   0.08245   0.00000  Uiso   1.00
C54    C     0.01754   0.22225   0.91792   0.00000  Uiso   1.00
C55    C     0.47163   0.26732   0.58230   0.00000  Uiso   1.00
C56    C     0.02764   0.26753   0.41797   0.00000  Uiso   1.00
C57    C     0.23229   0.47249   0.58204   0.00000  Uiso   1.00
C58    C     0.23290   0.02849   0.41772   0.00000  Uiso   1.00
C59    C     0.02769   0.23237   0.58209   0.00000  Uiso   1.00
C60    C     0.48271   0.22202   0.04130   0.00000  Uiso   1.00
C61    C     0.47217   0.23170   0.41756   0.00000  Uiso   1.00
C62    C     0.26852   0.02770   0.58246   0.00000  Uiso   1.00
C63    C     0.26744   0.47218   0.41792   0.00000  Uiso   1.00
C64    C     0.24929   0.49959   0.02131   0.00000  Uiso   1.00
C65    C     0.24951   0.49960   0.97862   0.00000  Uiso   1.00
C66    C     0.00040   0.25049   0.02138   0.00000  Uiso   1.00
C67    C     0.00042   0.25071   0.97869   0.00000  Uiso   1.00
C68    C     0.49929   0.24960   0.52132   0.00000  Uiso   1.00
C69    C     0.49951   0.24961   0.47862   0.00000  Uiso   1.00
C70    C     0.25042   0.00049   0.52139   0.00000  Uiso   1.00
C71    C     0.48288   0.27917   0.95856   0.00000  Uiso   1.00
C72    C     0.25043   0.00071   0.47870   0.00000  Uiso   1.00
C73    C     0.24997   0.00002   0.35520   0.00000  Uiso   1.00
C74    C     0.25003  -0.00000   0.64481   0.00000  Uiso   1.00
C75    C     0.00000   0.24997   0.35519   0.00000  Uiso   1.00
C76    C     0.49998   0.25003   0.64481   0.00000  Uiso   1.00
C77    C     0.49997   0.25002   0.85520   0.00000  Uiso   1.00
C78    C     0.00003   0.25000   0.14481   0.00000  Uiso   1.00
C79    C     0.25000   0.49997   0.85519   0.00000  Uiso   1.00
C80    C     0.24998   0.00003   0.14481   0.00000  Uiso   1.00
C81    C     0.17992   0.07008   0.25000   0.00000  Uiso   1.00
C82    C     0.27716   0.48136   0.04165   0.00000  Uiso   1.00
C83    C     0.32008   0.42992   0.75000   0.00000  Uiso   1.00
C84    C     0.42992   0.17992   0.25000   0.00000  Uiso   1.00
C85    C     0.07008   0.32008   0.75000   0.00000  Uiso   1.00
C86    C     0.32008   0.42992   0.25000   0.00000  Uiso   1.00
C87    C     0.17992   0.07008   0.75000   0.00000  Uiso   1.00
C88    C     0.07008   0.32008   0.25000   0.00000  Uiso   1.00
C89    C     0.42992   0.17992   0.75000   0.00000  Uiso   1.00
C90    C     0.17992   0.42992   0.75000   0.00000  Uiso   1.00
C91    C     0.32008   0.07008   0.25000   0.00000  Uiso   1.00
C92    C     0.42992   0.32008   0.75000   0.00000  Uiso   1.00
C93    C     0.22134   0.48174   0.95835   0.00000  Uiso   1.00
C94    C     0.07008   0.17992   0.25000   0.00000  Uiso   1.00
C95    C     0.32008   0.07008   0.75000   0.00000  Uiso   1.00
C96    C     0.17992   0.42992   0.25000   0.00000  Uiso   1.00
C97    C     0.07008   0.17992   0.75000   0.00000  Uiso   1.00
C98    C     0.42992   0.32008   0.25000   0.00000  Uiso   1.00
C99    C     0.12189   0.40481   0.22496   0.00000  Uiso   1.00
C100   C     0.37811   0.09518   0.77503   0.00000  Uiso   1.00
C101   C     0.09519   0.12191   0.22494   0.00000  Uiso   1.00
C102   C     0.40481   0.37809   0.77506   0.00000  Uiso   1.00
C103   C     0.37810   0.09517   0.22497   0.00000  Uiso   1.00
C104   C     0.01832   0.27863   0.04166   0.00000  Uiso   1.00
C105   C     0.12191   0.40482   0.77504   0.00000  Uiso   1.00
C106   C     0.40484   0.37813   0.22501   0.00000  Uiso   1.00
C107   C     0.09516   0.12187   0.77500   0.00000  Uiso   1.00
C108   C     0.12187   0.09516   0.77499   0.00000  Uiso   1.00
C109   C     0.37813   0.40484   0.22500   0.00000  Uiso   1.00
C110   C     0.09519   0.37811   0.77504   0.00000  Uiso   1.00
C111   C     0.40482   0.12189   0.22497   0.00000  Uiso   1.00
C112   C     0.37809   0.40481   0.77506   0.00000  Uiso   1.00
C113   C     0.12191   0.09519   0.22494   0.00000  Uiso   1.00
C114   C     0.40483   0.12190   0.77503   0.00000  Uiso   1.00
C115   C     0.01859   0.22281   0.95835   0.00000  Uiso   1.00
C116   C     0.09518   0.37809   0.22496   0.00000  Uiso   1.00
C117   C     0.37189   0.15481   0.72496   0.00000  Uiso   1.00
C118   C     0.12811   0.34518   0.27503   0.00000  Uiso   1.00
C119   C     0.34519   0.37191   0.72494   0.00000  Uiso   1.00
C120   C     0.15481   0.12809   0.27506   0.00000  Uiso   1.00
C121   C     0.12810   0.34517   0.72497   0.00000  Uiso   1.00
C122   C     0.37191   0.15482   0.27504   0.00000  Uiso   1.00
C123   C     0.15484   0.12813   0.72501   0.00000  Uiso   1.00
C124   C     0.34516   0.37187   0.27499   0.00000  Uiso   1.00
C125   C     0.37187   0.34516   0.27499   0.00000  Uiso   1.00
C126   C     0.47089   0.26723   0.54145   0.00000  Uiso   1.00
C127   C     0.12813   0.15484   0.72501   0.00000  Uiso   1.00
C128   C     0.34519   0.12811   0.27504   0.00000  Uiso   1.00
C129   C     0.15482   0.37189   0.72497   0.00000  Uiso   1.00
C130   C     0.12809   0.15481   0.27506   0.00000  Uiso   1.00
C131   C     0.37191   0.34519   0.72494   0.00000  Uiso   1.00
C132   C     0.15483   0.37190   0.27503   0.00000  Uiso   1.00
C133   C     0.34518   0.12809   0.72496   0.00000  Uiso   1.00
C134   C     0.09815   0.34814   0.25000   0.00000  Uiso   1.00
C135   C     0.40186   0.15186   0.74999   0.00000  Uiso   1.00
C136   C     0.15186   0.09814   0.25000   0.00000  Uiso   1.00
H137   H     0.11906   0.42772   0.20537   0.00000  Uiso   1.00
H138   H     0.38098   0.42777   0.20545   0.00000  Uiso   1.00
H139   H     0.07228   0.38094   0.79462   0.00000  Uiso   1.00
H140   H     0.42773   0.11905   0.20538   0.00000  Uiso   1.00
H141   H     0.38092   0.42771   0.79466   0.00000  Uiso   1.00
H142   H     0.11909   0.07229   0.20534   0.00000  Uiso   1.00
H143   H     0.42774   0.11907   0.79461   0.00000  Uiso   1.00
H144   H     0.07227   0.38092   0.20537   0.00000  Uiso   1.00
H145   H     0.36906   0.17772   0.70537   0.00000  Uiso   1.00
H146   H     0.13095   0.32227   0.29462   0.00000  Uiso   1.00
H147   H     0.32229   0.36908   0.70534   0.00000  Uiso   1.00
H148   H     0.38094   0.07228   0.79462   0.00000  Uiso   1.00
H149   H     0.17771   0.13091   0.29466   0.00000  Uiso   1.00
H150   H     0.13093   0.32226   0.70539   0.00000  Uiso   1.00
H151   H     0.36908   0.17774   0.29463   0.00000  Uiso   1.00
H152   H     0.17777   0.13098   0.70546   0.00000  Uiso   1.00
H153   H     0.32223   0.36902   0.29455   0.00000  Uiso   1.00
H154   H     0.36902   0.32223   0.29454   0.00000  Uiso   1.00
H155   H     0.13098   0.17777   0.70545   0.00000  Uiso   1.00
H156   H     0.32228   0.13094   0.29462   0.00000  Uiso   1.00
H157   H     0.17773   0.36905   0.70538   0.00000  Uiso   1.00
H158   H     0.13092   0.17771   0.29466   0.00000  Uiso   1.00
H159   H     0.07229   0.11908   0.20534   0.00000  Uiso   1.00
H160   H     0.36909   0.32229   0.70534   0.00000  Uiso   1.00
H161   H     0.17774   0.36907   0.29461   0.00000  Uiso   1.00
H162   H     0.32227   0.13092   0.70537   0.00000  Uiso   1.00
H163   H     0.20100   0.03179   0.09858   0.00000  Uiso   1.00
H164   H     0.29826   0.03241   0.90208   0.00000  Uiso   1.00
H165   H     0.46750   0.20180   0.09793   0.00000  Uiso   1.00
H166   H     0.46831   0.29906   0.90143   0.00000  Uiso   1.00
H167   H     0.29962   0.46892   0.09752   0.00000  Uiso   1.00
H168   H     0.20184   0.46686   0.90118   0.00000  Uiso   1.00
H169   H     0.03324   0.29809   0.09882   0.00000  Uiso   1.00
H170   H     0.42771   0.38091   0.79466   0.00000  Uiso   1.00
H171   H     0.03098   0.20032   0.90248   0.00000  Uiso   1.00
H172   H     0.45104   0.28185   0.59858   0.00000  Uiso   1.00
H173   H     0.04831   0.28234   0.40208   0.00000  Uiso   1.00
H174   H     0.21733   0.45192   0.59793   0.00000  Uiso   1.00
H175   H     0.21851   0.04919   0.40145   0.00000  Uiso   1.00
H176   H     0.04958   0.21885   0.59752   0.00000  Uiso   1.00
H177   H     0.45179   0.21693   0.40119   0.00000  Uiso   1.00
H178   H     0.28342   0.04797   0.59884   0.00000  Uiso   1.00
H179   H     0.28080   0.45020   0.40249   0.00000  Uiso   1.00
H180   H     0.13967   0.03963   0.01284   0.00000  Uiso   1.00
H181   H     0.38093   0.07226   0.20539   0.00000  Uiso   1.00
H182   H     0.15563   0.05330   0.05960   0.00000  Uiso   1.00
H183   H     0.15386   0.00501   0.04614   0.00000  Uiso   1.00
H184   H     0.35883   0.03585   0.99053   0.00000  Uiso   1.00
H185   H     0.34646   0.04649   0.94167   0.00000  Uiso   1.00
H186   H     0.34352   0.49968   0.95974   0.00000  Uiso   1.00
H187   H     0.46392   0.14125   0.00947   0.00000  Uiso   1.00
H188   H     0.45330   0.15364   0.05834   0.00000  Uiso   1.00
H189   H     0.00012   0.15648   0.04027   0.00000  Uiso   1.00
H190   H     0.46064   0.36042   0.98718   0.00000  Uiso   1.00
H191   H     0.44694   0.34451   0.94041   0.00000  Uiso   1.00
H192   H     0.11908   0.42774   0.79463   0.00000  Uiso   1.00
H193   H     0.49523   0.34614   0.95389   0.00000  Uiso   1.00
H194   H     0.26996   0.42285   0.00238   0.00000  Uiso   1.00
H195   H     0.29420   0.41351   0.04765   0.00000  Uiso   1.00
H196   H     0.31777   0.41281   0.00207   0.00000  Uiso   1.00
H197   H     0.14025   0.45857   0.98664   0.00000  Uiso   1.00
H198   H     0.15646   0.44506   0.93993   0.00000  Uiso   1.00
H199   H     0.15423   0.49332   0.95340   0.00000  Uiso   1.00
H200   H     0.04169   0.35966   0.01338   0.00000  Uiso   1.00
H201   H     0.05518   0.34341   0.06007   0.00000  Uiso   1.00
H202   H     0.00692   0.34577   0.04663   0.00000  Uiso   1.00
H203   H     0.42777   0.38098   0.20546   0.00000  Uiso   1.00
H204   H     0.07714   0.22987   0.99756   0.00000  Uiso   1.00
H205   H     0.08640   0.20556   0.95232   0.00000  Uiso   1.00
H206   H     0.08706   0.18204   0.99792   0.00000  Uiso   1.00
H207   H     0.38973   0.28983   0.51286   0.00000  Uiso   1.00
H208   H     0.40574   0.30350   0.55960   0.00000  Uiso   1.00
H209   H     0.40385   0.25520   0.54618   0.00000  Uiso   1.00
H210   H     0.10888   0.28569   0.49053   0.00000  Uiso   1.00
H211   H     0.09653   0.29634   0.44167   0.00000  Uiso   1.00
H212   H     0.09352   0.24953   0.45975   0.00000  Uiso   1.00
H213   H     0.21350   0.39139   0.50948   0.00000  Uiso   1.00
H214   H     0.07223   0.11902   0.79455   0.00000  Uiso   1.00
H215   H     0.20291   0.40383   0.55834   0.00000  Uiso   1.00
H216   H     0.24975   0.40647   0.54029   0.00000  Uiso   1.00
H217   H     0.21119   0.11057   0.48723   0.00000  Uiso   1.00
H218   H     0.19745   0.09479   0.44043   0.00000  Uiso   1.00
H219   H     0.24573   0.09614   0.45397   0.00000  Uiso   1.00
H220   H     0.01985   0.17282   0.50242   0.00000  Uiso   1.00
H221   H     0.04410   0.16345   0.54767   0.00000  Uiso   1.00
H222   H     0.06764   0.16271   0.50207   0.00000  Uiso   1.00
H223   H     0.39019   0.20878   0.48666   0.00000  Uiso   1.00
H224   H     0.40635   0.19525   0.43994   0.00000  Uiso   1.00
H225   H     0.11902   0.07223   0.79454   0.00000  Uiso   1.00
H226   H     0.40423   0.24351   0.45343   0.00000  Uiso   1.00
H227   H     0.29223   0.10950   0.51343   0.00000  Uiso   1.00
H228   H     0.30568   0.09312   0.56009   0.00000  Uiso   1.00
H229   H     0.25741   0.09577   0.54671   0.00000  Uiso   1.00
H230   H     0.32707   0.47956   0.49757   0.00000  Uiso   1.00
H231   H     0.33623   0.45522   0.45232   0.00000  Uiso   1.00
H232   H     0.33680   0.43169   0.49792   0.00000  Uiso   1.00
O233   O     0.25000   0.00000   0.25000   0.00000  Uiso   1.00
O234   O     0.25000   0.46964   0.66317   0.00000  Uiso   1.00
O235   O     0.46964   0.25000   0.33683   0.00000  Uiso   1.00
O236   O     0.03036   0.25000   0.66317   0.00000  Uiso   1.00
O237   O     0.00000   0.21964   0.83683   0.00000  Uiso   1.00
O238   O     0.00000   0.28036   0.16317   0.00000  Uiso   1.00
O239   O     0.28036   0.00000   0.83683   0.00000  Uiso   1.00
O240   O     0.21964  -0.00000   0.16317   0.00000  Uiso   1.00
O241   O     0.00000   0.28036   0.83683   0.00000  Uiso   1.00
O242   O     0.00000   0.21964   0.16317   0.00000  Uiso   1.00
O243   O     0.21964   0.00000   0.83683   0.00000  Uiso   1.00
O244   O     0.25000   0.00000   0.75000   0.00000  Uiso   1.00
O245   O     0.28036  -0.00000   0.16317   0.00000  Uiso   1.00
O246   O     0.20726   0.07307   0.27282   0.00000  Uiso   1.00
O247   O     0.29275   0.42693   0.72718   0.00000  Uiso   1.00
O248   O     0.42693   0.20725   0.27282   0.00000  Uiso   1.00
O249   O     0.07307   0.29274   0.72718   0.00000  Uiso   1.00
O250   O     0.29275   0.42693   0.27282   0.00000  Uiso   1.00
O251   O     0.20726   0.07307   0.72718   0.00000  Uiso   1.00
O252   O     0.07307   0.29274   0.27282   0.00000  Uiso   1.00
O253   O     0.42693   0.20725   0.72718   0.00000  Uiso   1.00
O254   O     0.20726   0.42693   0.72718   0.00000  Uiso   1.00
O255   O     0.00000   0.25000   0.25000   0.00000  Uiso   1.00
O256   O     0.29275   0.07307   0.27282   0.00000  Uiso   1.00
O257   O     0.42693   0.29274   0.72718   0.00000  Uiso   1.00
O258   O     0.07307   0.20725   0.27282   0.00000  Uiso   1.00
O259   O     0.29275   0.07307   0.72718   0.00000  Uiso   1.00
O260   O     0.20726   0.42693   0.27282   0.00000  Uiso   1.00
O261   O     0.07307   0.20725   0.72718   0.00000  Uiso   1.00
O262   O     0.42693   0.29274   0.27282   0.00000  Uiso   1.00
O263   O     0.45726   0.32307   0.77282   0.00000  Uiso   1.00
O264   O     0.04275   0.17693   0.22718   0.00000  Uiso   1.00
O265   O     0.17693   0.45725   0.77282   0.00000  Uiso   1.00
O266   O     0.00000   0.25000   0.75000   0.00000  Uiso   1.00
O267   O     0.32307   0.04275   0.22718   0.00000  Uiso   1.00
O268   O     0.04275   0.17693   0.77282   0.00000  Uiso   1.00
O269   O     0.45726   0.32307   0.22718   0.00000  Uiso   1.00
O270   O     0.32307   0.04275   0.77282   0.00000  Uiso   1.00
O271   O     0.17693   0.45725   0.22718   0.00000  Uiso   1.00
O272   O     0.45726   0.17693   0.22718   0.00000  Uiso   1.00
O273   O     0.04275   0.32307   0.77282   0.00000  Uiso   1.00
O274   O     0.17693   0.04275   0.22718   0.00000  Uiso   1.00
O275   O     0.32307   0.45725   0.77282   0.00000  Uiso   1.00
O276   O     0.04275   0.32307   0.22718   0.00000  Uiso   1.00
O277   O     0.25000   0.46964   0.33683   0.00000  Uiso   1.00
O278   O     0.45726   0.17693   0.77282   0.00000  Uiso   1.00
O279   O     0.32307   0.45725   0.22718   0.00000  Uiso   1.00
O280   O     0.17693   0.04275   0.77282   0.00000  Uiso   1.00
O281   O     0.19509   0.03659   0.02012   0.00000  Uiso   1.00
O282   O     0.30379   0.03657   0.97998   0.00000  Uiso   1.00
O283   O     0.46332   0.19629   0.02002   0.00000  Uiso   1.00
O284   O     0.46353   0.30499   0.97988   0.00000  Uiso   1.00
O285   O     0.30492   0.46393   0.02193   0.00000  Uiso   1.00
O286   O     0.19566   0.46210   0.97955   0.00000  Uiso   1.00
O287   O     0.03802   0.30426   0.02045   0.00000  Uiso   1.00
O288   O     0.25000   0.03036   0.66317   0.00000  Uiso   1.00
O289   O     0.03596   0.19500   0.97807   0.00000  Uiso   1.00
O290   O     0.44515   0.28667   0.52012   0.00000  Uiso   1.00
O291   O     0.05384   0.28649   0.47998   0.00000  Uiso   1.00
O292   O     0.21313   0.44643   0.52003   0.00000  Uiso   1.00
O293   O     0.21377   0.05514   0.47988   0.00000  Uiso   1.00
O294   O     0.05487   0.21385   0.52194   0.00000  Uiso   1.00
O295   O     0.44561   0.21219   0.47956   0.00000  Uiso   1.00
O296   O     0.28825   0.05410   0.52045   0.00000  Uiso   1.00
O297   O     0.28576   0.44486   0.47807   0.00000  Uiso   1.00
O298   O     0.03036   0.25000   0.33683   0.00000  Uiso   1.00
O299   O     0.46964   0.25000   0.66317   0.00000  Uiso   1.00
O300   O     0.25000   0.03036   0.33683   0.00000  Uiso   1.00
Zn301  Zn    0.20660   0.00000   0.21760   0.00000  Uiso   1.00
Zn302  Zn    0.04340   0.25000   0.28240   0.00000  Uiso   1.00
Zn303  Zn    0.25000   0.45660   0.71760   0.00000  Uiso   1.00
Zn304  Zn    0.25000   0.04340   0.28240   0.00000  Uiso   1.00
Zn305  Zn    0.04340   0.25000   0.71760   0.00000  Uiso   1.00
Zn306  Zn    0.45660   0.25000   0.28240   0.00000  Uiso   1.00
Zn307  Zn    0.25000   0.04340   0.71760   0.00000  Uiso   1.00
Zn308  Zn    0.25000   0.45660   0.28240   0.00000  Uiso   1.00
Zn309  Zn    0.29340   0.00000   0.78240   0.00000  Uiso   1.00
Zn310  Zn    0.00000   0.20660   0.21760   0.00000  Uiso   1.00
Zn311  Zn    0.00000   0.29340   0.78240   0.00000  Uiso   1.00
Zn312  Zn    0.29340   0.00000   0.21760   0.00000  Uiso   1.00
Zn313  Zn    0.20660   0.00000   0.78240   0.00000  Uiso   1.00
Zn314  Zn    0.00000   0.29340   0.21760   0.00000  Uiso   1.00
Zn315  Zn    0.00000   0.20660   0.78240   0.00000  Uiso   1.00
Zn316  Zn    0.45660   0.25000   0.71760   0.00000  Uiso   1.00
C317   C     0.72087   0.01718   0.04144   0.00000  Uiso   1.00
C318   C     0.52804   0.26720   0.45871   0.00000  Uiso   1.00
C319   C     0.84814   0.40186   0.75000   0.00000  Uiso   1.00
C320   C     0.90186   0.15185   0.25000   0.00000  Uiso   1.00
C321   C     0.59814   0.34814   0.75001   0.00000  Uiso   1.00
C322   C     0.84814   0.40186   0.25000   0.00000  Uiso   1.00
C323   C     0.65186   0.09814   0.75000   0.00000  Uiso   1.00
C324   C     0.59814   0.15186   0.75000   0.00000  Uiso   1.00
C325   C     0.90186   0.34814   0.25000   0.00000  Uiso   1.00
C326   C     0.65186   0.40185   0.75000   0.00000  Uiso   1.00
C327   C     0.84814   0.09814   0.25001   0.00000  Uiso   1.00
C328   C     0.90186   0.34814   0.75000   0.00000  Uiso   1.00
C329   C     0.73261   0.47209   0.54130   0.00000  Uiso   1.00
C330   C     0.59814   0.15186   0.25000   0.00000  Uiso   1.00
C331   C     0.84815   0.09814   0.75000   0.00000  Uiso   1.00
C332   C     0.65186   0.40186   0.24999   0.00000  Uiso   1.00
C333   C     0.74981   0.49990   0.10243   0.00000  Uiso   1.00
C334   C     0.74995   0.49974   0.89756   0.00000  Uiso   1.00
C335   C     0.50026   0.25005   0.10244   0.00000  Uiso   1.00
C336   C     0.50010   0.25019   0.89757   0.00000  Uiso   1.00
C337   C     0.99981   0.24990   0.60244   0.00000  Uiso   1.00
C338   C     0.99995   0.24974   0.39756   0.00000  Uiso   1.00
C339   C     0.75027   0.00005   0.60245   0.00000  Uiso   1.00
C340   C     0.73301   0.02924   0.45857   0.00000  Uiso   1.00
C341   C     0.75011   0.00019   0.39757   0.00000  Uiso   1.00
C342   C     0.65975   0.03320   0.03591   0.00000  Uiso   1.00
C343   C     0.83947   0.02902   0.96690   0.00000  Uiso   1.00
C344   C     0.97079   0.16059   0.03311   0.00000  Uiso   1.00
C345   C     0.96702   0.34033   0.96411   0.00000  Uiso   1.00
C346   C     0.79591   0.42673   0.01863   0.00000  Uiso   1.00
C347   C     0.66034   0.46518   0.96365   0.00000  Uiso   1.00
C348   C     0.53504   0.33959   0.03637   0.00000  Uiso   1.00
C349   C     0.57319   0.20392   0.98134   0.00000  Uiso   1.00
C350   C     0.90980   0.28338   0.53592   0.00000  Uiso   1.00
C351   C     0.52713   0.23133   0.54165   0.00000  Uiso   1.00
C352   C     0.58951   0.27889   0.46690   0.00000  Uiso   1.00
C353   C     0.72043   0.41070   0.53312   0.00000  Uiso   1.00
C354   C     0.71747   0.09047   0.46415   0.00000  Uiso   1.00
C355   C     0.54581   0.17666   0.51865   0.00000  Uiso   1.00
C356   C     0.91028   0.21535   0.46366   0.00000  Uiso   1.00
C357   C     0.78549   0.08944   0.53641   0.00000  Uiso   1.00
C358   C     0.82302   0.45363   0.48134   0.00000  Uiso   1.00
C359   C     0.97131   0.23179   0.45835   0.00000  Uiso   1.00
C360   C     0.76844   0.02856   0.54166   0.00000  Uiso   1.00
C361   C     0.76849   0.47274   0.45836   0.00000  Uiso   1.00
C362   C     0.72161   0.01727   0.08229   0.00000  Uiso   1.00
C363   C     0.77761   0.01757   0.91797   0.00000  Uiso   1.00
C364   C     0.98238   0.22242   0.08204   0.00000  Uiso   1.00
C365   C     0.77801   0.01724   0.95870   0.00000  Uiso   1.00
C366   C     0.98279   0.27843   0.91771   0.00000  Uiso   1.00
C367   C     0.77772   0.48241   0.08208   0.00000  Uiso   1.00
C368   C     0.72219   0.48165   0.91755   0.00000  Uiso   1.00
C369   C     0.51841   0.27777   0.08245   0.00000  Uiso   1.00
C370   C     0.51754   0.22225   0.91792   0.00000  Uiso   1.00
C371   C     0.97163   0.26732   0.58230   0.00000  Uiso   1.00
C372   C     0.52764   0.26753   0.41797   0.00000  Uiso   1.00
C373   C     0.73229   0.47249   0.58204   0.00000  Uiso   1.00
C374   C     0.73290   0.02849   0.41772   0.00000  Uiso   1.00
C375   C     0.52769   0.23237   0.58209   0.00000  Uiso   1.00
C376   C     0.98271   0.22202   0.04130   0.00000  Uiso   1.00
C377   C     0.97217   0.23170   0.41756   0.00000  Uiso   1.00
C378   C     0.76852   0.02770   0.58246   0.00000  Uiso   1.00
C379   C     0.76744   0.47218   0.41792   0.00000  Uiso   1.00
C380   C     0.74929   0.49959   0.02131   0.00000  Uiso   1.00
C381   C     0.74951   0.49960   0.97862   0.00000  Uiso   1.00
C382   C     0.50040   0.25049   0.02138   0.00000  Uiso   1.00
C383   C     0.50042   0.25071   0.97869   0.00000  Uiso   1.00
C384   C     0.99929   0.24960   0.52132   0.00000  Uiso   1.00
C385   C     0.99951   0.24961   0.47862   0.00000  Uiso   1.00
C386   C     0.75042   0.00049   0.52139   0.00000  Uiso   1.00
C387   C     0.98288   0.27917   0.95856   0.00000  Uiso   1.00
C388   C     0.75043   0.00071   0.47870   0.00000  Uiso   1.00
C389   C     0.74997   0.00002   0.35520   0.00000  Uiso   1.00
C390   C     0.75003  -0.00000   0.64481   0.00000  Uiso   1.00
C391   C     0.50000   0.24997   0.35519   0.00000  Uiso   1.00
C392   C     0.99998   0.25003   0.64481   0.00000  Uiso   1.00
C393   C     0.99997   0.25002   0.85520   0.00000  Uiso   1.00
C394   C     0.50003   0.25000   0.14481   0.00000  Uiso   1.00
C395   C     0.75000   0.49997   0.85519   0.00000  Uiso   1.00
C396   C     0.74998   0.00003   0.14481   0.00000  Uiso   1.00
C397   C     0.67992   0.07008   0.25000   0.00000  Uiso   1.00
C398   C     0.77716   0.48136   0.04165   0.00000  Uiso   1.00
C399   C     0.82008   0.42992   0.75000   0.00000  Uiso   1.00
C400   C     0.92992   0.17992   0.25000   0.00000  Uiso   1.00
C401   C     0.57008   0.32008   0.75000   0.00000  Uiso   1.00
C402   C     0.82008   0.42992   0.25000   0.00000  Uiso   1.00
C403   C     0.67992   0.07008   0.75000   0.00000  Uiso   1.00
C404   C     0.57008   0.32008   0.25000   0.00000  Uiso   1.00
C405   C     0.92992   0.17992   0.75000   0.00000  Uiso   1.00
C406   C     0.67992   0.42992   0.75000   0.00000  Uiso   1.00
C407   C     0.82008   0.07008   0.25000   0.00000  Uiso   1.00
C408   C     0.92992   0.32008   0.75000   0.00000  Uiso   1.00
C409   C     0.72134   0.48174   0.95835   0.00000  Uiso   1.00
C410   C     0.57008   0.17992   0.25000   0.00000  Uiso   1.00
C411   C     0.82008   0.07008   0.75000   0.00000  Uiso   1.00
C412   C     0.67992   0.42992   0.25000   0.00000  Uiso   1.00
C413   C     0.57008   0.17992   0.75000   0.00000  Uiso   1.00
C414   C     0.92992   0.32008   0.25000   0.00000  Uiso   1.00
C415   C     0.62189   0.40481   0.22496   0.00000  Uiso   1.00
C416   C     0.87811   0.09518   0.77503   0.00000  Uiso   1.00
C417   C     0.59519   0.12191   0.22494   0.00000  Uiso   1.00
C418   C     0.90481   0.37809   0.77506   0.00000  Uiso   1.00
C419   C     0.87810   0.09517   0.22497   0.00000  Uiso   1.00
C420   C     0.51832   0.27863   0.04166   0.00000  Uiso   1.00
C421   C     0.62191   0.40482   0.77504   0.00000  Uiso   1.00
C422   C     0.90484   0.37813   0.22501   0.00000  Uiso   1.00
C423   C     0.59516   0.12187   0.77500   0.00000  Uiso   1.00
C424   C     0.62187   0.09516   0.77499   0.00000  Uiso   1.00
C425   C     0.87813   0.40484   0.22500   0.00000  Uiso   1.00
C426   C     0.59519   0.37811   0.77504   0.00000  Uiso   1.00
C427   C     0.90482   0.12189   0.22497   0.00000  Uiso   1.00
C428   C     0.87809   0.40481   0.77506   0.00000  Uiso   1.00
C429   C     0.62191   0.09519   0.22494   0.00000  Uiso   1.00
C430   C     0.90483   0.12190   0.77503   0.00000  Uiso   1.00
C431   C     0.51859   0.22281   0.95835   0.00000  Uiso   1.00
C432   C     0.59518   0.37809   0.22496   0.00000  Uiso   1.00
C433   C     0.87189   0.15481   0.72496   0.00000  Uiso   1.00
C434   C     0.62811   0.34518   0.27503   0.00000  Uiso   1.00
C435   C     0.84519   0.37191   0.72494   0.00000  Uiso   1.00
C436   C     0.65481   0.12809   0.27506   0.00000  Uiso   1.00
C437   C     0.62810   0.34517   0.72497   0.00000  Uiso   1.00
C438   C     0.87191   0.15482   0.27504   0.00000  Uiso   1.00
C439   C     0.65484   0.12813   0.72501   0.00000  Uiso   1.00
C440   C     0.84516   0.37187   0.27499   0.00000  Uiso   1.00
C441   C     0.87187   0.34516   0.27499   0.00000  Uiso   1.00
C442   C     0.97089   0.26723   0.54145   0.00000  Uiso   1.00
C443   C     0.62813   0.15484   0.72501   0.00000  Uiso   1.00
C444   C     0.84519   0.12811   0.27504   0.00000  Uiso   1.00
C445   C     0.65482   0.37189   0.72497   0.00000  Uiso   1.00
C446   C     0.62809   0.15481   0.27506   0.00000  Uiso   1.00
C447   C     0.87191   0.34519   0.72494   0.00000  Uiso   1.00
C448   C     0.65483   0.37190   0.27503   0.00000  Uiso   1.00
C449   C     0.84518   0.12809   0.72496   0.00000  Uiso   1.00
C450   C     0.59815   0.34814   0.25000   0.00000  Uiso   1.00
C451   C     0.90186   0.15186   0.74999   0.00000  Uiso   1.00
C452   C     0.65186   0.09814   0.25000   0.00000  Uiso   1.00
H453   H     0.61906   0.42772   0.20537   0.00000  Uiso   1.00
H454   H     0.88098   0.42777   0.20545   0.00000  Uiso   1.00
H455   H     0.57228   0.38094   0.79462   0.00000  Uiso   1.00
H456   H     0.92773   0.11905   0.20538   0.00000  Uiso   1.00
H457   H     0.88092   0.42771   0.79466   0.00000  Uiso   1.00
H458   H     0.61909   0.07229   0.20534   0.00000  Uiso   1.00
H459   H     0.92774   0.11907   0.79461   0.00000  Uiso   1.00
H460   H     0.57227   0.38092   0.20537   0.00000  Uiso   1.00
H461   H     0.86906   0.17772   0.70537   0.00000  Uiso   1.00
H462   H     0.63095   0.32227   0.29462   0.00000  Uiso   1.00
H463   H     0.82229   0.36908   0.70534   0.00000  Uiso   1.00
H464   H     0.88094   0.07228   0.79462   0.00000  Uiso   1.00
H465   H     0.67771   0.13091   0.29466   0.00000  Uiso   1.00
H466   H     0.63093   0.32226   0.70539   0.00000  Uiso   1.00
H467   H     0.86908   0.17774   0.29463   0.00000  Uiso   1.00
H468   H     0.67777   0.13098   0.70546   0.00000  Uiso   1.00
H469   H     0.82223   0.36902   0.29455   0.00000  Uiso   1.00
H470   H     0.86902   0.32223   0.29454   0.00000  Uiso   1.00
H471   H     0.63098   0.17777   0.70545   0.00000  Uiso   1.00
H472   H     0.82228   0.13094   0.29462   0.00000  Uiso   1.00
H473   H     0.67773   0.36905   0.70538   0.00000  Uiso   1.00
H474   H     0.63092   0.17771   0.29466   0.00000  Uiso   1.00
H475   H     0.57229   0.11908   0.20534   0.00000  Uiso   1.00
H476   H     0.86909   0.32229   0.70534   0.00000  Uiso   1.00
H477   H     0.67774   0.36907   0.29461   0.00000  Uiso   1.00
H478   H     0.82227   0.13092   0.70537   0.00000  Uiso   1.00
H479   H     0.70100   0.03179   0.09858   0.00000  Uiso   1.00
H480   H     0.79826   0.03241   0.90208   0.00000  Uiso   1.00
H481   H     0.96750   0.20180   0.09793   0.00000  Uiso   1.00
H482   H     0.96831   0.29906   0.90143   0.00000  Uiso   1.00
H483   H     0.79962   0.46892   0.09752   0.00000  Uiso   1.00
H484   H     0.70184   0.46686   0.90118   0.00000  Uiso   1.00
H485   H     0.53324   0.29809   0.09882   0.00000  Uiso   1.00
H486   H     0.92771   0.38091   0.79466   0.00000  Uiso   1.00
H487   H     0.53098   0.20032   0.90248   0.00000  Uiso   1.00
H488   H     0.95104   0.28185   0.59858   0.00000  Uiso   1.00
H489   H     0.54831   0.28234   0.40208   0.00000  Uiso   1.00
H490   H     0.71733   0.45192   0.59793   0.00000  Uiso   1.00
H491   H     0.71851   0.04919   0.40145   0.00000  Uiso   1.00
H492   H     0.54958   0.21885   0.59752   0.00000  Uiso   1.00
H493   H     0.95179   0.21693   0.40119   0.00000  Uiso   1.00
H494   H     0.78342   0.04797   0.59884   0.00000  Uiso   1.00
H495   H     0.78080   0.45020   0.40249   0.00000  Uiso   1.00
H496   H     0.63967   0.03963   0.01284   0.00000  Uiso   1.00
H497   H     0.88093   0.07226   0.20539   0.00000  Uiso   1.00
H498   H     0.65563   0.05330   0.05960   0.00000  Uiso   1.00
H499   H     0.65386   0.00501   0.04614   0.00000  Uiso   1.00
H500   H     0.85883   0.03585   0.99053   0.00000  Uiso   1.00
H501   H     0.84646   0.04649   0.94167   0.00000  Uiso   1.00
H502   H     0.84352   0.49968   0.95974   0.00000  Uiso   1.00
H503   H     0.96392   0.14125   0.00947   0.00000  Uiso   1.00
H504   H     0.95330   0.15364   0.05834   0.00000  Uiso   1.00
H505   H     0.50012   0.15648   0.04027   0.00000  Uiso   1.00
H506   H     0.96064   0.36042   0.98718   0.00000  Uiso   1.00
H507   H     0.94694   0.34451   0.94041   0.00000  Uiso   1.00
H508   H     0.61908   0.42774   0.79463   0.00000  Uiso   1.00
H509   H     0.99523   0.34614   0.95389   0.00000  Uiso   1.00
H510   H     0.76996   0.42285   0.00238   0.00000  Uiso   1.00
H511   H     0.79420   0.41351   0.04765   0.00000  Uiso   1.00
H512   H     0.81777   0.41281   0.00207   0.00000  Uiso   1.00
H513   H     0.64025   0.45857   0.98664   0.00000  Uiso   1.00
H514   H     0.65646   0.44506   0.93993   0.00000  Uiso   1.00
H515   H     0.65423   0.49332   0.95340   0.00000  Uiso   1.00
H516   H     0.54169   0.35966   0.01338   0.00000  Uiso   1.00
H517   H     0.55518   0.34341   0.06007   0.00000  Uiso   1.00
H518   H     0.50692   0.34577   0.04663   0.00000  Uiso   1.00
H519   H     0.92777   0.38098   0.20546   0.00000  Uiso   1.00
H520   H     0.57714   0.22987   0.99756   0.00000  Uiso   1.00
H521   H     0.58640   0.20556   0.95232   0.00000  Uiso   1.00
H522   H     0.58706   0.18204   0.99792   0.00000  Uiso   1.00
H523   H     0.88973   0.28983   0.51286   0.00000  Uiso   1.00
H524   H     0.90574   0.30350   0.55960   0.00000  Uiso   1.00
H525   H     0.90385   0.25520   0.54618   0.00000  Uiso   1.00
H526   H     0.60888   0.28569   0.49053   0.00000  Uiso   1.00
H527   H     0.59653   0.29634   0.44167   0.00000  Uiso   1.00
H528   H     0.59352   0.24953   0.45975   0.00000  Uiso   1.00
H529   H     0.71350   0.39139   0.50948   0.00000  Uiso   1.00
H530   H     0.57223   0.11902   0.79455   0.00000  Uiso   1.00
H531   H     0.70291   0.40383   0.55834   0.00000  Uiso   1.00
H532   H     0.74975   0.40647   0.54029   0.00000  Uiso   1.00
H533   H     0.71119   0.11057   0.48723   0.00000  Uiso   1.00
H534   H     0.69745   0.09479   0.44043   0.00000  Uiso   1.00
H535   H     0.74573   0.09614   0.45397   0.00000  Uiso   1.00
H536   H     0.51985   0.17282   0.50242   0.00000  Uiso   1.00
H537   H     0.54410   0.16345   0.54767   0.00000  Uiso   1.00
H538   H     0.56764   0.16271   0.50207   0.00000  Uiso   1.00
H539   H     0.89019   0.20878   0.48666   0.00000  Uiso   1.00
H540   H     0.90635   0.19525   0.43994   0.00000  Uiso   1.00
H541   H     0.61902   0.07223   0.79454   0.00000  Uiso   1.00
H542   H     0.90423   0.24351   0.45343   0.00000  Uiso   1.00
H543   H     0.79223   0.10950   0.51343   0.00000  Uiso   1.00
H544   H     0.80568   0.09312   0.56009   0.00000  Uiso   1.00
H545   H     0.75741   0.09577   0.54671   0.00000  Uiso   1.00
H546   H     0.82707   0.47956   0.49757   0.00000  Uiso   1.00
H547   H     0.83623   0.45522   0.45232   0.00000  Uiso   1.00
H548   H     0.83680   0.43169   0.49792   0.00000  Uiso   1.00
O549   O     0.75000   0.00000   0.25000   0.00000  Uiso   1.00
O550   O     0.75000   0.46964   0.66317   0.00000  Uiso   1.00
O551   O     0.96964   0.25000   0.33683   0.00000  Uiso   1.00
O552   O     0.53036   0.25000   0.66317   0.00000  Uiso   1.00
O553   O     0.50000   0.21964   0.83683   0.00000  Uiso   1.00
O554   O     0.50000   0.28036   0.16317   0.00000  Uiso   1.00
O555   O     0.78036   0.00000   0.83683   0.00000  Uiso   1.00
O556   O     0.71964  -0.00000   0.16317   0.00000  Uiso   1.00
O557   O     0.50000   0.28036   0.83683   0.00000  Uiso   1.00
O558   O     0.50000   0.21964   0.16317   0.00000  Uiso   1.00
O559   O     0.71964   0.00000   0.83683   0.00000  Uiso   1.00
O560   O     0.75000   0.00000   0.75000   0.00000  Uiso   1.00
O561   O     0.78036  -0.00000   0.16317   0.00000  Uiso   1.00
O562   O     0.70726   0.07307   0.27282   0.00000  Uiso   1.00
O563   O     0.79275   0.42693   0.72718   0.00000  Uiso   1.00
O564   O     0.92693   0.20725   0.27282   0.00000  Uiso   1.00
O565   O     0.57307   0.29274   0.72718   0.00000  Uiso   1.00
O566   O     0.79275   0.42693   0.27282   0.00000  Uiso   1.00
O567   O     0.70726   0.07307   0.72718   0.00000  Uiso   1.00
O568   O     0.57307   0.29274   0.27282   0.00000  Uiso   1.00
O569   O     0.92693   0.20725   0.72718   0.00000  Uiso   1.00
O570   O     0.70726   0.42693   0.72718   0.00000  Uiso   1.00
O571   O     0.50000   0.25000   0.25000   0.00000  Uiso   1.00
O572   O     0.79275   0.07307   0.27282   0.00000  Uiso   1.00
O573   O     0.92693   0.29274   0.72718   0.00000  Uiso   1.00
O574   O     0.57307   0.20725   0.27282   0.00000  Uiso   1.00
O575   O     0.79275   0.07307   0.72718   0.00000  Uiso   1.00
O576   O     0.70726   0.42693   0.27282   0.00000  Uiso   1.00
O577   O     0.57307   0.20725   0.72718   0.00000  Uiso   1.00
O578   O     0.92693   0.29274   0.27282   0.00000  Uiso   1.00
O579   O     0.95726   0.32307   0.77282   0.00000  Uiso   1.00
O580   O     0.54275   0.17693   0.22718   0.00000  Uiso   1.00
O581   O     0.67693   0.45725   0.77282   0.00000  Uiso   1.00
O582   O     0.50000   0.25000   0.75000   0.00000  Uiso   1.00
O583   O     0.82307   0.04275   0.22718   0.00000  Uiso   1.00
O584   O     0.54275   0.17693   0.77282   0.00000  Uiso   1.00
O585   O     0.95726   0.32307   0.22718   0.00000  Uiso   1.00
O586   O     0.82307   0.04275   0.77282   0.00000  Uiso   1.00
O587   O     0.67693   0.45725   0.22718   0.00000  Uiso   1.00
O588   O     0.95726   0.17693   0.22718   0.00000  Uiso   1.00
O589   O     0.54275   0.32307   0.77282   0.00000  Uiso   1.00
O590   O     0.67693   0.04275   0.22718   0.00000  Uiso   1.00
O591   O     0.82307   0.45725   0.77282   0.00000  Uiso   1.00
O592   O     0.54275   0.32307   0.22718   0.00000  Uiso   1.00
O593   O     0.75000   0.46964   0.33683   0.00000  Uiso   1.00
O594   O     0.95726   0.17693   0.77282   0.00000  Uiso   1.00
O595   O     0.82307   0.45725   0.22718   0.00000  Uiso   1.00
O596   O     0.67693   0.04275   0.77282   0.00000  Uiso   1.00
O597   O     0.69509   0.03659   0.02012   0.00000  Uiso   1.00
O598   O     0.80379   0.03657   0.97998   0.00000  Uiso   1.00
O599   O     0.96332   0.19629   0.02002   0.00000  Uiso   1.00
O600   O     0.96353   0.30499   0.97988   0.00000  Uiso   1.00
O601   O     0.80492   0.46393   0.02193   0.00000  Uiso   1.00
O602   O     0.69566   0.46210   0.97955   0.00000  Uiso   1.00
O603   O     0.53802   0.30426   0.02045   0.00000  Uiso   1.00
O604   O     0.75000   0.03036   0.66317   0.00000  Uiso   1.00
O605   O     0.53596   0.19500   0.97807   0.00000  Uiso   1.00
O606   O     0.94515   0.28667   0.52012   0.00000  Uiso   1.00
O607   O     0.55384   0.28649   0.47998   0.00000  Uiso   1.00
O608   O     0.71313   0.44643   0.52003   0.00000  Uiso   1.00
O609   O     0.71377   0.05514   0.47988   0.00000  Uiso   1.00
O610   O     0.55487   0.21385   0.52194   0.00000  Uiso   1.00
O611   O     0.94561   0.21219   0.47956   0.00000  Uiso   1.00
O612   O     0.78825   0.05410   0.52045   0.00000  Uiso   1.00
O613   O     0.78576   0.44486   0.47807   0.00000  Uiso   1.00
O614   O     0.53036   0.25000   0.33683   0.00000  Uiso   1.00
O615   O     0.96964   0.25000   0.66317   0.00000  Uiso   1.00
O616   O     0.75000   0.03036   0.33683   0.00000  Uiso   1.00
Zn617  Zn    0.70660   0.00000   0.21760   0.00000  Uiso   1.00
Zn618  Zn    0.54340   0.25000   0.28240   0.00000  Uiso   1.00
Zn619  Zn    0.75000   0.45660   0.71760   0.00000  Uiso   1.00
Zn620  Zn    0.75000   0.04340   0.28240   0.00000  Uiso   1.00
Zn621  Zn    0.54340   0.25000   0.71760   0.00000  Uiso   1.00
Zn622  Zn    0.95660   0.25000   0.28240   0.00000  Uiso   1.00
Zn623  Zn    0.75000   0.04340   0.71760   0.00000  Uiso   1.00
Zn624  Zn    0.75000   0.45660   0.28240   0.00000  Uiso   1.00
Zn625  Zn    0.79340   0.00000   0.78240   0.00000  Uiso   1.00
Zn626  Zn    0.50000   0.20660   0.21760   0.00000  Uiso   1.00
Zn627  Zn    0.50000   0.29340   0.78240   0.00000  Uiso   1.00
Zn628  Zn    0.79340   0.00000   0.21760   0.00000  Uiso   1.00
Zn629  Zn    0.70660   0.00000   0.78240   0.00000  Uiso   1.00
Zn630  Zn    0.50000   0.29340   0.21760   0.00000  Uiso   1.00
Zn631  Zn    0.50000   0.20660   0.78240   0.00000  Uiso   1.00
Zn632  Zn    0.95660   0.25000   0.71760   0.00000  Uiso   1.00
C633   C     0.22087   0.51718   0.04144   0.00000  Uiso   1.00
C634   C     0.02804   0.76720   0.45871   0.00000  Uiso   1.00
C635   C     0.34814   0.90186   0.75000   0.00000  Uiso   1.00
C636   C     0.40186   0.65185   0.25000   0.00000  Uiso   1.00
C637   C     0.09814   0.84814   0.75001   0.00000  Uiso   1.00
C638   C     0.34814   0.90186   0.25000   0.00000  Uiso   1.00
C639   C     0.15186   0.59814   0.75000   0.00000  Uiso   1.00
C640   C     0.09814   0.65186   0.75000   0.00000  Uiso   1.00
C641   C     0.40186   0.84814   0.25000   0.00000  Uiso   1.00
C642   C     0.15186   0.90185   0.75000   0.00000  Uiso   1.00
C643   C     0.34814   0.59814   0.25001   0.00000  Uiso   1.00
C644   C     0.40186   0.84814   0.75000   0.00000  Uiso   1.00
C645   C     0.23261   0.97209   0.54130   0.00000  Uiso   1.00
C646   C     0.09814   0.65186   0.25000   0.00000  Uiso   1.00
C647   C     0.34815   0.59814   0.75000   0.00000  Uiso   1.00
C648   C     0.15186   0.90186   0.24999   0.00000  Uiso   1.00
C649   C     0.24981   0.99990   0.10243   0.00000  Uiso   1.00
C650   C     0.24995   0.99974   0.89756   0.00000  Uiso   1.00
C651   C     0.00026   0.75005   0.10244   0.00000  Uiso   1.00
C652   C     0.00010   0.75019   0.89757   0.00000  Uiso   1.00
C653   C     0.49981   0.74990   0.60244   0.00000  Uiso   1.00
C654   C     0.49995   0.74974   0.39756   0.00000  Uiso   1.00
C655   C     0.25027   0.50005   0.60245   0.00000  Uiso   1.00
C656   C     0.23301   0.52924   0.45857   0.00000  Uiso   1.00
C657   C     0.25011   0.50019   0.39757   0.00000  Uiso   1.00
C658   C     0.15975   0.53320   0.03591   0.00000  Uiso   1.00
C659   C     0.33947   0.52902   0.96690   0.00000  Uiso   1.00
C660   C     0.47079   0.66059   0.03311   0.00000  Uiso   1.00
C661   C     0.46702   0.84033   0.96411   0.00000  Uiso   1.00
C662   C     0.29591   0.92673   0.01863   0.00000  Uiso   1.00
C663   C     0.16034   0.96518   0.96365   0.00000  Uiso   1.00
C664   C     0.03504   0.83959   0.03637   0.00000  Uiso   1.00
C665   C     0.07319   0.70392   0.98134   0.00000  Uiso   1.00
C666   C     0.40980   0.78338   0.53592   0.00000  Uiso   1.00
C667   C     0.02713   0.73133   0.54165   0.00000  Uiso   1.00
C668   C     0.08951   0.77889   0.46690   0.00000  Uiso   1.00
C669   C     0.22043   0.91070   0.53312   0.00000  Uiso   1.00
C670   C     0.21747   0.59047   0.46415   0.00000  Uiso   1.00
C671   C     0.04581   0.67666   0.51865   0.00000  Uiso   1.00
C672   C     0.41028   0.71535   0.46366   0.00000  Uiso   1.00
C673   C     0.28549   0.58944   0.53641   0.00000  Uiso   1.00
C674   C     0.32302   0.95363   0.48134   0.00000  Uiso   1.00
C675   C     0.47131   0.73179   0.45835   0.00000  Uiso   1.00
C676   C     0.26844   0.52856   0.54166   0.00000  Uiso   1.00
C677   C     0.26849   0.97274   0.45836   0.00000  Uiso   1.00
C678   C     0.22161   0.51727   0.08229   0.00000  Uiso   1.00
C679   C     0.27761   0.51757   0.91797   0.00000  Uiso   1.00
C680   C     0.48238   0.72242   0.08204   0.00000  Uiso   1.00
C681   C     0.27801   0.51724   0.95870   0.00000  Uiso   1.00
C682   C     0.48279   0.77843   0.91771   0.00000  Uiso   1.00
C683   C     0.27772   0.98241   0.08208   0.00000  Uiso   1.00
C684   C     0.22219   0.98165   0.91755   0.00000  Uiso   1.00
C685   C     0.01841   0.77777   0.08245   0.00000  Uiso   1.00
C686   C     0.01754   0.72225   0.91792   0.00000  Uiso   1.00
C687   C     0.47163   0.76732   0.58230   0.00000  Uiso   1.00
C688   C     0.02764   0.76753   0.41797   0.00000  Uiso   1.00
C689   C     0.23229   0.97249   0.58204   0.00000  Uiso   1.00
C690   C     0.23290   0.52849   0.41772   0.00000  Uiso   1.00
C691   C     0.02769   0.73237   0.58209   0.00000  Uiso   1.00
C692   C     0.48271   0.72202   0.04130   0.00000  Uiso   1.00
C693   C     0.47217   0.73170   0.41756   0.00000  Uiso   1.00
C694   C     0.26852   0.52770   0.58246   0.00000  Uiso   1.00
C695   C     0.26744   0.97218   0.41792   0.00000  Uiso   1.00
C696   C     0.24929   0.99959   0.02131   0.00000  Uiso   1.00
C697   C     0.24951   0.99960   0.97862   0.00000  Uiso   1.00
C698   C     0.00040   0.75049   0.02138   0.00000  Uiso   1.00
C699   C     0.00042   0.75071   0.97869   0.00000  Uiso   1.00
C700   C     0.49929   0.74960   0.52132   0.00000  Uiso   1.00
C701   C     0.49951   0.74961   0.47862   0.00000  Uiso   1.00
C702   C     0.25042   0.50049   0.52139   0.00000  Uiso   1.00
C703   C     0.48288   0.77917   0.95856   0.00000  Uiso   1.00
C704   C     0.25043   0.50071   0.47870   0.00000  Uiso   1.00
C705   C     0.24997   0.50002   0.35520   0.00000  Uiso   1.00
C706   C     0.25003   0.50000   0.64481   0.00000  Uiso   1.00
C707   C     0.00000   0.74997   0.35519   0.00000  Uiso   1.00
C708   C     0.49998   0.75003   0.64481   0.00000  Uiso   1.00
C709   C     0.49997   0.75002   0.85520   0.00000  Uiso   1.00
C710   C     0.00003   0.75000   0.14481   0.00000  Uiso   1.00
C711   C     0.25000   0.99997   0.85519   0.00000  Uiso   1.00
C712   C     0.24998   0.50003   0.14481   0.00000  Uiso   1.00
C713   C     0.17992   0.57008   0.25000   0.00000  Uiso   1.00
C714   C     0.27716   0.98136   0.04165   0.00000  Uiso   1.00
C715   C     0.32008   0.92992   0.75000   0.00000  Uiso   1.00
C716   C     0.42992   0.67992   0.25000   0.00000  Uiso   1.00
C717   C     0.07008   0.82008   0.75000   0.00000  Uiso   1.00
C718   C     0.32008   0.92992   0.25000   0.00000  Uiso   1.00
C719   C     0.17992   0.57008   0.75000   0.00000  Uiso   1.00
C720   C     0.07008   0.82008   0.25000   0.00000  Uiso   1.00
C721   C     0.42992   0.67992   0.75000   0.00000  Uiso   1.00
C722   C     0.17992   0.92992   0.75000   0.00000  Uiso   1.00
C723   C     0.32008   0.57008   0.25000   0.00000  Uiso   1.00
C724   C     0.42992   0.82008   0.75000   0.00000  Uiso   1.00
C725   C     0.22134   0.98174   0.95835   0.00000  Uiso   1.00
C726   C     0.07008   0.67992   0.25000   0.00000  Uiso   1.00
C727   C     0.32008   0.57008   0.75000   0.00000  Uiso   1.00
C728   C     0.17992   0.92992   0.25000   0.00000  Uiso   1.00
C729   C     0.07008   0.67992   0.75000   0.00000  Uiso   1.00
C730   C     0.42992   0.82008   0.25000   0.00000  Uiso   1.00
C731   C     0.12189   0.90481   0.22496   0.00000  Uiso   1.00
C732   C     0.37811   0.59518   0.77503   0.00000  Uiso   1.00
C733   C     0.09519   0.62191   0.22494   0.00000  Uiso   1.00
C734   C     0.40481   0.87809   0.77506   0.00000  Uiso   1.00
C735   C     0.37810   0.59517   0.22497   0.00000  Uiso   1.00
C736   C     0.01832   0.77863   0.04166   0.00000  Uiso   1.00
C737   C     0.12191   0.90482   0.77504   0.00000  Uiso   1.00
C738   C     0.40484   0.87813   0.22501   0.00000  Uiso   1.00
C739   C     0.09516   0.62187   0.77500   0.00000  Uiso   1.00
C740   C     0.12187   0.59516   0.77499   0.00000  Uiso   1.00
C741   C     0.37813   0.90484   0.22500   0.00000  Uiso   1.00
C742   C     0.09519   0.87811   0.77504   0.00000  Uiso   1.00
C743   C     0.40482   0.62189   0.22497   0.00000  Uiso   1.00
C744   C     0.37809   0.90481   0.77506   0.00000  Uiso   1.00
C745   C     0.12191   0.59519   0.22494   0.00000  Uiso   1.00
C746   C     0.40483   0.62190   0.77503   0.00000  Uiso   1.00
C747   C     0.01859   0.72281   0.95835   0.00000  Uiso   1.00
C748   C     0.09518   0.87809   0.22496   0.00000  Uiso   1.00
C749   C     0.37189   0.65481   0.72496   0.00000  Uiso   1.00
C750   C     0.12811   0.84518   0.27503   0.00000  Uiso   1.00
C751   C     0.34519   0.87191   0.72494   0.00000  Uiso   1.00
C752   C     0.15481   0.62809   0.27506   0.00000  Uiso   1.00
C753   C     0.12810   0.84517   0.72497   0.00000  Uiso   1.00
C754   C     0.37191   0.65482   0.27504   0.00000  Uiso   1.00
C755   C     0.15484   0.62813   0.72501   0.00000  Uiso   1.00
C756   C     0.34516   0.87187   0.27499   0.00000  Uiso   1.00
C757   C     0.37187   0.84516   0.27499   0.00000  Uiso   1.00
C758   C     0.47089   0.76723   0.54145   0.00000  Uiso   1.00
C759   C     0.12813   0.65484   0.72501   0.00000  Uiso   1.00
C760   C     0.34519   0.62811   0.27504   0.00000  Uiso   1.00
C761   C     0.15482   0.87189   0.72497   0.00000  Uiso   1.00
C762   C     0.12809   0.65481   0.27506   0.00000  Uiso   1.00
C763   C     0.37191   0.84519   0.72494   0.00000  Uiso   1.00
C764   C     0.15483   0.87190   0.27503   0.00000  Uiso   1.00
C765   C     0.34518   0.62809   0.72496   0.00000  Uiso   1.00
C766   C     0.09815   0.84814   0.25000   0.00000  Uiso   1.00
C767   C     0.40186   0.65186   0.74999   0.00000  Uiso   1.00
C768   C     0.15186   0.59814   0.25000   0.00000  Uiso   1.00
H769   H     0.11906   0.92772   0.20537   0.00000  Uiso   1.00
H770   H     0.38098   0.92777   0.20545   0.00000  Uiso   1.00
H771   H     0.07228   0.88094   0.79462   0.00000  Uiso   1.00
H772   H     0.42773   0.61905   0.20538   0.00000  Uiso   1.00
H773   H     0.38092   0.92771   0.79466   0.00000  Uiso   1.00
H774   H     0.11909   0.57229   0.20534   0.00000  Uiso   1.00
H775   H     0.42774   0.61907   0.79461   0.00000  Uiso   1.00
H776   H     0.07227   0.88092   0.20537   0.00000  Uiso   1.00
H777   H     0.36906   0.67772   0.70537   0.00000  Uiso   1.00
H778   H     0.13095   0.82227   0.29462   0.00000  Uiso   1.00
H779   H     0.32229   0.86908   0.70534   0.00000  Uiso   1.00
H780   H     0.38094   0.57228   0.79462   0.00000  Uiso   1.00
H781   H     0.17771   0.63091   0.29466   0.00000  Uiso   1.00
H782   H     0.13093   0.82226   0.70539   0.00000  Uiso   1.00
H783   H     0.36908   0.67774   0.29463   0.00000  Uiso   1.00
H784   H     0.17777   0.63098   0.70546   0.00000  Uiso   1.00
H785   H     0.32223   0.86902   0.29455   0.00000  Uiso   1.00
H786   H     0.36902   0.82223   0.29454   0.00000  Uiso   1.00
H787   H     0.13098   0.67777   0.70545   0.00000  Uiso   1.00
H788   H     0.32228   0.63094   0.29462   0.00000  Uiso   1.00
H789   H     0.17773   0.86905   0.70538   0.00000  Uiso   1.00
H790   H     0.13092   0.67771   0.29466   0.00000  Uiso   1.00
H791   H     0.07229   0.61908   0.20534   0.00000  Uiso   1.00
H792   H     0.36909   0.82229   0.70534   0.00000  Uiso   1.00
H793   H     0.17774   0.86907   0.29461   0.00000  Uiso   1.00
H794   H     0.32227   0.63092   0.70537   0.00000  Uiso   1.00
H795   H     0.20100   0.53179   0.09858   0.00000  Uiso   1.00
H796   H     0.29826   0.53241   0.90208   0.00000  Uiso   1.00
H797   H     0.46750   0.70180   0.09793   0.00000  Uiso   1.00
H798   H     0.46831   0.79906   0.90143   0.00000  Uiso   1.00
H799   H     0.29962   0.96892   0.09752   0.00000  Uiso   1.00
H800   H     0.20184   0.96686   0.90118   0.00000  Uiso   1.00
H801   H     0.03324   0.79809   0.09882   0.00000  Uiso   1.00
H802   H     0.42771   0.88091   0.79466   0.00000  Uiso   1.00
H803   H     0.03098   0.70032   0.90248   0.00000  Uiso   1.00
H804   H     0.45104   0.78185   0.59858   0.00000  Uiso   1.00
H805   H     0.04831   0.78234   0.40208   0.00000  Uiso   1.00
H806   H     0.21733   0.95192   0.59793   0.00000  Uiso   1.00
H807   H     0.21851   0.54919   0.40145   0.00000  Uiso   1.00
H808   H     0.04958   0.71885   0.59752   0.00000  Uiso   1.00
H809   H     0.45179   0.71693   0.40119   0.00000  Uiso   1.00
H810   H     0.28342   0.54797   0.59884   0.00000  Uiso   1.00
H811   H     0.28080   0.95020   0.40249   0.00000  Uiso   1.00
H812   H     0.13967   0.53963   0.01284   0.00000  Uiso   1.00
H813   H     0.38093   0.57226   0.20539   0.00000  Uiso   1.00
H814   H     0.15563   0.55330   0.05960   0.00000  Uiso   1.00
H815   H     0.15386   0.50501   0.04614   0.00000  Uiso   1.00
H816   H     0.35883   0.53585   0.99053   0.00000  Uiso   1.00
H817   H     0.34646   0.54649   0.94167   0.00000  Uiso   1.00
H818   H     0.34352   0.99968   0.95974   0.00000  Uiso   1.00
H819   H     0.46392   0.64125   0.00947   0.00000  Uiso   1.00
H820   H     0.45330   0.65364   0.05834   0.00000  Uiso   1.00
H821   H     0.00012   0.65648   0.04027   0.00000  Uiso   1.00
H822   H     0.46064   0.86042   0.98718   0.00000  Uiso   1.00
H823   H     0.44694   0.84451   0.94041   0.00000  Uiso   1.00
H824   H     0.11908   0.92774   0.79463   0.00000  Uiso   1.00
H825   H     0.49523   0.84614   0.95389   0.00000  Uiso   1.00
H826   H     0.26996   0.92285   0.00238   0.00000  Uiso   1.00
H827   H     0.29420   0.91351   0.04765   0.00000  Uiso   1.00
H828   H     0.31777   0.91281   0.00207   0.00000  Uiso   1.00
H829   H     0.14025   0.95857   0.98664   0.00000  Uiso   1.00
H830   H     0.15646   0.94506   0.93993   0.00000  Uiso   1.00
H831   H     0.15423   0.99332   0.95340   0.00000  Uiso   1.00
H832   H     0.04169   0.85966   0.01338   0.00000  Uiso   1.00
H833   H     0.05518   0.84341   0.06007   0.00000  Uiso   1.00
H834   H     0.00692   0.84577   0.04663   0.00000  Uiso   1.00
H835   H     0.42777   0.88098   0.20546   0.00000  Uiso   1.00
H836   H     0.07714   0.72987   0.99756   0.00000  Uiso   1.00
H837   H     0.08640   0.70556   0.95232   0.00000  Uiso   1.00
H838   H     0.08706   0.68204   0.99792   0.00000  Uiso   1.00
H839   H     0.38973   0.78983   0.51286   0.00000  Uiso   1.00
H840   H     0.40574   0.80350   0.55960   0.00000  Uiso   1.00
H841   H     0.40385   0.75520   0.54618   0.00000  Uiso   1.00
H842   H     0.10888   0.78569   0.49053   0.00000  Uiso   1.00
H843   H     0.09653   0.79634   0.44167   0.00000  Uiso   1.00
H844   H     0.09352   0.74953   0.45975   0.00000  Uiso   1.00
H845   H     0.21350   0.89139   0.50948   0.00000  Uiso   1.00
H846   H     0.07223   0.61902   0.79455   0.00000  Uiso   1.00
H847   H     0.20291   0.90383   0.55834   0.00000  Uiso   1.00
H848   H     0.24975   0.90647   0.54029   0.00000  Uiso   1.00
H849   H     0.21119   0.61057   0.48723   0.00000  Uiso   1.00
H850   H     0.19745   0.59479   0.44043   0.00000  Uiso   1.00
H851   H     0.24573   0.59614   0.45397   0.00000  Uiso   1.00
H852   H     0.01985   0.67282   0.50242   0.00000  Uiso   1.00
H853   H     0.04410   0.66345   0.54767   0.00000  Uiso   1.00
H854   H     0.06764   0.66271   0.50207   0.00000  Uiso   1.00
H855   H     0.39019   0.70878   0.48666   0.00000  Uiso   1.00
H856   H     0.40635   0.69525   0.43994   0.00000  Uiso   1.00
H857   H     0.11902   0.57223   0.79454   0.00000  Uiso   1.00
H858   H     0.40423   0.74351   0.45343   0.00000  Uiso   1.00
H859   H     0.29223   0.60950   0.51343   0.00000  Uiso   1.00
H860   H     0.30568   0.59312   0.56009   0.00000  Uiso   1.00
H861   H     0.25741   0.59577   0.54671   0.00000  Uiso   1.00
H862   H     0.32707   0.97956   0.49757   0.00000  Uiso   1.00
H863   H     0.33623   0.95522   0.45232   0.00000  Uiso   1.00
H864   H     0.33680   0.93169   0.49792   0.00000  Uiso   1.00
O865   O     0.25000   0.50000   0.25000   0.00000  Uiso   1.00
O866   O     0.25000   0.96964   0.66317   0.00000  Uiso   1.00
O867   O     0.46964   0.75000   0.33683   0.00000  Uiso   1.00
O868   O     0.03036   0.75000   0.66317   0.00000  Uiso   1.00
O869   O     0.00000   0.71964   0.83683   0.00000  Uiso   1.00
O870   O     0.00000   0.78036   0.16317   0.00000  Uiso   1.00
O871   O     0.28036   0.50000   0.83683   0.00000  Uiso   1.00
O872   O     0.21964   0.50000   0.16317   0.00000  Uiso   1.00
O873   O     0.00000   0.78036   0.83683   0.00000  Uiso   1.00
O874   O     0.00000   0.71964   0.16317   0.00000  Uiso   1.00
O875   O     0.21964   0.50000   0.83683   0.00000  Uiso   1.00
O876   O     0.25000   0.50000   0.75000   0.00000  Uiso   1.00
O877   O     0.28036   0.50000   0.16317   0.00000  Uiso   1.00
O878   O     0.20726   0.57307   0.27282   0.00000  Uiso   1.00
O879   O     0.29275   0.92693   0.72718   0.00000  Uiso   1.00
O880   O     0.42693   0.70725   0.27282   0.00000  Uiso   1.00
O881   O     0.07307   0.79274   0.72718   0.00000  Uiso   1.00
O882   O     0.29275   0.92693   0.27282   0.00000  Uiso   1.00
O883   O     0.20726   0.57307   0.72718   0.00000  Uiso   1.00
O884   O     0.07307   0.79274   0.27282   0.00000  Uiso   1.00
O885   O     0.42693   0.70725   0.72718   0.00000  Uiso   1.00
O886   O     0.20726   0.92693   0.72718   0.00000  Uiso   1.00
O887   O     0.00000   0.75000   0.25000   0.00000  Uiso   1.00
O888   O     0.29275   0.57307   0.27282   0.00000  Uiso   1.00
O889   O     0.42693   0.79274   0.72718   0.00000  Uiso   1.00
O890   O     0.07307   0.70725   0.27282   0.00000  Uiso   1.00
O891   O     0.29275   0.57307   0.72718   0.00000  Uiso   1.00
O892   O     0.20726   0.92693   0.27282   0.00000  Uiso   1.00
O893   O     0.07307   0.70725   0.72718   0.00000  Uiso   1.00
O894   O     0.42693   0.79274   0.27282   0.00000  Uiso   1.00
O895   O     0.45726   0.82307   0.77282   0.00000  Uiso   1.00
O896   O     0.04275   0.67693   0.22718   0.00000  Uiso   1.00
O897   O     0.17693   0.95725   0.77282   0.00000  Uiso   1.00
O898   O     0.00000   0.75000   0.75000   0.00000  Uiso   1.00
O899   O     0.32307   0.54275   0.22718   0.00000  Uiso   1.00
O900   O     0.04275   0.67693   0.77282   0.00000  Uiso   1.00
O901   O     0.45726   0.82307   0.22718   0.00000  Uiso   1.00
O902   O     0.32307   0.54275   0.77282   0.00000  Uiso   1.00
O903   O     0.17693   0.95725   0.22718   0.00000  Uiso   1.00
O904   O     0.45726   0.67693   0.22718   0.00000  Uiso   1.00
O905   O     0.04275   0.82307   0.77282   0.00000  Uiso   1.00
O906   O     0.17693   0.54275   0.22718   0.00000  Uiso   1.00
O907   O     0.32307   0.95725   0.77282   0.00000  Uiso   1.00
O908   O     0.04275   0.82307   0.22718   0.00000  Uiso   1.00
O909   O     0.25000   0.96964   0.33683   0.00000  Uiso   1.00
O910   O     0.45726   0.67693   0.77282   0.00000  Uiso   1.00
O911   O     0.32307   0.95725   0.22718   0.00000  Uiso   1.00
O912   O     0.17693   0.54275   0.77282   0.00000  Uiso   1.00
O913   O     0.19509   0.53659   0.02012   0.00000  Uiso   1.00
O914   O     0.30379   0.53657   0.97998   0.00000  Uiso   1.00
O915   O     0.46332   0.69629   0.02002   0.00000  Uiso   1.00
O916   O     0.46353   0.80499   0.97988   0.00000  Uiso   1.00
O917   O     0.30492   0.96393   0.02193   0.00000  Uiso   1.00
O918   O     0.19566   0.96210   0.97955   0.00000  Uiso   1.00
O919   O     0.03802   0.80426   0.02045   0.00000  Uiso   1.00
O920   O     0.25000   0.53036   0.66317   0.00000  Uiso   1.00
O921   O     0.03596   0.69500   0.97807   0.00000  Uiso   1.00
O922   O     0.44515   0.78667   0.52012   0.00000  Uiso   1.00
O923   O     0.05384   0.78649   0.47998   0.00000  Uiso   1.00
O924   O     0.21313   0.94643   0.52003   0.00000  Uiso   1.00
O925   O     0.21377   0.55514   0.47988   0.00000  Uiso   1.00
O926   O     0.05487   0.71385   0.52194   0.00000  Uiso   1.00
O927   O     0.44561   0.71219   0.47956   0.00000  Uiso   1.00
O928   O     0.28825   0.55410   0.52045   0.00000  Uiso   1.00
O929   O     0.28576   0.94486   0.47807   0.00000  Uiso   1.00
O930   O     0.03036   0.75000   0.33683   0.00000  Uiso   1.00
O931   O     0.46964   0.75000   0.66317   0.00000  Uiso   1.00
O932   O     0.25000   0.53036   0.33683   0.00000  Uiso   1.00
Zn933  Zn    0.20660   0.50000   0.21760   0.00000  Uiso   1.00
Zn934  Zn    0.04340   0.75000   0.28240   0.00000  Uiso   1.00
Zn935  Zn    0.25000   0.95660   0.71760   0.00000  Uiso   1.00
Zn936  Zn    0.25000   0.54340   0.28240   0.00000  Uiso   1.00
Zn937  Zn    0.04340   0.75000   0.71760   0.00000  Uiso   1.00
Zn938  Zn    0.45660   0.75000   0.28240   0.00000  Uiso   1.00
Zn939  Zn    0.25000   0.54340   0.71760   0.00000  Uiso   1.00
Zn940  Zn    0.25000   0.95660   0.28240   0.00000  Uiso   1.00
Zn941  Zn    0.29340   0.50000   0.78240   0.00000  Uiso   1.00
Zn942  Zn    0.00000   0.70660   0.21760   0.00000  Uiso   1.00
Zn943  Zn    0.00000   0.79340   0.78240   0.00000  Uiso   1.00
Zn944  Zn    0.29340   0.50000   0.21760   0.00000  Uiso   1.00
Zn945  Zn    0.20660   0.50000   0.78240   0.00000  Uiso   1.00
Zn946  Zn    0.00000   0.79340   0.21760   0.00000  Uiso   1.00
Zn947  Zn    0.00000   0.70660   0.78240   0.00000  Uiso   1.00
Zn948  Zn    0.45660   0.75000   0.71760   0.00000  Uiso   1.00
C949   C     0.72087   0.51718   0.04144   0.00000  Uiso   1.00
C950   C     0.52804   0.76720   0.45871   0.00000  Uiso   1.00
C951   C     0.84814   0.90186   0.75000   0.00000  Uiso   1.00
C952   C     0.90186   0.65185   0.25000   0.00000  Uiso   1.00
C953   C     0.59814   0.84814   0.75001   0.00000  Uiso   1.00
C954   C     0.84814   0.90186   0.25000   0.00000  Uiso   1.00
C955   C     0.65186   0.59814   0.75000   0.00000  Uiso   1.00
C956   C     0.59814   0.65186   0.75000   0.00000  Uiso   1.00
C957   C     0.90186   0.84814   0.25000   0.00000  Uiso   1.00
C958   C     0.65186   0.90185   0.75000   0.00000  Uiso   1.00
C959   C     0.84814   0.59814   0.25001   0.00000  Uiso   1.00
C960   C     0.90186   0.84814   0.75000   0.00000  Uiso   1.00
C961   C     0.73261   0.97209   0.54130   0.00000  Uiso   1.00
C962   C     0.59814   0.65186   0.25000   0.00000  Uiso   1.00
C963   C     0.84815   0.59814   0.75000   0.00000  Uiso   1.00
C964   C     0.65186   0.90186   0.24999   0.00000  Uiso   1.00
C965   C     0.74981   0.99990   0.10243   0.00000  Uiso   1.00
C966   C     0.74995   0.99974   0.89756   0.00000  Uiso   1.00
C967   C     0.50026   0.75005   0.10244   0.00000  Uiso   1.00
C968   C     0.50010   0.75019   0.89757   0.00000  Uiso   1.00
C969   C     0.99981   0.74990   0.60244   0.00000  Uiso   1.00
C970   C     0.99995   0.74974   0.39756   0.00000  Uiso   1.00
C971   C     0.75027   0.50005   0.60245   0.00000  Uiso   1.00
C972   C     0.73301   0.52924   0.45857   0.00000  Uiso   1.00
C973   C     0.75011   0.50019   0.39757   0.00000  Uiso   1.00
C974   C     0.65975   0.53320   0.03591   0.00000  Uiso   1.00
C975   C     0.83947   0.52902   0.96690   0.00000  Uiso   1.00
C976   C     0.97079   0.66059   0.03311   0.00000  Uiso   1.00
C977   C     0.96702   0.84033   0.96411   0.00000  Uiso   1.00
C978   C     0.79591   0.92673   0.01863   0.00000  Uiso   1.00
C979   C     0.66034   0.96518   0.96365   0.00000  Uiso   1.00
C980   C     0.53504   0.83959   0.03637   0.00000  Uiso   1.00
C981   C     0.57319   0.70392   0.98134   0.00000  Uiso   1.00
C982   C     0.90980   0.78338   0.53592   0.00000  Uiso   1.00
C983   C     0.52713   0.73133   0.54165   0.00000  Uiso   1.00
C984   C     0.58951   0.77889   0.46690   0.00000  Uiso   1.00
C985   C     0.72043   0.91070   0.53312   0.00000  Uiso   1.00
C986   C     0.71747   0.59047   0.46415   0.00000  Uiso   1.00
C987   C     0.54581   0.67666   0.51865   0.00000  Uiso   1.00
C988   C     0.91028   0.71535   0.46366   0.00000  Uiso   1.00
C989   C     0.78549   0.58944   0.53641   0.00000  Uiso   1.00
C990   C     0.82302   0.95363   0.48134   0.00000  Uiso   1.00
C991   C     0.97131   0.73179   0.45835   0.00000  Uiso   1.00
C992   C     0.76844   0.52856   0.54166   0.00000  Uiso   1.00
C993   C     0.76849   0.97274   0.45836   0.00000  Uiso   1.00
C994   C     0.72161   0.51727   0.08229   0.00000  Uiso   1.00
C995   C     0.77761   0.51757   0.91797   0.00000  Uiso   1.00
C996   C     0.98238   0.72242   0.08204   0.00000  Uiso   1.00
C997   C     0.77801   0.51724   0.95870   0.00000  Uiso   1.00
C998   C     0.98279   0.77843   0.91771   0.00000  Uiso   1.00
C999   C     0.77772   0.98241   0.08208   0.00000  Uiso   1.00
C1000  C     0.72219   0.98165   0.91755   0.00000  Uiso   1.00
C1001  C     0.51841   0.77777   0.08245   0.00000  Uiso   1.00
C1002  C     0.51754   0.72225   0.91792   0.00000  Uiso   1.00
C1003  C     0.97163   0.76732   0.58230   0.00000  Uiso   1.00
C1004  C     0.52764   0.76753   0.41797   0.00000  Uiso   1.00
C1005  C     0.73229   0.97249   0.58204   0.00000  Uiso   1.00
C1006  C     0.73290   0.52849   0.41772   0.00000  Uiso   1.00
C1007  C     0.52769   0.73237   0.58209   0.00000  Uiso   1.00
C1008  C     0.98271   0.72202   0.04130   0.00000  Uiso   1.00
C1009  C     0.97217   0.73170   0.41756   0.00000  Uiso   1.00
C1010  C     0.76852   0.52770   0.58246   0.00000  Uiso   1.00
C1011  C     0.76744   0.97218   0.41792   0.00000  Uiso   1.00
C1012  C     0.74929   0.99959   0.02131   0.00000  Uiso   1.00
C1013  C     0.74951   0.99960   0.97862   0.00000  Uiso   1.00
C1014  C     0.50040   0.75049   0.02138   0.00000  Uiso   1.00
C1015  C     0.50042   0.75071   0.97869   0.00000  Uiso   1.00
C1016  C     0.99929   0.74960   0.52132   0.00000  Uiso   1.00
C1017  C     0.99951   0.74961   0.47862   0.00000  Uiso   1.00
C1018  C     0.75042   0.50049   0.52139   0.00000  Uiso   1.00
C1019  C     0.98288   0.77917   0.95856   0.00000  Uiso   1.00
C1020  C     0.75043   0.50071   0.47870   0.00000  Uiso   1.00
C1021  C     0.74997   0.50002   0.35520   0.00000  Uiso   1.00
C1022  C     0.75003   0.50000   0.64481   0.00000  Uiso   1.00
C1023  C     0.50000   0.74997   0.35519   0.00000  Uiso   1.00
C1024  C     0.99998   0.75003   0.64481   0.00000  Uiso   1.00
C1025  C     0.99997   0.75002   0.85520   0.00000  Uiso   1.00
C1026  C     0.50003   0.75000   0.14481   0.00000  Uiso   1.00
C1027  C     0.75000   0.99997   0.85519   0.00000  Uiso   1.00
C1028  C     0.74998   0.50003   0.14481   0.00000  Uiso   1.00
C1029  C     0.67992   0.57008   0.25000   0.00000  Uiso   1.00
C1030  C     0.77716   0.98136   0.04165   0.00000  Uiso   1.00
C1031  C     0.82008   0.92992   0.75000   0.00000  Uiso   1.00
C1032  C     0.92992   0.67992   0.25000   0.00000  Uiso   1.00
C1033  C     0.57008   0.82008   0.75000   0.00000  Uiso   1.00
C1034  C     0.82008   0.92992   0.25000   0.00000  Uiso   1.00
C1035  C     0.67992   0.57008   0.75000   0.00000  Uiso   1.00
C1036  C     0.57008   0.82008   0.25000   0.00000  Uiso   1.00
C1037  C     0.92992   0.67992   0.75000   0.00000  Uiso   1.00
C1038  C     0.67992   0.92992   0.75000   0.00000  Uiso   1.00
C1039  C     0.82008   0.57008   0.25000   0.00000  Uiso   1.00
C1040  C     0.92992   0.82008   0.75000   0.00000  Uiso   1.00
C1041  C     0.72134   0.98174   0.95835   0.00000  Uiso   1.00
C1042  C     0.57008   0.67992   0.25000   0.00000  Uiso   1.00
C1043  C     0.82008   0.57008   0.75000   0.00000  Uiso   1.00
C1044  C     0.67992   0.92992   0.25000   0.00000  Uiso   1.00
C1045  C     0.57008   0.67992   0.75000   0.00000  Uiso   1.00
C1046  C     0.92992   0.82008   0.25000   0.00000  Uiso   1.00
C1047  C     0.62189   0.90481   0.22496   0.00000  Uiso   1.00
C1048  C     0.87811   0.59518   0.77503   0.00000  Uiso   1.00
C1049  C     0.59519   0.62191   0.22494   0.00000  Uiso   1.00
C1050  C     0.90481   0.87809   0.77506   0.00000  Uiso   1.00
C1051  C     0.87810   0.59517   0.22497   0.00000  Uiso   1.00
C1052  C     0.51832   0.77863   0.04166   0.00000  Uiso   1.00
C1053  C     0.62191   0.90482   0.77504   0.00000  Uiso   1.00
C1054  C     0.90484   0.87813   0.22501   0.00000  Uiso   1.00
C1055  C     0.59516   0.62187   0.77500   0.00000  Uiso   1.00
C1056  C     0.62187   0.59516   0.77499   0.00000  Uiso   1.00
C1057  C     0.87813   0.90484   0.22500   0.00000  Uiso   1.00
C1058  C     0.59519   0.87811   0.77504   0.00000  Uiso   1.00
C1059  C     0.90482   0.62189   0.22497   0.00000  Uiso   1.00
C1060  C     0.87809   0.90481   0.77506   0.00000  Uiso   1.00
C1061  C     0.62191   0.59519   0.22494   0.00000  Uiso   1.00
C1062  C     0.90483   0.62190   0.77503   0.00000  Uiso   1.00
C1063  C     0.51859   0.72281   0.95835   0.00000  Uiso   1.00
C1064  C     0.59518   0.87809   0.22496   0.00000  Uiso   1.00
C1065  C     0.87189   0.65481   0.72496   0.00000  Uiso   1.00
C1066  C     0.62811   0.84518   0.27503   0.00000  Uiso   1.00
C1067  C     0.84519   0.87191   0.72494   0.00000  Uiso   1.00
C1068  C     0.65481   0.62809   0.27506   0.00000  Uiso   1.00
C1069  C     0.62810   0.84517   0.72497   0.00000  Uiso   1.00
C1070  C     0.87191   0.65482   0.27504   0.00000  Uiso   1.00
C1071  C     0.65484   0.62813   0.72501   0.00000  Uiso   1.00
C1072  C     0.84516   0.87187   0.27499   0.00000  Uiso   1.00
C1073  C     0.87187   0.84516   0.27499   0.00000  Uiso   1.00
C1074  C     0.97089   0.76723   0.54145   0.00000  Uiso   1.00
C1075  C     0.62813   0.65484   0.72501   0.00000  Uiso   1.00
C1076  C     0.84519   0.62811   0.27504   0.00000  Uiso   1.00
C1077  C     0.65482   0.87189   0.72497   0.00000  Uiso   1.00
C1078  C     0.62809   0.65481   0.27506   0.00000  Uiso   1.00
C1079  C     0.87191   0.84519   0.72494   0.00000  Uiso   1.00
C1080  C     0.65483   0.87190   0.27503   0.00000  Uiso   1.00
C1081  C     0.84518   0.62809   0.72496   0.00000  Uiso   1.00
C1082  C     0.59815   0.84814   0.25000   0.00000  Uiso   1.00
C1083  C     0.90186   0.65186   0.74999   0.00000  Uiso   1.00
C1084  C     0.65186   0.59814   0.25000   0.00000  Uiso   1.00
H1085  H     0.61906   0.92772   0.20537   0.00000  Uiso   1.00
H1086  H     0.88098   0.92777   0.20545   0.00000  Uiso   1.00
H1087  H     0.57228   0.88094   0.79462   0.00000  Uiso   1.00
H1088  H     0.92773   0.61905   0.20538   0.00000  Uiso   1.00
H1089  H     0.88092   0.92771   0.79466   0.00000  Uiso   1.00
H1090  H     0.61909   0.57229   0.20534   0.00000  Uiso   1.00
H1091  H     0.92774   0.61907   0.79461   0.00000  Uiso   1.00
H1092  H     0.57227   0.88092   0.20537   0.00000  Uiso   1.00
H1093  H     0.86906   0.67772   0.70537   0.00000  Uiso   1.00
H1094  H     0.63095   0.82227   0.29462   0.00000  Uiso   1.00
H1095  H     0.82229   0.86908   0.70534   0.00000  Uiso   1.00
H1096  H     0.88094   0.57228   0.79462   0.00000  Uiso   1.00
H1097  H     0.67771   0.63091   0.29466   0.00000  Uiso   1.00
H1098  H     0.63093   0.82226   0.70539   0.00000  Uiso   1.00
H1099  H     0.86908   0.67774   0.29463   0.00000  Uiso   1.00
H1100  H     0.67777   0.63098   0.70546   0.00000  Uiso   1.00
H1101  H     0.82223   0.86902   0.29455   0.00000  Uiso   1.00
H1102  H     0.86902   0.82223   0.29454   0.00000  Uiso   1.00
H1103  H     0.63098   0.67777   0.70545   0.00000  Uiso   1.00
H1104  H     0.82228   0.63094   0.29462   0.00000  Uiso   1.00
H1105  H     0.67773   0.86905   0.70538   0.00000  Uiso   1.00
H1106  H     0.63092   0.67771   0.29466   0.00000  Uiso   1.00
H1107  H     0.57229   0.61908   0.20534   0.00000  Uiso   1.00
H1108  H     0.86909   0.82229   0.70534   0.00000  Uiso   1.00
H1109  H     0.67774   0.86907   0.29461   0.00000  Uiso   1.00
H1110  H     0.82227   0.63092   0.70537   0.00000  Uiso   1.00
H1111  H     0.70100   0.53179   0.09858   0.00000  Uiso   1.00
H1112  H     0.79826   0.53241   0.90208   0.00000  Uiso   1.00
H1113  H     0.96750   0.70180   0.09793   0.00000  Uiso   1.00
H1114  H     0.96831   0.79906   0.90143   0.00000  Uiso   1.00
H1115  H     0.79962   0.96892   0.09752   0.00000  Uiso   1.00
H1116  H     0.70184   0.96686   0.90118   0.00000  Uiso   1.00
H1117  H     0.53324   0.79809   0.09882   0.00000  Uiso   1.00
H1118  H     0.92771   0.88091   0.79466   0.00000  Uiso   1.00
H1119  H     0.53098   0.70032   0.90248   0.00000  Uiso   1.00
H1120  H     0.95104   0.78185   0.59858   0.00000  Uiso   1.00
H1121  H     0.54831   0.78234   0.40208   0.00000  Uiso   1.00
H1122  H     0.71733   0.95192   0.59793   0.00000  Uiso   1.00
H1123  H     0.71851   0.54919   0.40145   0.00000  Uiso   1.00
H1124  H     0.54958   0.71885   0.59752   0.00000  Uiso   1.00
H1125  H     0.95179   0.71693   0.40119   0.00000  Uiso   1.00
H1126  H     0.78342   0.54797   0.59884   0.00000  Uiso   1.00
H1127  H     0.78080   0.95020   0.40249   0.00000  Uiso   1.00
H1128  H     0.63967   0.53963   0.01284   0.00000  Uiso   1.00
H1129  H     0.88093   0.57226   0.20539   0.00000  Uiso   1.00
H1130  H     0.65563   0.55330   0.05960   0.00000  Uiso   1.00
H1131  H     0.65386   0.50501   0.04614   0.00000  Uiso   1.00
H1132  H     0.85883   0.53585   0.99053   0.00000  Uiso   1.00
H1133  H     0.84646   0.54649   0.94167   0.00000  Uiso   1.00
H1134  H     0.84352   0.99968   0.95974   0.00000  Uiso   1.00
H1135  H     0.96392   0.64125   0.00947   0.00000  Uiso   1.00
H1136  H     0.95330   0.65364   0.05834   0.00000  Uiso   1.00
H1137  H     0.50012   0.65648   0.04027   0.00000  Uiso   1.00
H1138  H     0.96064   0.86042   0.98718   0.00000  Uiso   1.00
H1139  H     0.94694   0.84451   0.94041   0.00000  Uiso   1.00
H1140  H     0.61908   0.92774   0.79463   0.00000  Uiso   1.00
H1141  H     0.99523   0.84614   0.95389   0.00000  Uiso   1.00
H1142  H     0.76996   0.92285   0.00238   0.00000  Uiso   1.00
H1143  H     0.79420   0.91351   0.04765   0.00000  Uiso   1.00
H1144  H     0.81777   0.91281   0.00207   0.00000  Uiso   1.00
H1145  H     0.64025   0.95857   0.98664   0.00000  Uiso   1.00
H1146  H     0.65646   0.94506   0.93993   0.00000  Uiso   1.00
H1147  H     0.65423   0.99332   0.95340   0.00000  Uiso   1.00
H1148  H     0.54169   0.85966   0.01338   0.00000  Uiso   1.00
H1149  H     0.55518   0.84341   0.06007   0.00000  Uiso   1.00
H1150  H     0.50692   0.84577   0.04663   0.00000  Uiso   1.00
H1151  H     0.92777   0.88098   0.20546   0.00000  Uiso   1.00
H1152  H     0.57714   0.72987   0.99756   0.00000  Uiso   1.00
H1153  H     0.58640   0.70556   0.95232   0.00000  Uiso   1.00
H1154  H     0.58706   0.68204   0.99792   0.00000  Uiso   1.00
H1155  H     0.88973   0.78983   0.51286   0.00000  Uiso   1.00
H1156  H     0.90574   0.80350   0.55960   0.00000  Uiso   1.00
H1157  H     0.90385   0.75520   0.54618   0.00000  Uiso   1.00
H1158  H     0.60888   0.78569   0.49053   0.00000  Uiso   1.00
H1159  H     0.59653   0.79634   0.44167   0.00000  Uiso   1.00
H1160  H     0.59352   0.74953   0.45975   0.00000  Uiso   1.00
H1161  H     0.71350   0.89139   0.50948   0.00000  Uiso   1.00
H1162  H     0.57223   0.61902   0.79455   0.00000  Uiso   1.00
H1163  H     0.70291   0.90383   0.55834   0.00000  Uiso   1.00
H1164  H     0.74975   0.90647   0.54029   0.00000  Uiso   1.00
H1165  H     0.71119   0.61057   0.48723   0.00000  Uiso   1.00
H1166  H     0.69745   0.59479   0.44043   0.00000  Uiso   1.00
H1167  H     0.74573   0.59614   0.45397   0.00000  Uiso   1.00
H1168  H     0.51985   0.67282   0.50242   0.00000  Uiso   1.00
H1169  H     0.54410   0.66345   0.54767   0.00000  Uiso   1.00
H1170  H     0.56764   0.66271   0.50207   0.00000  Uiso   1.00
H1171  H     0.89019   0.70878   0.48666   0.00000  Uiso   1.00
H1172  H     0.90635   0.69525   0.43994   0.00000  Uiso   1.00
H1173  H     0.61902   0.57223   0.79454   0.00000  Uiso   1.00
H1174  H     0.90423   0.74351   0.45343   0.00000  Uiso   1.00
H1175  H     0.79223   0.60950   0.51343   0.00000  Uiso   1.00
H1176  H     0.80568   0.59312   0.56009   0.00000  Uiso   1.00
H1177  H     0.75741   0.59577   0.54671   0.00000  Uiso   1.00
H1178  H     0.82707   0.97956   0.49757   0.00000  Uiso   1.00
H1179  H     0.83623   0.95522   0.45232   0.00000  Uiso   1.00
H1180  H     0.83680   0.93169   0.49792   0.00000  Uiso   1.00
O1181  O     0.75000   0.50000   0.25000   0.00000  Uiso   1.00
O1182  O     0.75000   0.96964   0.66317   0.00000  Uiso   1.00
O1183  O     0.96964   0.75000   0.33683   0.00000  Uiso   1.00
O1184  O     0.53036   0.75000   0.66317   0.00000  Uiso   1.00
O1185  O     0.50000   0.71964   0.83683   0.00000  Uiso   1.00
O1186  O     0.50000   0.78036   0.16317   0.00000  Uiso   1.00
O1187  O     0.78036   0.50000   0.83683   0.00000  Uiso   1.00
O1188  O     0.71964   0.50000   0.16317   0.00000  Uiso   1.00
O1189  O     0.50000   0.78036   0.83683   0.00000  Uiso   1.00
O1190  O     0.50000   0.71964   0.16317   0.00000  Uiso   1.00
O1191  O     0.71964   0.50000   0.83683   0.00000  Uiso   1.00
O1192  O     0.75000   0.50000   0.75000   0.00000  Uiso   1.00
O1193  O     0.78036   0.50000   0.16317   0.00000  Uiso   1.00
O1194  O     0.70726   0.57307   0.27282   0.00000  Uiso   1.00
O1195  O     0.79275   0.92693   0.72718   0.00000  Uiso   1.00
O1196  O     0.92693   0.70725   0.27282   0.00000  Uiso   1.00
O1197  O     0.57307   0.79274   0.72718   0.00000  Uiso   1.00
O1198  O     0.79275   0.92693   0.27282   0.00000  Uiso   1.00
O1199  O     0.70726   0.57307   0.72718   0.00000  Uiso   1.00
O1200  O     0.57307   0.79274   0.27282   0.00000  Uiso   1.00
O1201  O     0.92693   0.70725   0.72718   0.00000  Uiso   1.00
O1202  O     0.70726   0.92693   0.72718   0.00000  Uiso   1.00
O1203  O     0.50000   0.75000   0.25000   0.00000  Uiso   1.00
O1204  O     0.79275   0.57307   0.27282   0.00000  Uiso   1.00
O1205  O     0.92693   0.79274   0.72718   0.00000  Uiso   1.00
O1206  O     0.57307   0.70725   0.27282   0.00000  Uiso   1.00
O1207  O     0.79275   0.57307   0.72718   0.00000  Uiso   1.00
O1208  O     0.70726   0.92693   0.27282   0.00000  Uiso   1.00
O1209  O     0.57307   0.70725   0.72718   0.00000  Uiso   1.00
O1210  O     0.92693   0.79274   0.27282   0.00000  Uiso   1.00
O1211  O     0.95726   0.82307   0.77282   0.00000  Uiso   1.00
O1212  O     0.54275   0.67693   0.22718   0.00000  Uiso   1.00
O1213  O     0.67693   0.95725   0.77282   0.00000  Uiso   1.00
O1214  O     0.50000   0.75000   0.75000   0.00000  Uiso   1.00
O1215  O     0.82307   0.54275   0.22718   0.00000  Uiso   1.00
O1216  O     0.54275   0.67693   0.77282   0.00000  Uiso   1.00
O1217  O     0.95726   0.82307   0.22718   0.00000  Uiso   1.00
O1218  O     0.82307   0.54275   0.77282   0.00000  Uiso   1.00
O1219  O     0.67693   0.95725   0.22718   0.00000  Uiso   1.00
O1220  O     0.95726   0.67693   0.22718   0.00000  Uiso   1.00
O1221  O     0.54275   0.82307   0.77282   0.00000  Uiso   1.00
O1222  O     0.67693   0.54275   0.22718   0.00000  Uiso   1.00
O1223  O     0.82307   0.95725   0.77282   0.00000  Uiso   1.00
O1224  O     0.54275   0.82307   0.22718   0.00000  Uiso   1.00
O1225  O     0.75000   0.96964   0.33683   0.00000  Uiso   1.00
O1226  O     0.95726   0.67693   0.77282   0.00000  Uiso   1.00
O1227  O     0.82307   0.95725   0.22718   0.00000  Uiso   1.00
O1228  O     0.67693   0.54275   0.77282   0.00000  Uiso   1.00
O1229  O     0.69509   0.53659   0.02012   0.00000  Uiso   1.00
O1230  O     0.80379   0.53657   0.97998   0.00000  Uiso   1.00
O1231  O     0.96332   0.69629   0.02002   0.00000  Uiso   1.00
O1232  O     0.96353   0.80499   0.97988   0.00000  Uiso   1.00
O1233  O     0.80492   0.96393   0.02193   0.00000  Uiso   1.00
O1234  O     0.69566   0.96210   0.97955   0.00000  Uiso   1.00
O1235  O     0.53802   0.80426   0.02045   0.00000  Uiso   1.00
O1236  O     0.75000   0.53036   0.66317   0.00000  Uiso   1.00
O1237  O     0.53596   0.69500   0.97807   0.00000  Uiso   1.00
O1238  O     0.94515   0.78667   0.52012   0.00000  Uiso   1.00
O1239  O     0.55384   0.78649   0.47998   0.00000  Uiso   1.00
O1240  O     0.71313   0.94643   0.52003   0.00000  Uiso   1.00
O1241  O     0.71377   0.55514   0.47988   0.00000  Uiso   1.00
O1242  O     0.55487   0.71385   0.52194   0.00000  Uiso   1.00
O1243  O     0.94561   0.71219   0.47956   0.00000  Uiso   1.00
O1244  O     0.78825   0.55410   0.52045   0.00000  Uiso   1.00
O1245  O     0.78576   0.94486   0.47807   0.00000  Uiso   1.00
O1246  O     0.53036   0.75000   0.33683   0.00000  Uiso   1.00
O1247  O     0.96964   0.75000   0.66317   0.00000  Uiso   1.00
O1248  O     0.75000   0.53036   0.33683   0.00000  Uiso   1.00
Zn1249 Zn    0.70660   0.50000   0.21760   0.00000  Uiso   1.00
Zn1250 Zn    0.54340   0.75000   0.28240   0.00000  Uiso   1.00
Zn1251 Zn    0.75000   0.95660   0.71760   0.00000  Uiso   1.00
Zn1252 Zn    0.75000   0.54340   0.28240   0.00000  Uiso   1.00
Zn1253 Zn    0.54340   0.75000   0.71760   0.00000  Uiso   1.00
Zn1254 Zn    0.95660   0.75000   0.28240   0.00000  Uiso   1.00
Zn1255 Zn    0.75000   0.54340   0.71760   0.00000  Uiso   1.00
Zn1256 Zn    0.75000   0.95660   0.28240   0.00000  Uiso   1.00
Zn1257 Zn    0.79340   0.50000   0.78240   0.00000  Uiso   1.00
Zn1258 Zn    0.50000   0.70660   0.21760   0.00000  Uiso   1.00
Zn1259 Zn    0.50000   0.79340   0.78240   0.00000  Uiso   1.00
Zn1260 Zn    0.79340   0.50000   0.21760   0.00000  Uiso   1.00
Zn1261 Zn    0.70660   0.50000   0.78240   0.00000  Uiso   1.00
Zn1262 Zn    0.50000   0.79340   0.21760   0.00000  Uiso   1.00
Zn1263 Zn    0.50000   0.70660   0.78240   0.00000  Uiso   1.00
Zn1264 Zn    0.95660   0.75000   0.71760   0.00000  Uiso   1.00
loop_
_geom_bond_atom_site_label_1
_geom_bond_atom_site_label_2
_geom_bond_distance
_geom_bond_site_symmetry_2
_ccdc_geom_bond_type
C1     C46     1.408   .     A
C1     O281    1.393   .     S
C1     C696    1.409   1_545 S
C2     C56     1.404   .     A
C2     O291    1.391   .     S
C2     C385    1.409   1_455 S
C3     C112    1.402   .     A
C3     C83     1.456   .     S
C3     C119    1.402   .     A
C4     C84     1.456   .     S
C4     C122    1.402   .     A
C4     C111    1.402   .     A
C5     C110    1.402   .     A
C5     C85     1.456   .     S
C5     C121    1.402   .     A
C6     C109    1.402   .     A
C6     C86     1.456   .     S
C6     C124    1.402   .     A
C7     C123    1.402   .     A
C7     C87     1.456   .     S
C7     C108    1.402   .     A
C8     C127    1.402   .     A
C8     C107    1.402   .     A
C8     C97     1.456   .     S
C9     C98     1.456   .     S
C9     C125    1.402   .     A
C9     C106    1.402   .     A
C10    C129    1.402   .     A
C10    C90     1.456   .     S
C10    C105    1.402   .     A
C11    C91     1.456   .     S
C11    C128    1.402   .     A
C11    C103    1.402   .     A
C12    C92     1.456   .     S
C12    C131    1.402   .     A
C12    C102    1.402   .     A
C13    C57     1.404   .     A
C13    O292    1.391   .     S
C13    C702    1.409   .     S
C14    C130    1.402   .     A
C14    C94     1.456   .     S
C14    C101    1.402   .     A
C15    C100    1.402   .     A
C15    C95     1.456   .     S
C15    C133    1.402   .     A
C16    C96     1.456   .     S
C16    C132    1.402   .     A
C16    C99     1.402   .     A
C17    C51     1.397   .     A
C17    C678    1.400   .     S
C17    C712    1.460   .     S
C18    C79     1.460   .     S
C18    C52     1.398   .     A
C18    C679    1.397   .     S
C19    C78     1.460   .     S
C19    C53     1.398   .     A
C19    C364    1.397   1_455 S
C20    C54     1.397   .     A
C20    C366    1.400   1_455 S
C20    C393    1.460   1_455 S
C21    C76     1.460   .     S
C21    C55     1.400   .     A
C21    C375    1.397   .     S
C22    C61     1.398   .     A
C22    C372    1.397   .     S
C22    C391    1.460   .     S
C23    C62     1.398   .     A
C23    C689    1.397   1_545 S
C23    C74     1.460   .     S
C24    C72     1.409   .     A
C24    C58     1.408   .     A
C24    O293    1.393   .     S
C25    C73     1.460   .     S
C25    C58     1.400   .     A
C25    C695    1.397   1_545 S
C26    O281    1.412   .     S
C26    H182    1.110   .     S
C26    H183    1.114   .     S
C26    H180    1.109   .     S
C27    H185    1.110   .     S
C27    O282    1.412   .     S
C27    H184    1.109   .     S
C27    H818    1.115   1_545 S
C28    H187    1.109   .     S
C28    H188    1.110   .     S
C28    O283    1.412   .     S
C28    H505    1.115   .     S
C29    H193    1.114   .     S
C29    H191    1.110   .     S
C29    O284    1.412   .     S
C29    H190    1.109   .     S
C30    H195    1.113   .     S
C30    O285    1.409   .     S
C30    H196    1.109   .     S
C30    H194    1.114   .     S
C31    O286    1.412   .     S
C31    H198    1.110   .     S
C31    H199    1.114   .     S
C31    H197    1.109   .     S
C32    O287    1.412   .     S
C32    H201    1.110   .     S
C32    H202    1.114   .     S
C32    H200    1.109   .     S
C33    H205    1.113   .     S
C33    O289    1.409   .     S
C33    H204    1.114   .     S
C33    H206    1.109   .     S
C34    H207    1.109   .     S
C34    H208    1.110   .     S
C34    H209    1.114   .     S
C34    O290    1.412   .     S
C35    C59     1.394   .     A
C35    O294    1.382   .     S
C35    C384    1.409   1_455 S
C36    H212    1.115   .     S
C36    O291    1.412   .     S
C36    H211    1.110   .     S
C36    H210    1.109   .     S
C37    O292    1.412   .     S
C37    H216    1.115   .     S
C37    H213    1.109   .     S
C37    H215    1.110   .     S
C38    H218    1.110   .     S
C38    O293    1.412   .     S
C38    H219    1.114   .     S
C38    H217    1.109   .     S
C39    O294    1.409   .     S
C39    H222    1.109   .     S
C39    H221    1.113   .     S
C39    H220    1.114   .     S
C40    H226    1.114   .     S
C40    H223    1.109   .     S
C40    H224    1.110   .     S
C40    O295    1.412   .     S
C41    H228    1.110   .     S
C41    H227    1.109   .     S
C41    H229    1.114   .     S
C41    O296    1.412   .     S
C42    H231    1.113   .     S
C42    O297    1.409   .     S
C42    H232    1.109   .     S
C42    H230    1.114   .     S
C43    O295    1.394   .     S
C43    C61     1.406   .     A
C43    C69     1.409   .     A
C44    C70     1.409   .     A
C44    O296    1.394   .     S
C44    C62     1.406   .     A
C45    O297    1.382   .     S
C45    C63     1.394   .     A
C45    C704    1.409   .     S
C46    H163    1.082   .     S
C46    C649    1.400   1_545 S
C47    H164    1.082   .     S
C47    C49     1.404   .     A
C47    C650    1.397   1_545 S
C48    H165    1.082   .     S
C48    C60     1.404   .     A
C48    C335    1.397   .     S
C49    O282    1.391   .     S
C49    C697    1.409   1_545 S
C50    H166    1.082   .     S
C50    C71     1.408   .     A
C50    C336    1.400   .     S
C51    H167    1.084   .     S
C51    C82     1.394   .     A
C52    C93     1.406   .     A
C52    H168    1.082   .     S
C53    C104    1.406   .     A
C53    H169    1.082   .     S
C54    C115    1.394   .     A
C54    H171    1.084   .     S
C55    C126    1.408   .     A
C55    H172    1.082   .     S
C56    H173    1.082   .     S
C56    C338    1.397   1_455 S
C57    H174    1.082   .     S
C57    C655    1.397   .     S
C58    H175    1.082   .     S
C59    H176    1.084   .     S
C59    C337    1.397   1_455 S
C60    O283    1.391   .     S
C60    C382    1.409   .     S
C61    H177    1.082   .     S
C62    H178    1.082   .     S
C63    H179    1.084   .     S
C63    C657    1.397   .     S
C64    C82     1.409   .     A
C64    C633    1.409   .     S
C64    C65     1.471   1_554 S
C65    C93     1.409   .     A
C65    C64     1.471   1_556 S
C65    C681    1.409   .     S
C66    C104    1.409   .     A
C66    C376    1.409   1_455 S
C66    C67     1.471   1_554 S
C67    C115    1.409   .     A
C67    C66     1.471   1_556 S
C67    C387    1.409   1_455 S
C68    C69     1.471   .     S
C68    C126    1.409   .     A
C68    C351    1.409   .     S
C69    C318    1.409   .     S
C70    C72     1.471   .     S
C70    C645    1.409   1_545 S
C71    O284    1.393   .     S
C71    C383    1.409   .     S
C72    C677    1.409   1_545 S
C73    O300    1.281   .     A
C73    O909    1.282   1_545 S
C74    O866    1.281   1_545 A
C74    O288    1.281   .     S
C75    O298    1.281   .     A
C75    C338    1.460   1_455 S
C75    O551    1.281   1_455 S
C76    O299    1.281   .     A
C76    O552    1.282   .     S
C77    C336    1.460   .     S
C77    O553    1.282   .     S
C77    O557    1.281   .     S
C78    O238    1.281   .     A
C78    O242    1.281   .     A
C79    O871    1.281   .     S
C79    O875    1.281   .     S
C80    C649    1.460   1_545 S
C80    O240    1.281   .     S
C80    O245    1.282   .     S
C81    C136    1.456   .     S
C81    O274    1.279   .     A
C81    O246    1.279   .     A
C82    O285    1.382   .     S
C83    O247    1.279   .     A
C83    O275    1.279   .     A
C84    O248    1.279   .     A
C84    O272    1.279   .     A
C85    O249    1.279   .     A
C85    O273    1.279   .     A
C86    O250    1.280   .     A
C86    O279    1.280   .     A
C87    O280    1.280   .     A
C87    O251    1.280   .     A
C88    O252    1.279   .     A
C88    C134    1.456   .     S
C88    O276    1.279   .     A
C89    C135    1.456   .     S
C89    O253    1.279   .     A
C89    O278    1.279   .     A
C90    O254    1.279   .     A
C90    O265    1.279   .     A
C91    O267    1.279   .     A
C91    O256    1.279   .     A
C92    O257    1.279   .     A
C92    O263    1.279   .     A
C93    O286    1.394   .     S
C94    O264    1.279   .     A
C94    O258    1.279   .     A
C95    O270    1.279   .     A
C95    O259    1.279   .     A
C96    O271    1.279   .     A
C96    O260    1.279   .     A
C97    O261    1.280   .     A
C97    O268    1.280   .     A
C98    O269    1.280   .     A
C98    O262    1.280   .     A
C99    C116    1.387   .     A
C99    H137    1.083   .     S
C100   C114    1.387   .     A
C100   H148    1.083   .     S
C101   C113    1.387   .     A
C101   H159    1.083   .     S
C102   H170    1.083   .     S
C102   C112    1.387   .     A
C103   H181    1.083   .     S
C103   C111    1.387   .     A
C104   O287    1.394   .     S
C105   C110    1.387   .     A
C105   H192    1.083   .     S
C106   H203    1.083   .     S
C106   C109    1.387   .     A
C107   C108    1.387   .     A
C107   H214    1.083   .     S
C108   H225    1.083   .     S
C109   H138    1.083   .     S
C110   H139    1.083   .     S
C111   H140    1.083   .     S
C112   H141    1.083   .     S
C113   H142    1.083   .     S
C113   C136    1.402   .     A
C114   H143    1.083   .     S
C114   C135    1.402   .     A
C115   O289    1.382   .     S
C116   H144    1.083   .     S
C116   C134    1.402   .     A
C117   C133    1.387   .     A
C117   C135    1.402   .     A
C117   H145    1.083   .     S
C118   C134    1.402   .     A
C118   C132    1.387   .     A
C118   H146    1.083   .     S
C119   C131    1.387   .     A
C119   H147    1.083   .     S
C120   H149    1.083   .     S
C120   C136    1.402   .     A
C120   C130    1.387   .     A
C121   C129    1.387   .     A
C121   H150    1.083   .     S
C122   C128    1.387   .     A
C122   H151    1.083   .     S
C123   H152    1.083   .     S
C123   C127    1.387   .     A
C124   H153    1.083   .     S
C124   C125    1.387   .     A
C125   H154    1.083   .     S
C126   O290    1.393   .     S
C127   H155    1.083   .     S
C128   H156    1.083   .     S
C129   H157    1.083   .     S
C130   H158    1.083   .     S
C131   H160    1.083   .     S
C132   H161    1.083   .     S
C133   H162    1.083   .     S
H186   C659    1.115   .     S
H189   C344    1.115   1_455 S
O233   Zn304   1.945   .     S
O233   Zn312   1.945   .     S
O233   Zn301   1.945   .     S
O233   Zn940   1.945   1_545 S
O234   Zn303   1.936   .     S
O234   C706    1.281   .     A
O235   Zn306   1.936   .     S
O235   C391    1.281   .     S
O236   Zn305   1.936   .     S
O236   C392    1.282   1_455 S
O237   Zn315   1.936   .     S
O237   C393    1.282   1_455 S
O238   Zn314   1.936   .     S
O239   Zn309   1.936   .     S
O239   C711    1.281   1_545 S
O240   Zn301   1.936   .     S
O241   Zn311   1.936   .     S
O241   C393    1.281   1_455 S
O242   Zn310   1.936   .     S
O243   Zn313   1.936   .     S
O243   C711    1.281   1_545 S
O244   Zn313   1.945   .     S
O244   Zn307   1.945   .     S
O244   Zn309   1.945   .     S
O244   Zn935   1.945   1_545 S
O245   Zn312   1.936   .     S
O246   Zn304   1.938   .     S
O247   Zn303   1.938   .     S
O248   Zn306   1.938   .     S
O249   Zn305   1.938   .     S
O250   Zn308   1.938   .     S
O251   Zn307   1.938   .     S
O252   Zn302   1.938   .     S
O253   Zn316   1.938   .     S
O254   Zn303   1.938   .     S
O255   Zn310   1.945   .     S
O255   Zn314   1.945   .     S
O255   Zn302   1.945   .     S
O255   Zn622   1.945   1_455 S
O256   Zn304   1.938   .     S
O257   Zn316   1.938   .     S
O258   Zn302   1.938   .     S
O259   Zn307   1.938   .     S
O260   Zn308   1.938   .     S
O261   Zn305   1.938   .     S
O262   Zn306   1.938   .     S
O263   Zn627   1.938   .     S
O264   Zn310   1.938   .     S
O265   Zn945   1.938   .     S
O266   Zn315   1.945   .     S
O266   Zn305   1.945   .     S
O266   Zn311   1.945   .     S
O266   Zn632   1.945   1_455 S
O267   Zn312   1.938   .     S
O268   Zn315   1.938   .     S
O269   Zn630   1.938   .     S
O270   Zn309   1.938   .     S
O271   Zn933   1.938   .     S
O272   Zn626   1.938   .     S
O273   Zn311   1.938   .     S
O274   Zn301   1.938   .     S
O275   Zn941   1.938   .     S
O276   Zn314   1.938   .     S
O277   Zn308   1.936   .     S
O277   C705    1.282   .     S
O278   Zn631   1.938   .     S
O279   Zn944   1.938   .     S
O280   Zn313   1.938   .     S
O288   Zn307   1.936   .     S
O298   Zn302   1.936   .     S
O299   Zn316   1.936   .     S
O300   Zn304   1.936   .     S
Zn301  O903    1.938   1_545 S
Zn303  O876    1.945   .     S
Zn306  O571    1.945   .     S
Zn308  O865    1.945   .     S
Zn309  O907    1.938   1_545 S
Zn310  O588    1.938   1_455 S
Zn311  O579    1.938   1_455 S
Zn312  O911    1.938   1_545 S
Zn313  O897    1.938   1_545 S
Zn314  O585    1.938   1_455 S
Zn315  O594    1.938   1_455 S
Zn316  O582    1.945   .     S
C317   C362    1.408   .     A
C317   O597    1.393   .     S
C317   C1012   1.409   1_545 S
C318   C372    1.404   .     A
C318   O607    1.391   .     S
C319   C428    1.402   .     A
C319   C399    1.456   .     S
C319   C435    1.402   .     A
C320   C400    1.456   .     S
C320   C438    1.402   .     A
C320   C427    1.402   .     A
C321   C426    1.402   .     A
C321   C401    1.456   .     S
C321   C437    1.402   .     A
C322   C425    1.402   .     A
C322   C402    1.456   .     S
C322   C440    1.402   .     A
C323   C439    1.402   .     A
C323   C403    1.456   .     S
C323   C424    1.402   .     A
C324   C443    1.402   .     A
C324   C423    1.402   .     A
C324   C413    1.456   .     S
C325   C414    1.456   .     S
C325   C441    1.402   .     A
C325   C422    1.402   .     A
C326   C445    1.402   .     A
C326   C406    1.456   .     S
C326   C421    1.402   .     A
C327   C407    1.456   .     S
C327   C444    1.402   .     A
C327   C419    1.402   .     A
C328   C408    1.456   .     S
C328   C447    1.402   .     A
C328   C418    1.402   .     A
C329   C373    1.404   .     A
C329   O608    1.391   .     S
C329   C1018   1.409   .     S
C330   C446    1.402   .     A
C330   C410    1.456   .     S
C330   C417    1.402   .     A
C331   C416    1.402   .     A
C331   C411    1.456   .     S
C331   C449    1.402   .     A
C332   C412    1.456   .     S
C332   C448    1.402   .     A
C332   C415    1.402   .     A
C333   C367    1.397   .     A
C333   C994    1.400   .     S
C333   C1028   1.460   .     S
C334   C395    1.460   .     S
C334   C368    1.398   .     A
C334   C995    1.397   .     S
C335   C394    1.460   .     S
C335   C369    1.398   .     A
C336   C370    1.397   .     A
C337   C392    1.460   .     S
C337   C371    1.400   .     A
C337   C59     1.397   1_655 S
C338   C377    1.398   .     A
C338   C56     1.397   1_655 S
C338   C75     1.460   1_655 S
C339   C378    1.398   .     A
C339   C1005   1.397   1_545 S
C339   C390    1.460   .     S
C340   C388    1.409   .     A
C340   C374    1.408   .     A
C340   O609    1.393   .     S
C341   C389    1.460   .     S
C341   C374    1.400   .     A
C341   C1011   1.397   1_545 S
C342   O597    1.412   .     S
C342   H498    1.110   .     S
C342   H499    1.114   .     S
C342   H496    1.109   .     S
C343   H501    1.110   .     S
C343   O598    1.412   .     S
C343   H500    1.109   .     S
C343   H1134   1.115   1_545 S
C344   H503    1.109   .     S
C344   H504    1.110   .     S
C344   O599    1.412   .     S
C344   H189    1.115   1_655 S
C345   H509    1.114   .     S
C345   H507    1.110   .     S
C345   O600    1.412   .     S
C345   H506    1.109   .     S
C346   H511    1.113   .     S
C346   O601    1.409   .     S
C346   H512    1.109   .     S
C346   H510    1.114   .     S
C347   O602    1.412   .     S
C347   H514    1.110   .     S
C347   H515    1.114   .     S
C347   H513    1.109   .     S
C348   O603    1.412   .     S
C348   H517    1.110   .     S
C348   H518    1.114   .     S
C348   H516    1.109   .     S
C349   H521    1.113   .     S
C349   O605    1.409   .     S
C349   H520    1.114   .     S
C349   H522    1.109   .     S
C350   H523    1.109   .     S
C350   H524    1.110   .     S
C350   H525    1.114   .     S
C350   O606    1.412   .     S
C351   C375    1.394   .     A
C351   O610    1.382   .     S
C352   H528    1.115   .     S
C352   O607    1.412   .     S
C352   H527    1.110   .     S
C352   H526    1.109   .     S
C353   O608    1.412   .     S
C353   H532    1.115   .     S
C353   H529    1.109   .     S
C353   H531    1.110   .     S
C354   H534    1.110   .     S
C354   O609    1.412   .     S
C354   H535    1.114   .     S
C354   H533    1.109   .     S
C355   O610    1.409   .     S
C355   H538    1.109   .     S
C355   H537    1.113   .     S
C355   H536    1.114   .     S
C356   H542    1.114   .     S
C356   H539    1.109   .     S
C356   H540    1.110   .     S
C356   O611    1.412   .     S
C357   H544    1.110   .     S
C357   H543    1.109   .     S
C357   H545    1.114   .     S
C357   O612    1.412   .     S
C358   H547    1.113   .     S
C358   O613    1.409   .     S
C358   H548    1.109   .     S
C358   H546    1.114   .     S
C359   O611    1.394   .     S
C359   C377    1.406   .     A
C359   C385    1.409   .     A
C360   C386    1.409   .     A
C360   O612    1.394   .     S
C360   C378    1.406   .     A
C361   O613    1.382   .     S
C361   C379    1.394   .     A
C361   C1020   1.409   .     S
C362   H479    1.082   .     S
C362   C965    1.400   1_545 S
C363   H480    1.082   .     S
C363   C365    1.404   .     A
C363   C966    1.397   1_545 S
C364   H481    1.082   .     S
C364   C376    1.404   .     A
C364   C19     1.397   1_655 S
C365   O598    1.391   .     S
C365   C1013   1.409   1_545 S
C366   H482    1.082   .     S
C366   C387    1.408   .     A
C366   C20     1.400   1_655 S
C367   H483    1.084   .     S
C367   C398    1.394   .     A
C368   C409    1.406   .     A
C368   H484    1.082   .     S
C369   C420    1.406   .     A
C369   H485    1.082   .     S
C370   C431    1.394   .     A
C370   H487    1.084   .     S
C371   C442    1.408   .     A
C371   H488    1.082   .     S
C372   H489    1.082   .     S
C373   H490    1.082   .     S
C373   C971    1.397   .     S
C374   H491    1.082   .     S
C375   H492    1.084   .     S
C376   O599    1.391   .     S
C376   C66     1.409   1_655 S
C377   H493    1.082   .     S
C378   H494    1.082   .     S
C379   H495    1.084   .     S
C379   C973    1.397   .     S
C380   C398    1.409   .     A
C380   C949    1.409   .     S
C380   C381    1.471   1_554 S
C381   C409    1.409   .     A
C381   C380    1.471   1_556 S
C381   C997    1.409   .     S
C382   C420    1.409   .     A
C382   C383    1.471   1_554 S
C383   C431    1.409   .     A
C383   C382    1.471   1_556 S
C384   C385    1.471   .     S
C384   C442    1.409   .     A
C384   C35     1.409   1_655 S
C385   C2      1.409   1_655 S
C386   C388    1.471   .     S
C386   C961    1.409   1_545 S
C387   O600    1.393   .     S
C387   C67     1.409   1_655 S
C388   C993    1.409   1_545 S
C389   O616    1.281   .     A
C389   O1225   1.282   1_545 S
C390   O1182   1.281   1_545 A
C390   O604    1.281   .     S
C391   O614    1.281   .     A
C392   O615    1.281   .     A
C392   O236    1.282   1_655 S
C393   C20     1.460   1_655 S
C393   O237    1.282   1_655 S
C393   O241    1.281   1_655 S
C394   O554    1.281   .     A
C394   O558    1.281   .     A
C395   O1187   1.281   .     S
C395   O1191   1.281   .     S
C396   C965    1.460   1_545 S
C396   O556    1.281   .     S
C396   O561    1.282   .     S
C397   C452    1.456   .     S
C397   O590    1.279   .     A
C397   O562    1.279   .     A
C398   O601    1.382   .     S
C399   O563    1.279   .     A
C399   O591    1.279   .     A
C400   O564    1.279   .     A
C400   O588    1.279   .     A
C401   O565    1.279   .     A
C401   O589    1.279   .     A
C402   O566    1.280   .     A
C402   O595    1.280   .     A
C403   O596    1.280   .     A
C403   O567    1.280   .     A
C404   O568    1.279   .     A
C404   C450    1.456   .     S
C404   O592    1.279   .     A
C405   C451    1.456   .     S
C405   O569    1.279   .     A
C405   O594    1.279   .     A
C406   O570    1.279   .     A
C406   O581    1.279   .     A
C407   O583    1.279   .     A
C407   O572    1.279   .     A
C408   O573    1.279   .     A
C408   O579    1.279   .     A
C409   O602    1.394   .     S
C410   O580    1.279   .     A
C410   O574    1.279   .     A
C411   O586    1.279   .     A
C411   O575    1.279   .     A
C412   O587    1.279   .     A
C412   O576    1.279   .     A
C413   O577    1.280   .     A
C413   O584    1.280   .     A
C414   O585    1.280   .     A
C414   O578    1.280   .     A
C415   C432    1.387   .     A
C415   H453    1.083   .     S
C416   C430    1.387   .     A
C416   H464    1.083   .     S
C417   C429    1.387   .     A
C417   H475    1.083   .     S
C418   H486    1.083   .     S
C418   C428    1.387   .     A
C419   H497    1.083   .     S
C419   C427    1.387   .     A
C420   O603    1.394   .     S
C421   C426    1.387   .     A
C421   H508    1.083   .     S
C422   H519    1.083   .     S
C422   C425    1.387   .     A
C423   C424    1.387   .     A
C423   H530    1.083   .     S
C424   H541    1.083   .     S
C425   H454    1.083   .     S
C426   H455    1.083   .     S
C427   H456    1.083   .     S
C428   H457    1.083   .     S
C429   H458    1.083   .     S
C429   C452    1.402   .     A
C430   H459    1.083   .     S
C430   C451    1.402   .     A
C431   O605    1.382   .     S
C432   H460    1.083   .     S
C432   C450    1.402   .     A
C433   C449    1.387   .     A
C433   C451    1.402   .     A
C433   H461    1.083   .     S
C434   C450    1.402   .     A
C434   C448    1.387   .     A
C434   H462    1.083   .     S
C435   C447    1.387   .     A
C435   H463    1.083   .     S
C436   H465    1.083   .     S
C436   C452    1.402   .     A
C436   C446    1.387   .     A
C437   C445    1.387   .     A
C437   H466    1.083   .     S
C438   C444    1.387   .     A
C438   H467    1.083   .     S
C439   H468    1.083   .     S
C439   C443    1.387   .     A
C440   H469    1.083   .     S
C440   C441    1.387   .     A
C441   H470    1.083   .     S
C442   O606    1.393   .     S
C443   H471    1.083   .     S
C444   H472    1.083   .     S
C445   H473    1.083   .     S
C446   H474    1.083   .     S
C447   H476    1.083   .     S
C448   H477    1.083   .     S
C449   H478    1.083   .     S
H502   C975    1.115   .     S
O549   Zn620   1.945   .     S
O549   Zn628   1.945   .     S
O549   Zn617   1.945   .     S
O549   Zn1256  1.945   1_545 S
O550   Zn619   1.936   .     S
O550   C1022   1.281   .     A
O551   Zn622   1.936   .     S
O551   C75     1.281   1_655 S
O552   Zn621   1.936   .     S
O553   Zn631   1.936   .     S
O554   Zn630   1.936   .     S
O555   Zn625   1.936   .     S
O555   C1027   1.281   1_545 S
O556   Zn617   1.936   .     S
O557   Zn627   1.936   .     S
O558   Zn626   1.936   .     S
O559   Zn629   1.936   .     S
O559   C1027   1.281   1_545 S
O560   Zn629   1.945   .     S
O560   Zn623   1.945   .     S
O560   Zn625   1.945   .     S
O560   Zn1251  1.945   1_545 S
O561   Zn628   1.936   .     S
O562   Zn620   1.938   .     S
O563   Zn619   1.938   .     S
O564   Zn622   1.938   .     S
O565   Zn621   1.938   .     S
O566   Zn624   1.938   .     S
O567   Zn623   1.938   .     S
O568   Zn618   1.938   .     S
O569   Zn632   1.938   .     S
O570   Zn619   1.938   .     S
O571   Zn626   1.945   .     S
O571   Zn630   1.945   .     S
O571   Zn618   1.945   .     S
O572   Zn620   1.938   .     S
O573   Zn632   1.938   .     S
O574   Zn618   1.938   .     S
O575   Zn623   1.938   .     S
O576   Zn624   1.938   .     S
O577   Zn621   1.938   .     S
O578   Zn622   1.938   .     S
O579   Zn311   1.938   1_655 S
O580   Zn626   1.938   .     S
O581   Zn1261  1.938   .     S
O582   Zn631   1.945   .     S
O582   Zn621   1.945   .     S
O582   Zn627   1.945   .     S
O583   Zn628   1.938   .     S
O584   Zn631   1.938   .     S
O585   Zn314   1.938   1_655 S
O586   Zn625   1.938   .     S
O587   Zn1249  1.938   .     S
O588   Zn310   1.938   1_655 S
O589   Zn627   1.938   .     S
O590   Zn617   1.938   .     S
O591   Zn1257  1.938   .     S
O592   Zn630   1.938   .     S
O593   Zn624   1.936   .     S
O593   C1021   1.282   .     S
O594   Zn315   1.938   1_655 S
O595   Zn1260  1.938   .     S
O596   Zn629   1.938   .     S
O604   Zn623   1.936   .     S
O614   Zn618   1.936   .     S
O615   Zn632   1.936   .     S
O616   Zn620   1.936   .     S
Zn617  O1219   1.938   1_545 S
Zn619  O1192   1.945   .     S
Zn622  O255    1.945   1_655 S
Zn624  O1181   1.945   .     S
Zn625  O1223   1.938   1_545 S
Zn628  O1227   1.938   1_545 S
Zn629  O1213   1.938   1_545 S
Zn632  O266    1.945   1_655 S
C633   C678    1.408   .     A
C633   O913    1.393   .     S
C634   C688    1.404   .     A
C634   O923    1.391   .     S
C634   C1017   1.409   1_455 S
C635   C744    1.402   .     A
C635   C715    1.456   .     S
C635   C751    1.402   .     A
C636   C716    1.456   .     S
C636   C754    1.402   .     A
C636   C743    1.402   .     A
C637   C742    1.402   .     A
C637   C717    1.456   .     S
C637   C753    1.402   .     A
C638   C741    1.402   .     A
C638   C718    1.456   .     S
C638   C756    1.402   .     A
C639   C755    1.402   .     A
C639   C719    1.456   .     S
C639   C740    1.402   .     A
C640   C759    1.402   .     A
C640   C739    1.402   .     A
C640   C729    1.456   .     S
C641   C730    1.456   .     S
C641   C757    1.402   .     A
C641   C738    1.402   .     A
C642   C761    1.402   .     A
C642   C722    1.456   .     S
C642   C737    1.402   .     A
C643   C723    1.456   .     S
C643   C760    1.402   .     A
C643   C735    1.402   .     A
C644   C724    1.456   .     S
C644   C763    1.402   .     A
C644   C734    1.402   .     A
C645   C689    1.404   .     A
C645   O924    1.391   .     S
C645   C70     1.409   1_565 S
C646   C762    1.402   .     A
C646   C726    1.456   .     S
C646   C733    1.402   .     A
C647   C732    1.402   .     A
C647   C727    1.456   .     S
C647   C765    1.402   .     A
C648   C728    1.456   .     S
C648   C764    1.402   .     A
C648   C731    1.402   .     A
C649   C683    1.397   .     A
C649   C46     1.400   1_565 S
C649   C80     1.460   1_565 S
C650   C711    1.460   .     S
C650   C684    1.398   .     A
C650   C47     1.397   1_565 S
C651   C710    1.460   .     S
C651   C685    1.398   .     A
C651   C996    1.397   1_455 S
C652   C686    1.397   .     A
C652   C998    1.400   1_455 S
C652   C1025   1.460   1_455 S
C653   C708    1.460   .     S
C653   C687    1.400   .     A
C653   C1007   1.397   .     S
C654   C693    1.398   .     A
C654   C1004   1.397   .     S
C654   C1023   1.460   .     S
C655   C694    1.398   .     A
C655   C706    1.460   .     S
C656   C704    1.409   .     A
C656   C690    1.408   .     A
C656   O925    1.393   .     S
C657   C705    1.460   .     S
C657   C690    1.400   .     A
C658   O913    1.412   .     S
C658   H814    1.110   .     S
C658   H815    1.114   .     S
C658   H812    1.109   .     S
C659   H817    1.110   .     S
C659   O914    1.412   .     S
C659   H816    1.109   .     S
C660   H819    1.109   .     S
C660   H820    1.110   .     S
C660   O915    1.412   .     S
C660   H1137   1.115   .     S
C661   H825    1.114   .     S
C661   H823    1.110   .     S
C661   O916    1.412   .     S
C661   H822    1.109   .     S
C662   H827    1.113   .     S
C662   O917    1.409   .     S
C662   H828    1.109   .     S
C662   H826    1.114   .     S
C663   O918    1.412   .     S
C663   H830    1.110   .     S
C663   H831    1.114   .     S
C663   H829    1.109   .     S
C664   O919    1.412   .     S
C664   H833    1.110   .     S
C664   H834    1.114   .     S
C664   H832    1.109   .     S
C665   H837    1.113   .     S
C665   O921    1.409   .     S
C665   H836    1.114   .     S
C665   H838    1.109   .     S
C666   H839    1.109   .     S
C666   H840    1.110   .     S
C666   H841    1.114   .     S
C666   O922    1.412   .     S
C667   C691    1.394   .     A
C667   O926    1.382   .     S
C667   C1016   1.409   1_455 S
C668   H844    1.115   .     S
C668   O923    1.412   .     S
C668   H843    1.110   .     S
C668   H842    1.109   .     S
C669   O924    1.412   .     S
C669   H848    1.115   .     S
C669   H845    1.109   .     S
C669   H847    1.110   .     S
C670   H850    1.110   .     S
C670   O925    1.412   .     S
C670   H851    1.114   .     S
C670   H849    1.109   .     S
C671   O926    1.409   .     S
C671   H854    1.109   .     S
C671   H853    1.113   .     S
C671   H852    1.114   .     S
C672   H858    1.114   .     S
C672   H855    1.109   .     S
C672   H856    1.110   .     S
C672   O927    1.412   .     S
C673   H860    1.110   .     S
C673   H859    1.109   .     S
C673   H861    1.114   .     S
C673   O928    1.412   .     S
C674   H863    1.113   .     S
C674   O929    1.409   .     S
C674   H864    1.109   .     S
C674   H862    1.114   .     S
C675   O927    1.394   .     S
C675   C693    1.406   .     A
C675   C701    1.409   .     A
C676   C702    1.409   .     A
C676   O928    1.394   .     S
C676   C694    1.406   .     A
C677   O929    1.382   .     S
C677   C695    1.394   .     A
C677   C72     1.409   1_565 S
C678   H795    1.082   .     S
C679   H796    1.082   .     S
C679   C681    1.404   .     A
C680   H797    1.082   .     S
C680   C692    1.404   .     A
C680   C967    1.397   .     S
C681   O914    1.391   .     S
C682   H798    1.082   .     S
C682   C703    1.408   .     A
C682   C968    1.400   .     S
C683   H799    1.084   .     S
C683   C714    1.394   .     A
C684   C725    1.406   .     A
C684   H800    1.082   .     S
C685   C736    1.406   .     A
C685   H801    1.082   .     S
C686   C747    1.394   .     A
C686   H803    1.084   .     S
C687   C758    1.408   .     A
C687   H804    1.082   .     S
C688   H805    1.082   .     S
C688   C970    1.397   1_455 S
C689   H806    1.082   .     S
C689   C23     1.397   1_565 S
C690   H807    1.082   .     S
C691   H808    1.084   .     S
C691   C969    1.397   1_455 S
C692   O915    1.391   .     S
C692   C1014   1.409   .     S
C693   H809    1.082   .     S
C694   H810    1.082   .     S
C695   H811    1.084   .     S
C695   C25     1.397   1_565 S
C696   C714    1.409   .     A
C696   C1      1.409   1_565 S
C696   C697    1.471   1_554 S
C697   C725    1.409   .     A
C697   C696    1.471   1_556 S
C697   C49     1.409   1_565 S
C698   C736    1.409   .     A
C698   C1008   1.409   1_455 S
C698   C699    1.471   1_554 S
C699   C747    1.409   .     A
C699   C698    1.471   1_556 S
C699   C1019   1.409   1_455 S
C700   C701    1.471   .     S
C700   C758    1.409   .     A
C700   C983    1.409   .     S
C701   C950    1.409   .     S
C702   C704    1.471   .     S
C703   O916    1.393   .     S
C703   C1015   1.409   .     S
C705   O932    1.281   .     A
C706   O920    1.281   .     S
C707   O930    1.281   .     A
C707   C970    1.460   1_455 S
C707   O1183   1.281   1_455 S
C708   O931    1.281   .     A
C708   O1184   1.282   .     S
C709   C968    1.460   .     S
C709   O1185   1.282   .     S
C709   O1189   1.281   .     S
C710   O870    1.281   .     A
C710   O874    1.281   .     A
C711   O239    1.281   1_565 S
C711   O243    1.281   1_565 S
C712   O872    1.281   .     S
C712   O877    1.282   .     S
C713   C768    1.456   .     S
C713   O906    1.279   .     A
C713   O878    1.279   .     A
C714   O917    1.382   .     S
C715   O879    1.279   .     A
C715   O907    1.279   .     A
C716   O880    1.279   .     A
C716   O904    1.279   .     A
C717   O881    1.279   .     A
C717   O905    1.279   .     A
C718   O882    1.280   .     A
C718   O911    1.280   .     A
C719   O912    1.280   .     A
C719   O883    1.280   .     A
C720   O884    1.279   .     A
C720   C766    1.456   .     S
C720   O908    1.279   .     A
C721   C767    1.456   .     S
C721   O885    1.279   .     A
C721   O910    1.279   .     A
C722   O886    1.279   .     A
C722   O897    1.279   .     A
C723   O899    1.279   .     A
C723   O888    1.279   .     A
C724   O889    1.279   .     A
C724   O895    1.279   .     A
C725   O918    1.394   .     S
C726   O896    1.279   .     A
C726   O890    1.279   .     A
C727   O902    1.279   .     A
C727   O891    1.279   .     A
C728   O903    1.279   .     A
C728   O892    1.279   .     A
C729   O893    1.280   .     A
C729   O900    1.280   .     A
C730   O901    1.280   .     A
C730   O894    1.280   .     A
C731   C748    1.387   .     A
C731   H769    1.083   .     S
C732   C746    1.387   .     A
C732   H780    1.083   .     S
C733   C745    1.387   .     A
C733   H791    1.083   .     S
C734   H802    1.083   .     S
C734   C744    1.387   .     A
C735   H813    1.083   .     S
C735   C743    1.387   .     A
C736   O919    1.394   .     S
C737   C742    1.387   .     A
C737   H824    1.083   .     S
C738   H835    1.083   .     S
C738   C741    1.387   .     A
C739   C740    1.387   .     A
C739   H846    1.083   .     S
C740   H857    1.083   .     S
C741   H770    1.083   .     S
C742   H771    1.083   .     S
C743   H772    1.083   .     S
C744   H773    1.083   .     S
C745   H774    1.083   .     S
C745   C768    1.402   .     A
C746   H775    1.083   .     S
C746   C767    1.402   .     A
C747   O921    1.382   .     S
C748   H776    1.083   .     S
C748   C766    1.402   .     A
C749   C765    1.387   .     A
C749   C767    1.402   .     A
C749   H777    1.083   .     S
C750   C766    1.402   .     A
C750   C764    1.387   .     A
C750   H778    1.083   .     S
C751   C763    1.387   .     A
C751   H779    1.083   .     S
C752   H781    1.083   .     S
C752   C768    1.402   .     A
C752   C762    1.387   .     A
C753   C761    1.387   .     A
C753   H782    1.083   .     S
C754   C760    1.387   .     A
C754   H783    1.083   .     S
C755   H784    1.083   .     S
C755   C759    1.387   .     A
C756   H785    1.083   .     S
C756   C757    1.387   .     A
C757   H786    1.083   .     S
C758   O922    1.393   .     S
C759   H787    1.083   .     S
C760   H788    1.083   .     S
C761   H789    1.083   .     S
C762   H790    1.083   .     S
C763   H792    1.083   .     S
C764   H793    1.083   .     S
C765   H794    1.083   .     S
H818   C27     1.115   1_565 S
H821   C976    1.115   1_455 S
O865   Zn936   1.945   .     S
O865   Zn944   1.945   .     S
O865   Zn933   1.945   .     S
O866   Zn935   1.936   .     S
O866   C74     1.281   1_565 A
O867   Zn938   1.936   .     S
O867   C1023   1.281   .     S
O868   Zn937   1.936   .     S
O868   C1024   1.282   1_455 S
O869   Zn947   1.936   .     S
O869   C1025   1.282   1_455 S
O870   Zn946   1.936   .     S
O871   Zn941   1.936   .     S
O872   Zn933   1.936   .     S
O873   Zn943   1.936   .     S
O873   C1025   1.281   1_455 S
O874   Zn942   1.936   .     S
O875   Zn945   1.936   .     S
O876   Zn945   1.945   .     S
O876   Zn939   1.945   .     S
O876   Zn941   1.945   .     S
O877   Zn944   1.936   .     S
O878   Zn936   1.938   .     S
O879   Zn935   1.938   .     S
O880   Zn938   1.938   .     S
O881   Zn937   1.938   .     S
O882   Zn940   1.938   .     S
O883   Zn939   1.938   .     S
O884   Zn934   1.938   .     S
O885   Zn948   1.938   .     S
O886   Zn935   1.938   .     S
O887   Zn942   1.945   .     S
O887   Zn946   1.945   .     S
O887   Zn934   1.945   .     S
O887   Zn1254  1.945   1_455 S
O888   Zn936   1.938   .     S
O889   Zn948   1.938   .     S
O890   Zn934   1.938   .     S
O891   Zn939   1.938   .     S
O892   Zn940   1.938   .     S
O893   Zn937   1.938   .     S
O894   Zn938   1.938   .     S
O895   Zn1259  1.938   .     S
O896   Zn942   1.938   .     S
O897   Zn313   1.938   1_565 S
O898   Zn947   1.945   .     S
O898   Zn937   1.945   .     S
O898   Zn943   1.945   .     S
O898   Zn1264  1.945   1_455 S
O899   Zn944   1.938   .     S
O900   Zn947   1.938   .     S
O901   Zn1262  1.938   .     S
O902   Zn941   1.938   .     S
O903   Zn301   1.938   1_565 S
O904   Zn1258  1.938   .     S
O905   Zn943   1.938   .     S
O906   Zn933   1.938   .     S
O907   Zn309   1.938   1_565 S
O908   Zn946   1.938   .     S
O909   Zn940   1.936   .     S
O909   C73     1.282   1_565 S
O910   Zn1263  1.938   .     S
O911   Zn312   1.938   1_565 S
O912   Zn945   1.938   .     S
O920   Zn939   1.936   .     S
O930   Zn934   1.936   .     S
O931   Zn948   1.936   .     S
O932   Zn936   1.936   .     S
Zn935  O244    1.945   1_565 S
Zn938  O1203   1.945   .     S
Zn940  O233    1.945   1_565 S
Zn942  O1220   1.938   1_455 S
Zn943  O1211   1.938   1_455 S
Zn946  O1217   1.938   1_455 S
Zn947  O1226   1.938   1_455 S
Zn948  O1214   1.945   .     S
C949   C994    1.408   .     A
C949   O1229   1.393   .     S
C950   C1004   1.404   .     A
C950   O1239   1.391   .     S
C951   C1060   1.402   .     A
C951   C1031   1.456   .     S
C951   C1067   1.402   .     A
C952   C1032   1.456   .     S
C952   C1070   1.402   .     A
C952   C1059   1.402   .     A
C953   C1058   1.402   .     A
C953   C1033   1.456   .     S
C953   C1069   1.402   .     A
C954   C1057   1.402   .     A
C954   C1034   1.456   .     S
C954   C1072   1.402   .     A
C955   C1071   1.402   .     A
C955   C1035   1.456   .     S
C955   C1056   1.402   .     A
C956   C1075   1.402   .     A
C956   C1055   1.402   .     A
C956   C1045   1.456   .     S
C957   C1046   1.456   .     S
C957   C1073   1.402   .     A
C957   C1054   1.402   .     A
C958   C1077   1.402   .     A
C958   C1038   1.456   .     S
C958   C1053   1.402   .     A
C959   C1039   1.456   .     S
C959   C1076   1.402   .     A
C959   C1051   1.402   .     A
C960   C1040   1.456   .     S
C960   C1079   1.402   .     A
C960   C1050   1.402   .     A
C961   C1005   1.404   .     A
C961   O1240   1.391   .     S
C961   C386    1.409   1_565 S
C962   C1078   1.402   .     A
C962   C1042   1.456   .     S
C962   C1049   1.402   .     A
C963   C1048   1.402   .     A
C963   C1043   1.456   .     S
C963   C1081   1.402   .     A
C964   C1044   1.456   .     S
C964   C1080   1.402   .     A
C964   C1047   1.402   .     A
C965   C999    1.397   .     A
C965   C362    1.400   1_565 S
C965   C396    1.460   1_565 S
C966   C1027   1.460   .     S
C966   C1000   1.398   .     A
C966   C363    1.397   1_565 S
C967   C1026   1.460   .     S
C967   C1001   1.398   .     A
C968   C1002   1.397   .     A
C969   C1024   1.460   .     S
C969   C1003   1.400   .     A
C969   C691    1.397   1_655 S
C970   C1009   1.398   .     A
C970   C688    1.397   1_655 S
C970   C707    1.460   1_655 S
C971   C1010   1.398   .     A
C971   C1022   1.460   .     S
C972   C1020   1.409   .     A
C972   C1006   1.408   .     A
C972   O1241   1.393   .     S
C973   C1021   1.460   .     S
C973   C1006   1.400   .     A
C974   O1229   1.412   .     S
C974   H1130   1.110   .     S
C974   H1131   1.114   .     S
C974   H1128   1.109   .     S
C975   H1133   1.110   .     S
C975   O1230   1.412   .     S
C975   H1132   1.109   .     S
C976   H1135   1.109   .     S
C976   H1136   1.110   .     S
C976   O1231   1.412   .     S
C976   H821    1.115   1_655 S
C977   H1141   1.114   .     S
C977   H1139   1.110   .     S
C977   O1232   1.412   .     S
C977   H1138   1.109   .     S
C978   H1143   1.113   .     S
C978   O1233   1.409   .     S
C978   H1144   1.109   .     S
C978   H1142   1.114   .     S
C979   O1234   1.412   .     S
C979   H1146   1.110   .     S
C979   H1147   1.114   .     S
C979   H1145   1.109   .     S
C980   O1235   1.412   .     S
C980   H1149   1.110   .     S
C980   H1150   1.114   .     S
C980   H1148   1.109   .     S
C981   H1153   1.113   .     S
C981   O1237   1.409   .     S
C981   H1152   1.114   .     S
C981   H1154   1.109   .     S
C982   H1155   1.109   .     S
C982   H1156   1.110   .     S
C982   H1157   1.114   .     S
C982   O1238   1.412   .     S
C983   C1007   1.394   .     A
C983   O1242   1.382   .     S
C984   H1160   1.115   .     S
C984   O1239   1.412   .     S
C984   H1159   1.110   .     S
C984   H1158   1.109   .     S
C985   O1240   1.412   .     S
C985   H1164   1.115   .     S
C985   H1161   1.109   .     S
C985   H1163   1.110   .     S
C986   H1166   1.110   .     S
C986   O1241   1.412   .     S
C986   H1167   1.114   .     S
C986   H1165   1.109   .     S
C987   O1242   1.409   .     S
C987   H1170   1.109   .     S
C987   H1169   1.113   .     S
C987   H1168   1.114   .     S
C988   H1174   1.114   .     S
C988   H1171   1.109   .     S
C988   H1172   1.110   .     S
C988   O1243   1.412   .     S
C989   H1176   1.110   .     S
C989   H1175   1.109   .     S
C989   H1177   1.114   .     S
C989   O1244   1.412   .     S
C990   H1179   1.113   .     S
C990   O1245   1.409   .     S
C990   H1180   1.109   .     S
C990   H1178   1.114   .     S
C991   O1243   1.394   .     S
C991   C1009   1.406   .     A
C991   C1017   1.409   .     A
C992   C1018   1.409   .     A
C992   O1244   1.394   .     S
C992   C1010   1.406   .     A
C993   O1245   1.382   .     S
C993   C1011   1.394   .     A
C993   C388    1.409   1_565 S
C994   H1111   1.082   .     S
C995   H1112   1.082   .     S
C995   C997    1.404   .     A
C996   H1113   1.082   .     S
C996   C1008   1.404   .     A
C996   C651    1.397   1_655 S
C997   O1230   1.391   .     S
C998   H1114   1.082   .     S
C998   C1019   1.408   .     A
C998   C652    1.400   1_655 S
C999   H1115   1.084   .     S
C999   C1030   1.394   .     A
C1000  C1041   1.406   .     A
C1000  H1116   1.082   .     S
C1001  C1052   1.406   .     A
C1001  H1117   1.082   .     S
C1002  C1063   1.394   .     A
C1002  H1119   1.084   .     S
C1003  C1074   1.408   .     A
C1003  H1120   1.082   .     S
C1004  H1121   1.082   .     S
C1005  H1122   1.082   .     S
C1005  C339    1.397   1_565 S
C1006  H1123   1.082   .     S
C1007  H1124   1.084   .     S
C1008  O1231   1.391   .     S
C1008  C698    1.409   1_655 S
C1009  H1125   1.082   .     S
C1010  H1126   1.082   .     S
C1011  H1127   1.084   .     S
C1011  C341    1.397   1_565 S
C1012  C1030   1.409   .     A
C1012  C317    1.409   1_565 S
C1012  C1013   1.471   1_554 S
C1013  C1041   1.409   .     A
C1013  C1012   1.471   1_556 S
C1013  C365    1.409   1_565 S
C1014  C1052   1.409   .     A
C1014  C1015   1.471   1_554 S
C1015  C1063   1.409   .     A
C1015  C1014   1.471   1_556 S
C1016  C1017   1.471   .     S
C1016  C1074   1.409   .     A
C1016  C667    1.409   1_655 S
C1017  C634    1.409   1_655 S
C1018  C1020   1.471   .     S
C1019  O1232   1.393   .     S
C1019  C699    1.409   1_655 S
C1021  O1248   1.281   .     A
C1022  O1236   1.281   .     S
C1023  O1246   1.281   .     A
C1024  O1247   1.281   .     A
C1024  O868    1.282   1_655 S
C1025  C652    1.460   1_655 S
C1025  O869    1.282   1_655 S
C1025  O873    1.281   1_655 S
C1026  O1186   1.281   .     A
C1026  O1190   1.281   .     A
C1027  O555    1.281   1_565 S
C1027  O559    1.281   1_565 S
C1028  O1188   1.281   .     S
C1028  O1193   1.282   .     S
C1029  C1084   1.456   .     S
C1029  O1222   1.279   .     A
C1029  O1194   1.279   .     A
C1030  O1233   1.382   .     S
C1031  O1195   1.279   .     A
C1031  O1223   1.279   .     A
C1032  O1196   1.279   .     A
C1032  O1220   1.279   .     A
C1033  O1197   1.279   .     A
C1033  O1221   1.279   .     A
C1034  O1198   1.280   .     A
C1034  O1227   1.280   .     A
C1035  O1228   1.280   .     A
C1035  O1199   1.280   .     A
C1036  O1200   1.279   .     A
C1036  C1082   1.456   .     S
C1036  O1224   1.279   .     A
C1037  C1083   1.456   .     S
C1037  O1201   1.279   .     A
C1037  O1226   1.279   .     A
C1038  O1202   1.279   .     A
C1038  O1213   1.279   .     A
C1039  O1215   1.279   .     A
C1039  O1204   1.279   .     A
C1040  O1205   1.279   .     A
C1040  O1211   1.279   .     A
C1041  O1234   1.394   .     S
C1042  O1212   1.279   .     A
C1042  O1206   1.279   .     A
C1043  O1218   1.279   .     A
C1043  O1207   1.279   .     A
C1044  O1219   1.279   .     A
C1044  O1208   1.279   .     A
C1045  O1209   1.280   .     A
C1045  O1216   1.280   .     A
C1046  O1217   1.280   .     A
C1046  O1210   1.280   .     A
C1047  C1064   1.387   .     A
C1047  H1085   1.083   .     S
C1048  C1062   1.387   .     A
C1048  H1096   1.083   .     S
C1049  C1061   1.387   .     A
C1049  H1107   1.083   .     S
C1050  H1118   1.083   .     S
C1050  C1060   1.387   .     A
C1051  H1129   1.083   .     S
C1051  C1059   1.387   .     A
C1052  O1235   1.394   .     S
C1053  C1058   1.387   .     A
C1053  H1140   1.083   .     S
C1054  H1151   1.083   .     S
C1054  C1057   1.387   .     A
C1055  C1056   1.387   .     A
C1055  H1162   1.083   .     S
C1056  H1173   1.083   .     S
C1057  H1086   1.083   .     S
C1058  H1087   1.083   .     S
C1059  H1088   1.083   .     S
C1060  H1089   1.083   .     S
C1061  H1090   1.083   .     S
C1061  C1084   1.402   .     A
C1062  H1091   1.083   .     S
C1062  C1083   1.402   .     A
C1063  O1237   1.382   .     S
C1064  H1092   1.083   .     S
C1064  C1082   1.402   .     A
C1065  C1081   1.387   .     A
C1065  C1083   1.402   .     A
C1065  H1093   1.083   .     S
C1066  C1082   1.402   .     A
C1066  C1080   1.387   .     A
C1066  H1094   1.083   .     S
C1067  C1079   1.387   .     A
C1067  H1095   1.083   .     S
C1068  H1097   1.083   .     S
C1068  C1084   1.402   .     A
C1068  C1078   1.387   .     A
C1069  C1077   1.387   .     A
C1069  H1098   1.083   .     S
C1070  C1076   1.387   .     A
C1070  H1099   1.083   .     S
C1071  H1100   1.083   .     S
C1071  C1075   1.387   .     A
C1072  H1101   1.083   .     S
C1072  C1073   1.387   .     A
C1073  H1102   1.083   .     S
C1074  O1238   1.393   .     S
C1075  H1103   1.083   .     S
C1076  H1104   1.083   .     S
C1077  H1105   1.083   .     S
C1078  H1106   1.083   .     S
C1079  H1108   1.083   .     S
C1080  H1109   1.083   .     S
C1081  H1110   1.083   .     S
H1134  C343    1.115   1_565 S
O1181  Zn1252  1.945   .     S
O1181  Zn1260  1.945   .     S
O1181  Zn1249  1.945   .     S
O1182  Zn1251  1.936   .     S
O1182  C390    1.281   1_565 A
O1183  Zn1254  1.936   .     S
O1183  C707    1.281   1_655 S
O1184  Zn1253  1.936   .     S
O1185  Zn1263  1.936   .     S
O1186  Zn1262  1.936   .     S
O1187  Zn1257  1.936   .     S
O1188  Zn1249  1.936   .     S
O1189  Zn1259  1.936   .     S
O1190  Zn1258  1.936   .     S
O1191  Zn1261  1.936   .     S
O1192  Zn1261  1.945   .     S
O1192  Zn1255  1.945   .     S
O1192  Zn1257  1.945   .     S
O1193  Zn1260  1.936   .     S
O1194  Zn1252  1.938   .     S
O1195  Zn1251  1.938   .     S
O1196  Zn1254  1.938   .     S
O1197  Zn1253  1.938   .     S
O1198  Zn1256  1.938   .     S
O1199  Zn1255  1.938   .     S
O1200  Zn1250  1.938   .     S
O1201  Zn1264  1.938   .     S
O1202  Zn1251  1.938   .     S
O1203  Zn1258  1.945   .     S
O1203  Zn1262  1.945   .     S
O1203  Zn1250  1.945   .     S
O1204  Zn1252  1.938   .     S
O1205  Zn1264  1.938   .     S
O1206  Zn1250  1.938   .     S
O1207  Zn1255  1.938   .     S
O1208  Zn1256  1.938   .     S
O1209  Zn1253  1.938   .     S
O1210  Zn1254  1.938   .     S
O1211  Zn943   1.938   1_655 S
O1212  Zn1258  1.938   .     S
O1213  Zn629   1.938   1_565 S
O1214  Zn1263  1.945   .     S
O1214  Zn1253  1.945   .     S
O1214  Zn1259  1.945   .     S
O1215  Zn1260  1.938   .     S
O1216  Zn1263  1.938   .     S
O1217  Zn946   1.938   1_655 S
O1218  Zn1257  1.938   .     S
O1219  Zn617   1.938   1_565 S
O1220  Zn942   1.938   1_655 S
O1221  Zn1259  1.938   .     S
O1222  Zn1249  1.938   .     S
O1223  Zn625   1.938   1_565 S
O1224  Zn1262  1.938   .     S
O1225  Zn1256  1.936   .     S
O1225  C389    1.282   1_565 S
O1226  Zn947   1.938   1_655 S
O1227  Zn628   1.938   1_565 S
O1228  Zn1261  1.938   .     S
O1236  Zn1255  1.936   .     S
O1246  Zn1250  1.936   .     S
O1247  Zn1264  1.936   .     S
O1248  Zn1252  1.936   .     S
Zn1251 O560    1.945   1_565 S
Zn1254 O887    1.945   1_655 S
Zn1256 O549    1.945   1_565 S
Zn1264 O898    1.945   1_655 S
