data_str_m2_o1_o10_pcu_sym.110
_audit_creation_date              2020-01-03
_audit_creation_method            'Materials Studio'
_symmetry_space_group_name_H-M    'P1'
_symmetry_Int_Tables_number       1
_symmetry_cell_setting            triclinic
loop_
_symmetry_equiv_pos_as_xyz
  x,y,z
_cell_length_a                    26.5645
_cell_length_b                    32.3793
_cell_length_c                    28.5560
_cell_angle_alpha                 90.0875
_cell_angle_beta                  97.9048
_cell_angle_gamma                 89.7343
loop_
_atom_site_label
_atom_site_type_symbol
_atom_site_fract_x
_atom_site_fract_y
_atom_site_fract_z
_atom_site_U_iso_or_equiv
_atom_site_adp_type
_atom_site_occupancy
C1     C     0.16649   0.08754   0.16661   0.00000  Uiso   1.00
C2     C     0.16685   0.24580   0.16672   0.00000  Uiso   1.00
C3     C     0.06817   0.16650   0.15474   0.00000  Uiso   1.00
C4     C     0.26517   0.16683   0.17859   0.00000  Uiso   1.00
C5     C     0.01353   0.16349   0.14830   0.00000  Uiso   1.00
C6     C     0.31980   0.16984   0.18503   0.00000  Uiso   1.00
C7     C     0.20930   0.02150   0.15489   0.00000  Uiso   1.00
C8     C     0.12404   0.31183   0.17845   0.00000  Uiso   1.00
C9     C     0.20989   0.31152   0.15507   0.00000  Uiso   1.00
C10    C     0.12344   0.02182   0.17826   0.00000  Uiso   1.00
C11    C     0.16693   0.29049   0.16674   0.00000  Uiso   1.00
C12    C     0.16640   0.04284   0.16660   0.00000  Uiso   1.00
C13    C     0.13420   0.14189   0.02061   0.00000  Uiso   1.00
C14    C     0.19914   0.19144   0.31273   0.00000  Uiso   1.00
C15    C     0.13426   0.14187   0.30434   0.00000  Uiso   1.00
C16    C     0.19908   0.19146   0.02899   0.00000  Uiso   1.00
Cu17   Cu    0.16667   0.16667   0.21355   0.00000  Uiso   1.00
Cu18   Cu    0.16667   0.16666   0.11978   0.00000  Uiso   1.00
H19    H     0.10818   0.12205   0.03593   0.00000  Uiso   1.00
H20    H     0.22515   0.21129   0.29740   0.00000  Uiso   1.00
H21    H     0.10825   0.12204   0.28231   0.00000  Uiso   1.00
H22    H     0.22508   0.21130   0.05103   0.00000  Uiso   1.00
N23    N     0.16668   0.16668   0.28403   0.00000  Uiso   1.00
N24    N     0.16665   0.16666   0.04931   0.00000  Uiso   1.00
O25    O     0.16666   0.10655   0.20625   0.00000  Uiso   1.00
O26    O     0.16667   0.22678   0.12709   0.00000  Uiso   1.00
O27    O     0.16666   0.10654   0.12706   0.00000  Uiso   1.00
O28    O     0.16667   0.22679   0.20628   0.00000  Uiso   1.00
O29    O     0.09161   0.16667   0.19712   0.00000  Uiso   1.00
O30    O     0.24172   0.16666   0.13621   0.00000  Uiso   1.00
O31    O     0.09161   0.16666   0.11793   0.00000  Uiso   1.00
O32    O     0.24172   0.16667   0.21540   0.00000  Uiso   1.00
C33    C     0.32430   0.15086   0.10111   0.00000  Uiso   1.00
N34    N     0.30680   0.14074   0.06349   0.00000  Uiso   1.00
C35    C     0.00903   0.18248   0.23223   0.00000  Uiso   1.00
N36    N     0.02654   0.19259   0.26984   0.00000  Uiso   1.00
C37    C     0.25281   0.04440   0.14346   0.00000  Uiso   1.00
N38    N     0.28751   0.06263   0.13433   0.00000  Uiso   1.00
C39    C     0.08053   0.28893   0.18988   0.00000  Uiso   1.00
N40    N     0.04583   0.27070   0.19901   0.00000  Uiso   1.00
C41    C     0.25598   0.28719   0.14413   0.00000  Uiso   1.00
H42    H     0.24589   0.26904   0.11123   0.00000  Uiso   1.00
H43    H     0.28893   0.30670   0.13906   0.00000  Uiso   1.00
H44    H     0.26885   0.26575   0.17373   0.00000  Uiso   1.00
C45    C     0.07735   0.04615   0.18921   0.00000  Uiso   1.00
H46    H     0.08744   0.06429   0.22210   0.00000  Uiso   1.00
H47    H     0.06448   0.06758   0.15960   0.00000  Uiso   1.00
H48    H     0.04440   0.02663   0.19427   0.00000  Uiso   1.00
C49    C     0.49982   0.08754   0.16661   0.00000  Uiso   1.00
C50    C     0.50018   0.24580   0.16672   0.00000  Uiso   1.00
C51    C     0.40150   0.16650   0.15474   0.00000  Uiso   1.00
C52    C     0.59850   0.16683   0.17859   0.00000  Uiso   1.00
C53    C     0.34686   0.16349   0.14830   0.00000  Uiso   1.00
C54    C     0.65314   0.16984   0.18503   0.00000  Uiso   1.00
C55    C     0.54263   0.02150   0.15489   0.00000  Uiso   1.00
C56    C     0.45737   0.31183   0.17845   0.00000  Uiso   1.00
C57    C     0.54323   0.31152   0.15507   0.00000  Uiso   1.00
C58    C     0.45678   0.02182   0.17826   0.00000  Uiso   1.00
C59    C     0.50026   0.29049   0.16674   0.00000  Uiso   1.00
C60    C     0.49974   0.04284   0.16660   0.00000  Uiso   1.00
C61    C     0.46753   0.14189   0.02061   0.00000  Uiso   1.00
C62    C     0.53247   0.19144   0.31273   0.00000  Uiso   1.00
C63    C     0.46759   0.14187   0.30434   0.00000  Uiso   1.00
C64    C     0.53241   0.19146   0.02899   0.00000  Uiso   1.00
Cu65   Cu    0.50000   0.16667   0.21355   0.00000  Uiso   1.00
Cu66   Cu    0.50000   0.16666   0.11978   0.00000  Uiso   1.00
H67    H     0.44151   0.12205   0.03593   0.00000  Uiso   1.00
H68    H     0.55849   0.21129   0.29740   0.00000  Uiso   1.00
H69    H     0.44159   0.12204   0.28231   0.00000  Uiso   1.00
H70    H     0.55842   0.21130   0.05103   0.00000  Uiso   1.00
N71    N     0.50001   0.16668   0.28403   0.00000  Uiso   1.00
N72    N     0.49999   0.16666   0.04931   0.00000  Uiso   1.00
O73    O     0.50000   0.10655   0.20625   0.00000  Uiso   1.00
O74    O     0.50000   0.22678   0.12709   0.00000  Uiso   1.00
O75    O     0.50000   0.10654   0.12706   0.00000  Uiso   1.00
O76    O     0.50000   0.22679   0.20628   0.00000  Uiso   1.00
O77    O     0.42495   0.16667   0.19712   0.00000  Uiso   1.00
O78    O     0.57505   0.16666   0.13621   0.00000  Uiso   1.00
O79    O     0.42494   0.16666   0.11793   0.00000  Uiso   1.00
O80    O     0.57506   0.16667   0.21540   0.00000  Uiso   1.00
C81    C     0.65763   0.15086   0.10111   0.00000  Uiso   1.00
N82    N     0.64013   0.14074   0.06349   0.00000  Uiso   1.00
C83    C     0.34237   0.18248   0.23223   0.00000  Uiso   1.00
N84    N     0.35987   0.19259   0.26984   0.00000  Uiso   1.00
C85    C     0.58614   0.04440   0.14346   0.00000  Uiso   1.00
N86    N     0.62084   0.06263   0.13433   0.00000  Uiso   1.00
C87    C     0.41386   0.28893   0.18988   0.00000  Uiso   1.00
N88    N     0.37916   0.27070   0.19901   0.00000  Uiso   1.00
C89    C     0.58932   0.28719   0.14413   0.00000  Uiso   1.00
H90    H     0.57922   0.26904   0.11123   0.00000  Uiso   1.00
H91    H     0.62226   0.30670   0.13906   0.00000  Uiso   1.00
H92    H     0.60219   0.26575   0.17373   0.00000  Uiso   1.00
C93    C     0.41068   0.04615   0.18921   0.00000  Uiso   1.00
H94    H     0.42078   0.06429   0.22210   0.00000  Uiso   1.00
H95    H     0.39781   0.06758   0.15960   0.00000  Uiso   1.00
H96    H     0.37774   0.02663   0.19427   0.00000  Uiso   1.00
C97    C     0.83315   0.08754   0.16661   0.00000  Uiso   1.00
C98    C     0.83351   0.24580   0.16672   0.00000  Uiso   1.00
C99    C     0.73483   0.16650   0.15474   0.00000  Uiso   1.00
C100   C     0.93183   0.16683   0.17859   0.00000  Uiso   1.00
C101   C     0.68020   0.16349   0.14830   0.00000  Uiso   1.00
C102   C     0.98647   0.16984   0.18503   0.00000  Uiso   1.00
C103   C     0.87597   0.02150   0.15489   0.00000  Uiso   1.00
C104   C     0.79070   0.31183   0.17845   0.00000  Uiso   1.00
C105   C     0.87656   0.31152   0.15507   0.00000  Uiso   1.00
C106   C     0.79011   0.02182   0.17826   0.00000  Uiso   1.00
C107   C     0.83360   0.29049   0.16674   0.00000  Uiso   1.00
C108   C     0.83307   0.04284   0.16660   0.00000  Uiso   1.00
C109   C     0.80086   0.14189   0.02061   0.00000  Uiso   1.00
C110   C     0.86580   0.19144   0.31273   0.00000  Uiso   1.00
C111   C     0.80093   0.14187   0.30434   0.00000  Uiso   1.00
C112   C     0.86574   0.19146   0.02899   0.00000  Uiso   1.00
Cu113  Cu    0.83333   0.16667   0.21355   0.00000  Uiso   1.00
Cu114  Cu    0.83333   0.16666   0.11978   0.00000  Uiso   1.00
H115   H     0.77485   0.12205   0.03593   0.00000  Uiso   1.00
H116   H     0.89182   0.21129   0.29740   0.00000  Uiso   1.00
H117   H     0.77492   0.12204   0.28231   0.00000  Uiso   1.00
H118   H     0.89175   0.21130   0.05103   0.00000  Uiso   1.00
N119   N     0.83335   0.16668   0.28403   0.00000  Uiso   1.00
N120   N     0.83332   0.16666   0.04931   0.00000  Uiso   1.00
O121   O     0.83333   0.10655   0.20625   0.00000  Uiso   1.00
O122   O     0.83334   0.22678   0.12709   0.00000  Uiso   1.00
O123   O     0.83333   0.10654   0.12706   0.00000  Uiso   1.00
O124   O     0.83334   0.22679   0.20628   0.00000  Uiso   1.00
O125   O     0.75828   0.16667   0.19712   0.00000  Uiso   1.00
O126   O     0.90839   0.16666   0.13621   0.00000  Uiso   1.00
O127   O     0.75828   0.16666   0.11793   0.00000  Uiso   1.00
O128   O     0.90839   0.16667   0.21540   0.00000  Uiso   1.00
C129   C     0.99097   0.15086   0.10111   0.00000  Uiso   1.00
N130   N     0.97346   0.14074   0.06349   0.00000  Uiso   1.00
C131   C     0.67570   0.18248   0.23223   0.00000  Uiso   1.00
N132   N     0.69320   0.19259   0.26984   0.00000  Uiso   1.00
C133   C     0.91947   0.04440   0.14346   0.00000  Uiso   1.00
N134   N     0.95417   0.06263   0.13433   0.00000  Uiso   1.00
C135   C     0.74720   0.28893   0.18988   0.00000  Uiso   1.00
N136   N     0.71250   0.27070   0.19901   0.00000  Uiso   1.00
C137   C     0.92265   0.28719   0.14413   0.00000  Uiso   1.00
H138   H     0.91256   0.26904   0.11123   0.00000  Uiso   1.00
H139   H     0.95560   0.30670   0.13906   0.00000  Uiso   1.00
H140   H     0.93552   0.26575   0.17373   0.00000  Uiso   1.00
C141   C     0.74402   0.04615   0.18921   0.00000  Uiso   1.00
H142   H     0.75411   0.06429   0.22210   0.00000  Uiso   1.00
H143   H     0.73115   0.06758   0.15960   0.00000  Uiso   1.00
H144   H     0.71107   0.02663   0.19427   0.00000  Uiso   1.00
C145   C     0.16649   0.42087   0.16661   0.00000  Uiso   1.00
C146   C     0.16685   0.57913   0.16672   0.00000  Uiso   1.00
C147   C     0.06817   0.49984   0.15474   0.00000  Uiso   1.00
C148   C     0.26517   0.50016   0.17859   0.00000  Uiso   1.00
C149   C     0.01353   0.49682   0.14830   0.00000  Uiso   1.00
C150   C     0.31980   0.50318   0.18503   0.00000  Uiso   1.00
C151   C     0.20930   0.35484   0.15489   0.00000  Uiso   1.00
C152   C     0.12404   0.64516   0.17845   0.00000  Uiso   1.00
C153   C     0.20989   0.64485   0.15507   0.00000  Uiso   1.00
C154   C     0.12344   0.35515   0.17826   0.00000  Uiso   1.00
C155   C     0.16693   0.62382   0.16674   0.00000  Uiso   1.00
C156   C     0.16640   0.37618   0.16660   0.00000  Uiso   1.00
C157   C     0.13420   0.47523   0.02061   0.00000  Uiso   1.00
C158   C     0.19914   0.52477   0.31273   0.00000  Uiso   1.00
C159   C     0.13426   0.47520   0.30434   0.00000  Uiso   1.00
C160   C     0.19908   0.52480   0.02899   0.00000  Uiso   1.00
Cu161  Cu    0.16667   0.50001   0.21355   0.00000  Uiso   1.00
Cu162  Cu    0.16667   0.49999   0.11978   0.00000  Uiso   1.00
H163   H     0.10818   0.45538   0.03593   0.00000  Uiso   1.00
H164   H     0.22515   0.54462   0.29740   0.00000  Uiso   1.00
H165   H     0.10825   0.45537   0.28231   0.00000  Uiso   1.00
H166   H     0.22508   0.54463   0.05103   0.00000  Uiso   1.00
N167   N     0.16668   0.50001   0.28403   0.00000  Uiso   1.00
N168   N     0.16665   0.49999   0.04931   0.00000  Uiso   1.00
O169   O     0.16666   0.43989   0.20625   0.00000  Uiso   1.00
O170   O     0.16667   0.56011   0.12709   0.00000  Uiso   1.00
O171   O     0.16666   0.43988   0.12706   0.00000  Uiso   1.00
O172   O     0.16667   0.56012   0.20628   0.00000  Uiso   1.00
O173   O     0.09161   0.50000   0.19712   0.00000  Uiso   1.00
O174   O     0.24172   0.50000   0.13621   0.00000  Uiso   1.00
O175   O     0.09161   0.49999   0.11793   0.00000  Uiso   1.00
O176   O     0.24172   0.50001   0.21540   0.00000  Uiso   1.00
C177   C     0.32430   0.48419   0.10111   0.00000  Uiso   1.00
N178   N     0.30680   0.47407   0.06349   0.00000  Uiso   1.00
C179   C     0.00903   0.51581   0.23223   0.00000  Uiso   1.00
N180   N     0.02654   0.52593   0.26984   0.00000  Uiso   1.00
C181   C     0.25281   0.37773   0.14346   0.00000  Uiso   1.00
N182   N     0.28751   0.39596   0.13433   0.00000  Uiso   1.00
C183   C     0.08053   0.62227   0.18988   0.00000  Uiso   1.00
N184   N     0.04583   0.60404   0.19901   0.00000  Uiso   1.00
C185   C     0.25598   0.62052   0.14413   0.00000  Uiso   1.00
H186   H     0.24589   0.60237   0.11123   0.00000  Uiso   1.00
H187   H     0.28893   0.64003   0.13906   0.00000  Uiso   1.00
H188   H     0.26885   0.59908   0.17373   0.00000  Uiso   1.00
C189   C     0.07735   0.37948   0.18921   0.00000  Uiso   1.00
H190   H     0.08744   0.39762   0.22210   0.00000  Uiso   1.00
H191   H     0.06448   0.40092   0.15960   0.00000  Uiso   1.00
H192   H     0.04440   0.35997   0.19427   0.00000  Uiso   1.00
C193   C     0.49982   0.42087   0.16661   0.00000  Uiso   1.00
C194   C     0.50018   0.57913   0.16672   0.00000  Uiso   1.00
C195   C     0.40150   0.49984   0.15474   0.00000  Uiso   1.00
C196   C     0.59850   0.50016   0.17859   0.00000  Uiso   1.00
C197   C     0.34686   0.49682   0.14830   0.00000  Uiso   1.00
C198   C     0.65314   0.50318   0.18503   0.00000  Uiso   1.00
C199   C     0.54263   0.35484   0.15489   0.00000  Uiso   1.00
C200   C     0.45737   0.64516   0.17845   0.00000  Uiso   1.00
C201   C     0.54323   0.64485   0.15507   0.00000  Uiso   1.00
C202   C     0.45678   0.35515   0.17826   0.00000  Uiso   1.00
C203   C     0.50026   0.62382   0.16674   0.00000  Uiso   1.00
C204   C     0.49974   0.37618   0.16660   0.00000  Uiso   1.00
C205   C     0.46753   0.47523   0.02061   0.00000  Uiso   1.00
C206   C     0.53247   0.52477   0.31273   0.00000  Uiso   1.00
C207   C     0.46759   0.47520   0.30434   0.00000  Uiso   1.00
C208   C     0.53241   0.52480   0.02899   0.00000  Uiso   1.00
Cu209  Cu    0.50000   0.50001   0.21355   0.00000  Uiso   1.00
Cu210  Cu    0.50000   0.49999   0.11978   0.00000  Uiso   1.00
H211   H     0.44151   0.45538   0.03593   0.00000  Uiso   1.00
H212   H     0.55849   0.54462   0.29740   0.00000  Uiso   1.00
H213   H     0.44159   0.45537   0.28231   0.00000  Uiso   1.00
H214   H     0.55842   0.54463   0.05103   0.00000  Uiso   1.00
N215   N     0.50001   0.50001   0.28403   0.00000  Uiso   1.00
N216   N     0.49999   0.49999   0.04931   0.00000  Uiso   1.00
O217   O     0.50000   0.43989   0.20625   0.00000  Uiso   1.00
O218   O     0.50000   0.56011   0.12709   0.00000  Uiso   1.00
O219   O     0.50000   0.43988   0.12706   0.00000  Uiso   1.00
O220   O     0.50000   0.56012   0.20628   0.00000  Uiso   1.00
O221   O     0.42495   0.50000   0.19712   0.00000  Uiso   1.00
O222   O     0.57505   0.50000   0.13621   0.00000  Uiso   1.00
O223   O     0.42494   0.49999   0.11793   0.00000  Uiso   1.00
O224   O     0.57506   0.50001   0.21540   0.00000  Uiso   1.00
C225   C     0.65763   0.48419   0.10111   0.00000  Uiso   1.00
N226   N     0.64013   0.47407   0.06349   0.00000  Uiso   1.00
C227   C     0.34237   0.51581   0.23223   0.00000  Uiso   1.00
N228   N     0.35987   0.52593   0.26984   0.00000  Uiso   1.00
C229   C     0.58614   0.37773   0.14346   0.00000  Uiso   1.00
N230   N     0.62084   0.39596   0.13433   0.00000  Uiso   1.00
C231   C     0.41386   0.62227   0.18988   0.00000  Uiso   1.00
N232   N     0.37916   0.60404   0.19901   0.00000  Uiso   1.00
C233   C     0.58932   0.62052   0.14413   0.00000  Uiso   1.00
H234   H     0.57922   0.60237   0.11123   0.00000  Uiso   1.00
H235   H     0.62226   0.64003   0.13906   0.00000  Uiso   1.00
H236   H     0.60219   0.59908   0.17373   0.00000  Uiso   1.00
C237   C     0.41068   0.37948   0.18921   0.00000  Uiso   1.00
H238   H     0.42078   0.39762   0.22210   0.00000  Uiso   1.00
H239   H     0.39781   0.40092   0.15960   0.00000  Uiso   1.00
H240   H     0.37774   0.35997   0.19427   0.00000  Uiso   1.00
C241   C     0.83315   0.42087   0.16661   0.00000  Uiso   1.00
C242   C     0.83351   0.57913   0.16672   0.00000  Uiso   1.00
C243   C     0.73483   0.49984   0.15474   0.00000  Uiso   1.00
C244   C     0.93183   0.50016   0.17859   0.00000  Uiso   1.00
C245   C     0.68020   0.49682   0.14830   0.00000  Uiso   1.00
C246   C     0.98647   0.50318   0.18503   0.00000  Uiso   1.00
C247   C     0.87597   0.35484   0.15489   0.00000  Uiso   1.00
C248   C     0.79070   0.64516   0.17845   0.00000  Uiso   1.00
C249   C     0.87656   0.64485   0.15507   0.00000  Uiso   1.00
C250   C     0.79011   0.35515   0.17826   0.00000  Uiso   1.00
C251   C     0.83360   0.62382   0.16674   0.00000  Uiso   1.00
C252   C     0.83307   0.37618   0.16660   0.00000  Uiso   1.00
C253   C     0.80086   0.47523   0.02061   0.00000  Uiso   1.00
C254   C     0.86580   0.52477   0.31273   0.00000  Uiso   1.00
C255   C     0.80093   0.47520   0.30434   0.00000  Uiso   1.00
C256   C     0.86574   0.52480   0.02899   0.00000  Uiso   1.00
Cu257  Cu    0.83333   0.50001   0.21355   0.00000  Uiso   1.00
Cu258  Cu    0.83333   0.49999   0.11978   0.00000  Uiso   1.00
H259   H     0.77485   0.45538   0.03593   0.00000  Uiso   1.00
H260   H     0.89182   0.54462   0.29740   0.00000  Uiso   1.00
H261   H     0.77492   0.45537   0.28231   0.00000  Uiso   1.00
H262   H     0.89175   0.54463   0.05103   0.00000  Uiso   1.00
N263   N     0.83335   0.50001   0.28403   0.00000  Uiso   1.00
N264   N     0.83332   0.49999   0.04931   0.00000  Uiso   1.00
O265   O     0.83333   0.43989   0.20625   0.00000  Uiso   1.00
O266   O     0.83334   0.56011   0.12709   0.00000  Uiso   1.00
O267   O     0.83333   0.43988   0.12706   0.00000  Uiso   1.00
O268   O     0.83334   0.56012   0.20628   0.00000  Uiso   1.00
O269   O     0.75828   0.50000   0.19712   0.00000  Uiso   1.00
O270   O     0.90839   0.50000   0.13621   0.00000  Uiso   1.00
O271   O     0.75828   0.49999   0.11793   0.00000  Uiso   1.00
O272   O     0.90839   0.50001   0.21540   0.00000  Uiso   1.00
C273   C     0.99097   0.48419   0.10111   0.00000  Uiso   1.00
N274   N     0.97346   0.47407   0.06349   0.00000  Uiso   1.00
C275   C     0.67570   0.51581   0.23223   0.00000  Uiso   1.00
N276   N     0.69320   0.52593   0.26984   0.00000  Uiso   1.00
C277   C     0.91947   0.37773   0.14346   0.00000  Uiso   1.00
N278   N     0.95417   0.39596   0.13433   0.00000  Uiso   1.00
C279   C     0.74720   0.62227   0.18988   0.00000  Uiso   1.00
N280   N     0.71250   0.60404   0.19901   0.00000  Uiso   1.00
C281   C     0.92265   0.62052   0.14413   0.00000  Uiso   1.00
H282   H     0.91256   0.60237   0.11123   0.00000  Uiso   1.00
H283   H     0.95560   0.64003   0.13906   0.00000  Uiso   1.00
H284   H     0.93552   0.59908   0.17373   0.00000  Uiso   1.00
C285   C     0.74402   0.37948   0.18921   0.00000  Uiso   1.00
H286   H     0.75411   0.39762   0.22210   0.00000  Uiso   1.00
H287   H     0.73115   0.40092   0.15960   0.00000  Uiso   1.00
H288   H     0.71107   0.35997   0.19427   0.00000  Uiso   1.00
C289   C     0.16649   0.75420   0.16661   0.00000  Uiso   1.00
C290   C     0.16685   0.91246   0.16672   0.00000  Uiso   1.00
C291   C     0.06817   0.83317   0.15474   0.00000  Uiso   1.00
C292   C     0.26517   0.83350   0.17859   0.00000  Uiso   1.00
C293   C     0.01353   0.83016   0.14830   0.00000  Uiso   1.00
C294   C     0.31980   0.83651   0.18503   0.00000  Uiso   1.00
C295   C     0.20930   0.68817   0.15489   0.00000  Uiso   1.00
C296   C     0.12404   0.97850   0.17845   0.00000  Uiso   1.00
C297   C     0.20989   0.97818   0.15507   0.00000  Uiso   1.00
C298   C     0.12344   0.68848   0.17826   0.00000  Uiso   1.00
C299   C     0.16693   0.95716   0.16674   0.00000  Uiso   1.00
C300   C     0.16640   0.70951   0.16660   0.00000  Uiso   1.00
C301   C     0.13420   0.80856   0.02061   0.00000  Uiso   1.00
C302   C     0.19914   0.85811   0.31273   0.00000  Uiso   1.00
C303   C     0.13426   0.80854   0.30434   0.00000  Uiso   1.00
C304   C     0.19908   0.85813   0.02899   0.00000  Uiso   1.00
Cu305  Cu    0.16667   0.83334   0.21355   0.00000  Uiso   1.00
Cu306  Cu    0.16667   0.83333   0.11978   0.00000  Uiso   1.00
H307   H     0.10818   0.78871   0.03593   0.00000  Uiso   1.00
H308   H     0.22515   0.87795   0.29740   0.00000  Uiso   1.00
H309   H     0.10825   0.78870   0.28231   0.00000  Uiso   1.00
H310   H     0.22508   0.87796   0.05103   0.00000  Uiso   1.00
N311   N     0.16668   0.83334   0.28403   0.00000  Uiso   1.00
N312   N     0.16665   0.83332   0.04931   0.00000  Uiso   1.00
O313   O     0.16666   0.77322   0.20625   0.00000  Uiso   1.00
O314   O     0.16667   0.89345   0.12709   0.00000  Uiso   1.00
O315   O     0.16666   0.77321   0.12706   0.00000  Uiso   1.00
O316   O     0.16667   0.89346   0.20628   0.00000  Uiso   1.00
O317   O     0.09161   0.83334   0.19712   0.00000  Uiso   1.00
O318   O     0.24172   0.83333   0.13621   0.00000  Uiso   1.00
O319   O     0.09161   0.83333   0.11793   0.00000  Uiso   1.00
O320   O     0.24172   0.83334   0.21540   0.00000  Uiso   1.00
C321   C     0.32430   0.81752   0.10111   0.00000  Uiso   1.00
N322   N     0.30680   0.80741   0.06349   0.00000  Uiso   1.00
C323   C     0.00903   0.84914   0.23223   0.00000  Uiso   1.00
N324   N     0.02654   0.85926   0.26984   0.00000  Uiso   1.00
C325   C     0.25281   0.71107   0.14346   0.00000  Uiso   1.00
N326   N     0.28751   0.72930   0.13433   0.00000  Uiso   1.00
C327   C     0.08053   0.95560   0.18988   0.00000  Uiso   1.00
N328   N     0.04583   0.93737   0.19901   0.00000  Uiso   1.00
C329   C     0.25598   0.95385   0.14413   0.00000  Uiso   1.00
H330   H     0.24589   0.93571   0.11123   0.00000  Uiso   1.00
H331   H     0.28893   0.97337   0.13906   0.00000  Uiso   1.00
H332   H     0.26885   0.93242   0.17373   0.00000  Uiso   1.00
C333   C     0.07735   0.71281   0.18921   0.00000  Uiso   1.00
H334   H     0.08744   0.73096   0.22210   0.00000  Uiso   1.00
H335   H     0.06448   0.73425   0.15960   0.00000  Uiso   1.00
H336   H     0.04440   0.69330   0.19427   0.00000  Uiso   1.00
C337   C     0.49982   0.75420   0.16661   0.00000  Uiso   1.00
C338   C     0.50018   0.91246   0.16672   0.00000  Uiso   1.00
C339   C     0.40150   0.83317   0.15474   0.00000  Uiso   1.00
C340   C     0.59850   0.83350   0.17859   0.00000  Uiso   1.00
C341   C     0.34686   0.83016   0.14830   0.00000  Uiso   1.00
C342   C     0.65314   0.83651   0.18503   0.00000  Uiso   1.00
C343   C     0.54263   0.68817   0.15489   0.00000  Uiso   1.00
C344   C     0.45737   0.97850   0.17845   0.00000  Uiso   1.00
C345   C     0.54323   0.97818   0.15507   0.00000  Uiso   1.00
C346   C     0.45678   0.68848   0.17826   0.00000  Uiso   1.00
C347   C     0.50026   0.95716   0.16674   0.00000  Uiso   1.00
C348   C     0.49974   0.70951   0.16660   0.00000  Uiso   1.00
C349   C     0.46753   0.80856   0.02061   0.00000  Uiso   1.00
C350   C     0.53247   0.85811   0.31273   0.00000  Uiso   1.00
C351   C     0.46759   0.80854   0.30434   0.00000  Uiso   1.00
C352   C     0.53241   0.85813   0.02899   0.00000  Uiso   1.00
Cu353  Cu    0.50000   0.83334   0.21355   0.00000  Uiso   1.00
Cu354  Cu    0.50000   0.83333   0.11978   0.00000  Uiso   1.00
H355   H     0.44151   0.78871   0.03593   0.00000  Uiso   1.00
H356   H     0.55849   0.87795   0.29740   0.00000  Uiso   1.00
H357   H     0.44159   0.78870   0.28231   0.00000  Uiso   1.00
H358   H     0.55842   0.87796   0.05103   0.00000  Uiso   1.00
N359   N     0.50001   0.83334   0.28403   0.00000  Uiso   1.00
N360   N     0.49999   0.83332   0.04931   0.00000  Uiso   1.00
O361   O     0.50000   0.77322   0.20625   0.00000  Uiso   1.00
O362   O     0.50000   0.89345   0.12709   0.00000  Uiso   1.00
O363   O     0.50000   0.77321   0.12706   0.00000  Uiso   1.00
O364   O     0.50000   0.89346   0.20628   0.00000  Uiso   1.00
O365   O     0.42495   0.83334   0.19712   0.00000  Uiso   1.00
O366   O     0.57505   0.83333   0.13621   0.00000  Uiso   1.00
O367   O     0.42494   0.83333   0.11793   0.00000  Uiso   1.00
O368   O     0.57506   0.83334   0.21540   0.00000  Uiso   1.00
C369   C     0.65763   0.81752   0.10111   0.00000  Uiso   1.00
N370   N     0.64013   0.80741   0.06349   0.00000  Uiso   1.00
C371   C     0.34237   0.84914   0.23223   0.00000  Uiso   1.00
N372   N     0.35987   0.85926   0.26984   0.00000  Uiso   1.00
C373   C     0.58614   0.71107   0.14346   0.00000  Uiso   1.00
N374   N     0.62084   0.72930   0.13433   0.00000  Uiso   1.00
C375   C     0.41386   0.95560   0.18988   0.00000  Uiso   1.00
N376   N     0.37916   0.93737   0.19901   0.00000  Uiso   1.00
C377   C     0.58932   0.95385   0.14413   0.00000  Uiso   1.00
H378   H     0.57922   0.93571   0.11123   0.00000  Uiso   1.00
H379   H     0.62226   0.97337   0.13906   0.00000  Uiso   1.00
H380   H     0.60219   0.93242   0.17373   0.00000  Uiso   1.00
C381   C     0.41068   0.71281   0.18921   0.00000  Uiso   1.00
H382   H     0.42078   0.73096   0.22210   0.00000  Uiso   1.00
H383   H     0.39781   0.73425   0.15960   0.00000  Uiso   1.00
H384   H     0.37774   0.69330   0.19427   0.00000  Uiso   1.00
C385   C     0.83315   0.75420   0.16661   0.00000  Uiso   1.00
C386   C     0.83351   0.91246   0.16672   0.00000  Uiso   1.00
C387   C     0.73483   0.83317   0.15474   0.00000  Uiso   1.00
C388   C     0.93183   0.83350   0.17859   0.00000  Uiso   1.00
C389   C     0.68020   0.83016   0.14830   0.00000  Uiso   1.00
C390   C     0.98647   0.83651   0.18503   0.00000  Uiso   1.00
C391   C     0.87597   0.68817   0.15489   0.00000  Uiso   1.00
C392   C     0.79070   0.97850   0.17845   0.00000  Uiso   1.00
C393   C     0.87656   0.97818   0.15507   0.00000  Uiso   1.00
C394   C     0.79011   0.68848   0.17826   0.00000  Uiso   1.00
C395   C     0.83360   0.95716   0.16674   0.00000  Uiso   1.00
C396   C     0.83307   0.70951   0.16660   0.00000  Uiso   1.00
C397   C     0.80086   0.80856   0.02061   0.00000  Uiso   1.00
C398   C     0.86580   0.85811   0.31273   0.00000  Uiso   1.00
C399   C     0.80093   0.80854   0.30434   0.00000  Uiso   1.00
C400   C     0.86574   0.85813   0.02899   0.00000  Uiso   1.00
Cu401  Cu    0.83333   0.83334   0.21355   0.00000  Uiso   1.00
Cu402  Cu    0.83333   0.83333   0.11978   0.00000  Uiso   1.00
H403   H     0.77485   0.78871   0.03593   0.00000  Uiso   1.00
H404   H     0.89182   0.87795   0.29740   0.00000  Uiso   1.00
H405   H     0.77492   0.78870   0.28231   0.00000  Uiso   1.00
H406   H     0.89175   0.87796   0.05103   0.00000  Uiso   1.00
N407   N     0.83335   0.83334   0.28403   0.00000  Uiso   1.00
N408   N     0.83332   0.83332   0.04931   0.00000  Uiso   1.00
O409   O     0.83333   0.77322   0.20625   0.00000  Uiso   1.00
O410   O     0.83334   0.89345   0.12709   0.00000  Uiso   1.00
O411   O     0.83333   0.77321   0.12706   0.00000  Uiso   1.00
O412   O     0.83334   0.89346   0.20628   0.00000  Uiso   1.00
O413   O     0.75828   0.83334   0.19712   0.00000  Uiso   1.00
O414   O     0.90839   0.83333   0.13621   0.00000  Uiso   1.00
O415   O     0.75828   0.83333   0.11793   0.00000  Uiso   1.00
O416   O     0.90839   0.83334   0.21540   0.00000  Uiso   1.00
C417   C     0.99097   0.81752   0.10111   0.00000  Uiso   1.00
N418   N     0.97346   0.80741   0.06349   0.00000  Uiso   1.00
C419   C     0.67570   0.84914   0.23223   0.00000  Uiso   1.00
N420   N     0.69320   0.85926   0.26984   0.00000  Uiso   1.00
C421   C     0.91947   0.71107   0.14346   0.00000  Uiso   1.00
N422   N     0.95417   0.72930   0.13433   0.00000  Uiso   1.00
C423   C     0.74720   0.95560   0.18988   0.00000  Uiso   1.00
N424   N     0.71250   0.93737   0.19901   0.00000  Uiso   1.00
C425   C     0.92265   0.95385   0.14413   0.00000  Uiso   1.00
H426   H     0.91256   0.93571   0.11123   0.00000  Uiso   1.00
H427   H     0.95560   0.97337   0.13906   0.00000  Uiso   1.00
H428   H     0.93552   0.93242   0.17373   0.00000  Uiso   1.00
C429   C     0.74402   0.71281   0.18921   0.00000  Uiso   1.00
H430   H     0.75411   0.73096   0.22210   0.00000  Uiso   1.00
H431   H     0.73115   0.73425   0.15960   0.00000  Uiso   1.00
H432   H     0.71107   0.69330   0.19427   0.00000  Uiso   1.00
C433   C     0.16649   0.08754   0.49995   0.00000  Uiso   1.00
C434   C     0.16685   0.24580   0.50005   0.00000  Uiso   1.00
C435   C     0.06817   0.16650   0.48807   0.00000  Uiso   1.00
C436   C     0.26517   0.16683   0.51193   0.00000  Uiso   1.00
C437   C     0.01353   0.16349   0.48164   0.00000  Uiso   1.00
C438   C     0.31980   0.16984   0.51836   0.00000  Uiso   1.00
C439   C     0.20930   0.02150   0.48822   0.00000  Uiso   1.00
C440   C     0.12404   0.31183   0.51178   0.00000  Uiso   1.00
C441   C     0.20989   0.31152   0.48840   0.00000  Uiso   1.00
C442   C     0.12344   0.02182   0.51160   0.00000  Uiso   1.00
C443   C     0.16693   0.29049   0.50007   0.00000  Uiso   1.00
C444   C     0.16640   0.04284   0.49993   0.00000  Uiso   1.00
C445   C     0.13420   0.14189   0.35394   0.00000  Uiso   1.00
C446   C     0.19914   0.19144   0.64606   0.00000  Uiso   1.00
C447   C     0.13426   0.14187   0.63768   0.00000  Uiso   1.00
C448   C     0.19908   0.19146   0.36232   0.00000  Uiso   1.00
Cu449  Cu    0.16667   0.16667   0.54689   0.00000  Uiso   1.00
Cu450  Cu    0.16667   0.16666   0.45311   0.00000  Uiso   1.00
H451   H     0.10818   0.12205   0.36927   0.00000  Uiso   1.00
H452   H     0.22515   0.21129   0.63073   0.00000  Uiso   1.00
H453   H     0.10825   0.12204   0.61564   0.00000  Uiso   1.00
H454   H     0.22508   0.21130   0.38436   0.00000  Uiso   1.00
N455   N     0.16668   0.16668   0.61736   0.00000  Uiso   1.00
N456   N     0.16665   0.16666   0.38264   0.00000  Uiso   1.00
O457   O     0.16666   0.10655   0.53958   0.00000  Uiso   1.00
O458   O     0.16667   0.22678   0.46042   0.00000  Uiso   1.00
O459   O     0.16666   0.10654   0.46039   0.00000  Uiso   1.00
O460   O     0.16667   0.22679   0.53961   0.00000  Uiso   1.00
O461   O     0.09161   0.16667   0.53046   0.00000  Uiso   1.00
O462   O     0.24172   0.16666   0.46954   0.00000  Uiso   1.00
O463   O     0.09161   0.16666   0.45127   0.00000  Uiso   1.00
O464   O     0.24172   0.16667   0.54873   0.00000  Uiso   1.00
C465   C     0.32430   0.15086   0.43444   0.00000  Uiso   1.00
N466   N     0.30680   0.14074   0.39683   0.00000  Uiso   1.00
C467   C     0.00903   0.18248   0.56556   0.00000  Uiso   1.00
N468   N     0.02654   0.19259   0.60317   0.00000  Uiso   1.00
C469   C     0.25281   0.04440   0.47679   0.00000  Uiso   1.00
N470   N     0.28751   0.06263   0.46766   0.00000  Uiso   1.00
C471   C     0.08053   0.28893   0.52321   0.00000  Uiso   1.00
N472   N     0.04583   0.27070   0.53235   0.00000  Uiso   1.00
C473   C     0.25598   0.28719   0.47746   0.00000  Uiso   1.00
H474   H     0.24589   0.26904   0.44457   0.00000  Uiso   1.00
H475   H     0.28893   0.30670   0.47239   0.00000  Uiso   1.00
H476   H     0.26885   0.26575   0.50707   0.00000  Uiso   1.00
C477   C     0.07735   0.04615   0.52254   0.00000  Uiso   1.00
H478   H     0.08744   0.06429   0.55544   0.00000  Uiso   1.00
H479   H     0.06448   0.06758   0.49294   0.00000  Uiso   1.00
H480   H     0.04440   0.02663   0.52761   0.00000  Uiso   1.00
C481   C     0.49982   0.08754   0.49995   0.00000  Uiso   1.00
C482   C     0.50018   0.24580   0.50005   0.00000  Uiso   1.00
C483   C     0.40150   0.16650   0.48807   0.00000  Uiso   1.00
C484   C     0.59850   0.16683   0.51193   0.00000  Uiso   1.00
C485   C     0.34686   0.16349   0.48164   0.00000  Uiso   1.00
C486   C     0.65314   0.16984   0.51836   0.00000  Uiso   1.00
C487   C     0.54263   0.02150   0.48822   0.00000  Uiso   1.00
C488   C     0.45737   0.31183   0.51178   0.00000  Uiso   1.00
C489   C     0.54323   0.31152   0.48840   0.00000  Uiso   1.00
C490   C     0.45678   0.02182   0.51160   0.00000  Uiso   1.00
C491   C     0.50026   0.29049   0.50007   0.00000  Uiso   1.00
C492   C     0.49974   0.04284   0.49993   0.00000  Uiso   1.00
C493   C     0.46753   0.14189   0.35394   0.00000  Uiso   1.00
C494   C     0.53247   0.19144   0.64606   0.00000  Uiso   1.00
C495   C     0.46759   0.14187   0.63768   0.00000  Uiso   1.00
C496   C     0.53241   0.19146   0.36232   0.00000  Uiso   1.00
Cu497  Cu    0.50000   0.16667   0.54689   0.00000  Uiso   1.00
Cu498  Cu    0.50000   0.16666   0.45311   0.00000  Uiso   1.00
H499   H     0.44151   0.12205   0.36927   0.00000  Uiso   1.00
H500   H     0.55849   0.21129   0.63073   0.00000  Uiso   1.00
H501   H     0.44159   0.12204   0.61564   0.00000  Uiso   1.00
H502   H     0.55842   0.21130   0.38436   0.00000  Uiso   1.00
N503   N     0.50001   0.16668   0.61736   0.00000  Uiso   1.00
N504   N     0.49999   0.16666   0.38264   0.00000  Uiso   1.00
O505   O     0.50000   0.10655   0.53958   0.00000  Uiso   1.00
O506   O     0.50000   0.22678   0.46042   0.00000  Uiso   1.00
O507   O     0.50000   0.10654   0.46039   0.00000  Uiso   1.00
O508   O     0.50000   0.22679   0.53961   0.00000  Uiso   1.00
O509   O     0.42495   0.16667   0.53046   0.00000  Uiso   1.00
O510   O     0.57505   0.16666   0.46954   0.00000  Uiso   1.00
O511   O     0.42494   0.16666   0.45127   0.00000  Uiso   1.00
O512   O     0.57506   0.16667   0.54873   0.00000  Uiso   1.00
C513   C     0.65763   0.15086   0.43444   0.00000  Uiso   1.00
N514   N     0.64013   0.14074   0.39683   0.00000  Uiso   1.00
C515   C     0.34237   0.18248   0.56556   0.00000  Uiso   1.00
N516   N     0.35987   0.19259   0.60317   0.00000  Uiso   1.00
C517   C     0.58614   0.04440   0.47679   0.00000  Uiso   1.00
N518   N     0.62084   0.06263   0.46766   0.00000  Uiso   1.00
C519   C     0.41386   0.28893   0.52321   0.00000  Uiso   1.00
N520   N     0.37916   0.27070   0.53235   0.00000  Uiso   1.00
C521   C     0.58932   0.28719   0.47746   0.00000  Uiso   1.00
H522   H     0.57922   0.26904   0.44457   0.00000  Uiso   1.00
H523   H     0.62226   0.30670   0.47239   0.00000  Uiso   1.00
H524   H     0.60219   0.26575   0.50707   0.00000  Uiso   1.00
C525   C     0.41068   0.04615   0.52254   0.00000  Uiso   1.00
H526   H     0.42078   0.06429   0.55544   0.00000  Uiso   1.00
H527   H     0.39781   0.06758   0.49294   0.00000  Uiso   1.00
H528   H     0.37774   0.02663   0.52761   0.00000  Uiso   1.00
C529   C     0.83315   0.08754   0.49995   0.00000  Uiso   1.00
C530   C     0.83351   0.24580   0.50005   0.00000  Uiso   1.00
C531   C     0.73483   0.16650   0.48807   0.00000  Uiso   1.00
C532   C     0.93183   0.16683   0.51193   0.00000  Uiso   1.00
C533   C     0.68020   0.16349   0.48164   0.00000  Uiso   1.00
C534   C     0.98647   0.16984   0.51836   0.00000  Uiso   1.00
C535   C     0.87597   0.02150   0.48822   0.00000  Uiso   1.00
C536   C     0.79070   0.31183   0.51178   0.00000  Uiso   1.00
C537   C     0.87656   0.31152   0.48840   0.00000  Uiso   1.00
C538   C     0.79011   0.02182   0.51160   0.00000  Uiso   1.00
C539   C     0.83360   0.29049   0.50007   0.00000  Uiso   1.00
C540   C     0.83307   0.04284   0.49993   0.00000  Uiso   1.00
C541   C     0.80086   0.14189   0.35394   0.00000  Uiso   1.00
C542   C     0.86580   0.19144   0.64606   0.00000  Uiso   1.00
C543   C     0.80093   0.14187   0.63768   0.00000  Uiso   1.00
C544   C     0.86574   0.19146   0.36232   0.00000  Uiso   1.00
Cu545  Cu    0.83333   0.16667   0.54689   0.00000  Uiso   1.00
Cu546  Cu    0.83333   0.16666   0.45311   0.00000  Uiso   1.00
H547   H     0.77485   0.12205   0.36927   0.00000  Uiso   1.00
H548   H     0.89182   0.21129   0.63073   0.00000  Uiso   1.00
H549   H     0.77492   0.12204   0.61564   0.00000  Uiso   1.00
H550   H     0.89175   0.21130   0.38436   0.00000  Uiso   1.00
N551   N     0.83335   0.16668   0.61736   0.00000  Uiso   1.00
N552   N     0.83332   0.16666   0.38264   0.00000  Uiso   1.00
O553   O     0.83333   0.10655   0.53958   0.00000  Uiso   1.00
O554   O     0.83334   0.22678   0.46042   0.00000  Uiso   1.00
O555   O     0.83333   0.10654   0.46039   0.00000  Uiso   1.00
O556   O     0.83334   0.22679   0.53961   0.00000  Uiso   1.00
O557   O     0.75828   0.16667   0.53046   0.00000  Uiso   1.00
O558   O     0.90839   0.16666   0.46954   0.00000  Uiso   1.00
O559   O     0.75828   0.16666   0.45127   0.00000  Uiso   1.00
O560   O     0.90839   0.16667   0.54873   0.00000  Uiso   1.00
C561   C     0.99097   0.15086   0.43444   0.00000  Uiso   1.00
N562   N     0.97346   0.14074   0.39683   0.00000  Uiso   1.00
C563   C     0.67570   0.18248   0.56556   0.00000  Uiso   1.00
N564   N     0.69320   0.19259   0.60317   0.00000  Uiso   1.00
C565   C     0.91947   0.04440   0.47679   0.00000  Uiso   1.00
N566   N     0.95417   0.06263   0.46766   0.00000  Uiso   1.00
C567   C     0.74720   0.28893   0.52321   0.00000  Uiso   1.00
N568   N     0.71250   0.27070   0.53235   0.00000  Uiso   1.00
C569   C     0.92265   0.28719   0.47746   0.00000  Uiso   1.00
H570   H     0.91256   0.26904   0.44457   0.00000  Uiso   1.00
H571   H     0.95560   0.30670   0.47239   0.00000  Uiso   1.00
H572   H     0.93552   0.26575   0.50707   0.00000  Uiso   1.00
C573   C     0.74402   0.04615   0.52254   0.00000  Uiso   1.00
H574   H     0.75411   0.06429   0.55544   0.00000  Uiso   1.00
H575   H     0.73115   0.06758   0.49294   0.00000  Uiso   1.00
H576   H     0.71107   0.02663   0.52761   0.00000  Uiso   1.00
C577   C     0.16649   0.42087   0.49995   0.00000  Uiso   1.00
C578   C     0.16685   0.57913   0.50005   0.00000  Uiso   1.00
C579   C     0.06817   0.49984   0.48807   0.00000  Uiso   1.00
C580   C     0.26517   0.50016   0.51193   0.00000  Uiso   1.00
C581   C     0.01353   0.49682   0.48164   0.00000  Uiso   1.00
C582   C     0.31980   0.50318   0.51836   0.00000  Uiso   1.00
C583   C     0.20930   0.35484   0.48822   0.00000  Uiso   1.00
C584   C     0.12404   0.64516   0.51178   0.00000  Uiso   1.00
C585   C     0.20989   0.64485   0.48840   0.00000  Uiso   1.00
C586   C     0.12344   0.35515   0.51160   0.00000  Uiso   1.00
C587   C     0.16693   0.62382   0.50007   0.00000  Uiso   1.00
C588   C     0.16640   0.37618   0.49993   0.00000  Uiso   1.00
C589   C     0.13420   0.47523   0.35394   0.00000  Uiso   1.00
C590   C     0.19914   0.52477   0.64606   0.00000  Uiso   1.00
C591   C     0.13426   0.47520   0.63768   0.00000  Uiso   1.00
C592   C     0.19908   0.52480   0.36232   0.00000  Uiso   1.00
Cu593  Cu    0.16667   0.50001   0.54689   0.00000  Uiso   1.00
Cu594  Cu    0.16667   0.49999   0.45311   0.00000  Uiso   1.00
H595   H     0.10818   0.45538   0.36927   0.00000  Uiso   1.00
H596   H     0.22515   0.54462   0.63073   0.00000  Uiso   1.00
H597   H     0.10825   0.45537   0.61564   0.00000  Uiso   1.00
H598   H     0.22508   0.54463   0.38436   0.00000  Uiso   1.00
N599   N     0.16668   0.50001   0.61736   0.00000  Uiso   1.00
N600   N     0.16665   0.49999   0.38264   0.00000  Uiso   1.00
O601   O     0.16666   0.43989   0.53958   0.00000  Uiso   1.00
O602   O     0.16667   0.56011   0.46042   0.00000  Uiso   1.00
O603   O     0.16666   0.43988   0.46039   0.00000  Uiso   1.00
O604   O     0.16667   0.56012   0.53961   0.00000  Uiso   1.00
O605   O     0.09161   0.50000   0.53046   0.00000  Uiso   1.00
O606   O     0.24172   0.50000   0.46954   0.00000  Uiso   1.00
O607   O     0.09161   0.49999   0.45127   0.00000  Uiso   1.00
O608   O     0.24172   0.50001   0.54873   0.00000  Uiso   1.00
C609   C     0.32430   0.48419   0.43444   0.00000  Uiso   1.00
N610   N     0.30680   0.47407   0.39683   0.00000  Uiso   1.00
C611   C     0.00903   0.51581   0.56556   0.00000  Uiso   1.00
N612   N     0.02654   0.52593   0.60317   0.00000  Uiso   1.00
C613   C     0.25281   0.37773   0.47679   0.00000  Uiso   1.00
N614   N     0.28751   0.39596   0.46766   0.00000  Uiso   1.00
C615   C     0.08053   0.62227   0.52321   0.00000  Uiso   1.00
N616   N     0.04583   0.60404   0.53235   0.00000  Uiso   1.00
C617   C     0.25598   0.62052   0.47746   0.00000  Uiso   1.00
H618   H     0.24589   0.60237   0.44457   0.00000  Uiso   1.00
H619   H     0.28893   0.64003   0.47239   0.00000  Uiso   1.00
H620   H     0.26885   0.59908   0.50707   0.00000  Uiso   1.00
C621   C     0.07735   0.37948   0.52254   0.00000  Uiso   1.00
H622   H     0.08744   0.39762   0.55544   0.00000  Uiso   1.00
H623   H     0.06448   0.40092   0.49294   0.00000  Uiso   1.00
H624   H     0.04440   0.35997   0.52761   0.00000  Uiso   1.00
C625   C     0.49982   0.42087   0.49995   0.00000  Uiso   1.00
C626   C     0.50018   0.57913   0.50005   0.00000  Uiso   1.00
C627   C     0.40150   0.49984   0.48807   0.00000  Uiso   1.00
C628   C     0.59850   0.50016   0.51193   0.00000  Uiso   1.00
C629   C     0.34686   0.49682   0.48164   0.00000  Uiso   1.00
C630   C     0.65314   0.50318   0.51836   0.00000  Uiso   1.00
C631   C     0.54263   0.35484   0.48822   0.00000  Uiso   1.00
C632   C     0.45737   0.64516   0.51178   0.00000  Uiso   1.00
C633   C     0.54323   0.64485   0.48840   0.00000  Uiso   1.00
C634   C     0.45678   0.35515   0.51160   0.00000  Uiso   1.00
C635   C     0.50026   0.62382   0.50007   0.00000  Uiso   1.00
C636   C     0.49974   0.37618   0.49993   0.00000  Uiso   1.00
C637   C     0.46753   0.47523   0.35394   0.00000  Uiso   1.00
C638   C     0.53247   0.52477   0.64606   0.00000  Uiso   1.00
C639   C     0.46759   0.47520   0.63768   0.00000  Uiso   1.00
C640   C     0.53241   0.52480   0.36232   0.00000  Uiso   1.00
Cu641  Cu    0.50000   0.50001   0.54689   0.00000  Uiso   1.00
Cu642  Cu    0.50000   0.49999   0.45311   0.00000  Uiso   1.00
H643   H     0.44151   0.45538   0.36927   0.00000  Uiso   1.00
H644   H     0.55849   0.54462   0.63073   0.00000  Uiso   1.00
H645   H     0.44159   0.45537   0.61564   0.00000  Uiso   1.00
H646   H     0.55842   0.54463   0.38436   0.00000  Uiso   1.00
N647   N     0.50001   0.50001   0.61736   0.00000  Uiso   1.00
N648   N     0.49999   0.49999   0.38264   0.00000  Uiso   1.00
O649   O     0.50000   0.43989   0.53958   0.00000  Uiso   1.00
O650   O     0.50000   0.56011   0.46042   0.00000  Uiso   1.00
O651   O     0.50000   0.43988   0.46039   0.00000  Uiso   1.00
O652   O     0.50000   0.56012   0.53961   0.00000  Uiso   1.00
O653   O     0.42495   0.50000   0.53046   0.00000  Uiso   1.00
O654   O     0.57505   0.50000   0.46954   0.00000  Uiso   1.00
O655   O     0.42494   0.49999   0.45127   0.00000  Uiso   1.00
O656   O     0.57506   0.50001   0.54873   0.00000  Uiso   1.00
C657   C     0.65763   0.48419   0.43444   0.00000  Uiso   1.00
N658   N     0.64013   0.47407   0.39683   0.00000  Uiso   1.00
C659   C     0.34237   0.51581   0.56556   0.00000  Uiso   1.00
N660   N     0.35987   0.52593   0.60317   0.00000  Uiso   1.00
C661   C     0.58614   0.37773   0.47679   0.00000  Uiso   1.00
N662   N     0.62084   0.39596   0.46766   0.00000  Uiso   1.00
C663   C     0.41386   0.62227   0.52321   0.00000  Uiso   1.00
N664   N     0.37916   0.60404   0.53235   0.00000  Uiso   1.00
C665   C     0.58932   0.62052   0.47746   0.00000  Uiso   1.00
H666   H     0.57922   0.60237   0.44457   0.00000  Uiso   1.00
H667   H     0.62226   0.64003   0.47239   0.00000  Uiso   1.00
H668   H     0.60219   0.59908   0.50707   0.00000  Uiso   1.00
C669   C     0.41068   0.37948   0.52254   0.00000  Uiso   1.00
H670   H     0.42078   0.39762   0.55544   0.00000  Uiso   1.00
H671   H     0.39781   0.40092   0.49294   0.00000  Uiso   1.00
H672   H     0.37774   0.35997   0.52761   0.00000  Uiso   1.00
C673   C     0.83315   0.42087   0.49995   0.00000  Uiso   1.00
C674   C     0.83351   0.57913   0.50005   0.00000  Uiso   1.00
C675   C     0.73483   0.49984   0.48807   0.00000  Uiso   1.00
C676   C     0.93183   0.50016   0.51193   0.00000  Uiso   1.00
C677   C     0.68020   0.49682   0.48164   0.00000  Uiso   1.00
C678   C     0.98647   0.50318   0.51836   0.00000  Uiso   1.00
C679   C     0.87597   0.35484   0.48822   0.00000  Uiso   1.00
C680   C     0.79070   0.64516   0.51178   0.00000  Uiso   1.00
C681   C     0.87656   0.64485   0.48840   0.00000  Uiso   1.00
C682   C     0.79011   0.35515   0.51160   0.00000  Uiso   1.00
C683   C     0.83360   0.62382   0.50007   0.00000  Uiso   1.00
C684   C     0.83307   0.37618   0.49993   0.00000  Uiso   1.00
C685   C     0.80086   0.47523   0.35394   0.00000  Uiso   1.00
C686   C     0.86580   0.52477   0.64606   0.00000  Uiso   1.00
C687   C     0.80093   0.47520   0.63768   0.00000  Uiso   1.00
C688   C     0.86574   0.52480   0.36232   0.00000  Uiso   1.00
Cu689  Cu    0.83333   0.50001   0.54689   0.00000  Uiso   1.00
Cu690  Cu    0.83333   0.49999   0.45311   0.00000  Uiso   1.00
H691   H     0.77485   0.45538   0.36927   0.00000  Uiso   1.00
H692   H     0.89182   0.54462   0.63073   0.00000  Uiso   1.00
H693   H     0.77492   0.45537   0.61564   0.00000  Uiso   1.00
H694   H     0.89175   0.54463   0.38436   0.00000  Uiso   1.00
N695   N     0.83335   0.50001   0.61736   0.00000  Uiso   1.00
N696   N     0.83332   0.49999   0.38264   0.00000  Uiso   1.00
O697   O     0.83333   0.43989   0.53958   0.00000  Uiso   1.00
O698   O     0.83334   0.56011   0.46042   0.00000  Uiso   1.00
O699   O     0.83333   0.43988   0.46039   0.00000  Uiso   1.00
O700   O     0.83334   0.56012   0.53961   0.00000  Uiso   1.00
O701   O     0.75828   0.50000   0.53046   0.00000  Uiso   1.00
O702   O     0.90839   0.50000   0.46954   0.00000  Uiso   1.00
O703   O     0.75828   0.49999   0.45127   0.00000  Uiso   1.00
O704   O     0.90839   0.50001   0.54873   0.00000  Uiso   1.00
C705   C     0.99097   0.48419   0.43444   0.00000  Uiso   1.00
N706   N     0.97346   0.47407   0.39683   0.00000  Uiso   1.00
C707   C     0.67570   0.51581   0.56556   0.00000  Uiso   1.00
N708   N     0.69320   0.52593   0.60317   0.00000  Uiso   1.00
C709   C     0.91947   0.37773   0.47679   0.00000  Uiso   1.00
N710   N     0.95417   0.39596   0.46766   0.00000  Uiso   1.00
C711   C     0.74720   0.62227   0.52321   0.00000  Uiso   1.00
N712   N     0.71250   0.60404   0.53235   0.00000  Uiso   1.00
C713   C     0.92265   0.62052   0.47746   0.00000  Uiso   1.00
H714   H     0.91256   0.60237   0.44457   0.00000  Uiso   1.00
H715   H     0.95560   0.64003   0.47239   0.00000  Uiso   1.00
H716   H     0.93552   0.59908   0.50707   0.00000  Uiso   1.00
C717   C     0.74402   0.37948   0.52254   0.00000  Uiso   1.00
H718   H     0.75411   0.39762   0.55544   0.00000  Uiso   1.00
H719   H     0.73115   0.40092   0.49294   0.00000  Uiso   1.00
H720   H     0.71107   0.35997   0.52761   0.00000  Uiso   1.00
C721   C     0.16649   0.75420   0.49995   0.00000  Uiso   1.00
C722   C     0.16685   0.91246   0.50005   0.00000  Uiso   1.00
C723   C     0.06817   0.83317   0.48807   0.00000  Uiso   1.00
C724   C     0.26517   0.83350   0.51193   0.00000  Uiso   1.00
C725   C     0.01353   0.83016   0.48164   0.00000  Uiso   1.00
C726   C     0.31980   0.83651   0.51836   0.00000  Uiso   1.00
C727   C     0.20930   0.68817   0.48822   0.00000  Uiso   1.00
C728   C     0.12404   0.97850   0.51178   0.00000  Uiso   1.00
C729   C     0.20989   0.97818   0.48840   0.00000  Uiso   1.00
C730   C     0.12344   0.68848   0.51160   0.00000  Uiso   1.00
C731   C     0.16693   0.95716   0.50007   0.00000  Uiso   1.00
C732   C     0.16640   0.70951   0.49993   0.00000  Uiso   1.00
C733   C     0.13420   0.80856   0.35394   0.00000  Uiso   1.00
C734   C     0.19914   0.85811   0.64606   0.00000  Uiso   1.00
C735   C     0.13426   0.80854   0.63768   0.00000  Uiso   1.00
C736   C     0.19908   0.85813   0.36232   0.00000  Uiso   1.00
Cu737  Cu    0.16667   0.83334   0.54689   0.00000  Uiso   1.00
Cu738  Cu    0.16667   0.83333   0.45311   0.00000  Uiso   1.00
H739   H     0.10818   0.78871   0.36927   0.00000  Uiso   1.00
H740   H     0.22515   0.87795   0.63073   0.00000  Uiso   1.00
H741   H     0.10825   0.78870   0.61564   0.00000  Uiso   1.00
H742   H     0.22508   0.87796   0.38436   0.00000  Uiso   1.00
N743   N     0.16668   0.83334   0.61736   0.00000  Uiso   1.00
N744   N     0.16665   0.83332   0.38264   0.00000  Uiso   1.00
O745   O     0.16666   0.77322   0.53958   0.00000  Uiso   1.00
O746   O     0.16667   0.89345   0.46042   0.00000  Uiso   1.00
O747   O     0.16666   0.77321   0.46039   0.00000  Uiso   1.00
O748   O     0.16667   0.89346   0.53961   0.00000  Uiso   1.00
O749   O     0.09161   0.83334   0.53046   0.00000  Uiso   1.00
O750   O     0.24172   0.83333   0.46954   0.00000  Uiso   1.00
O751   O     0.09161   0.83333   0.45127   0.00000  Uiso   1.00
O752   O     0.24172   0.83334   0.54873   0.00000  Uiso   1.00
C753   C     0.32430   0.81752   0.43444   0.00000  Uiso   1.00
N754   N     0.30680   0.80741   0.39683   0.00000  Uiso   1.00
C755   C     0.00903   0.84914   0.56556   0.00000  Uiso   1.00
N756   N     0.02654   0.85926   0.60317   0.00000  Uiso   1.00
C757   C     0.25281   0.71107   0.47679   0.00000  Uiso   1.00
N758   N     0.28751   0.72930   0.46766   0.00000  Uiso   1.00
C759   C     0.08053   0.95560   0.52321   0.00000  Uiso   1.00
N760   N     0.04583   0.93737   0.53235   0.00000  Uiso   1.00
C761   C     0.25598   0.95385   0.47746   0.00000  Uiso   1.00
H762   H     0.24589   0.93571   0.44457   0.00000  Uiso   1.00
H763   H     0.28893   0.97337   0.47239   0.00000  Uiso   1.00
H764   H     0.26885   0.93242   0.50707   0.00000  Uiso   1.00
C765   C     0.07735   0.71281   0.52254   0.00000  Uiso   1.00
H766   H     0.08744   0.73096   0.55544   0.00000  Uiso   1.00
H767   H     0.06448   0.73425   0.49294   0.00000  Uiso   1.00
H768   H     0.04440   0.69330   0.52761   0.00000  Uiso   1.00
C769   C     0.49982   0.75420   0.49995   0.00000  Uiso   1.00
C770   C     0.50018   0.91246   0.50005   0.00000  Uiso   1.00
C771   C     0.40150   0.83317   0.48807   0.00000  Uiso   1.00
C772   C     0.59850   0.83350   0.51193   0.00000  Uiso   1.00
C773   C     0.34686   0.83016   0.48164   0.00000  Uiso   1.00
C774   C     0.65314   0.83651   0.51836   0.00000  Uiso   1.00
C775   C     0.54263   0.68817   0.48822   0.00000  Uiso   1.00
C776   C     0.45737   0.97850   0.51178   0.00000  Uiso   1.00
C777   C     0.54323   0.97818   0.48840   0.00000  Uiso   1.00
C778   C     0.45678   0.68848   0.51160   0.00000  Uiso   1.00
C779   C     0.50026   0.95716   0.50007   0.00000  Uiso   1.00
C780   C     0.49974   0.70951   0.49993   0.00000  Uiso   1.00
C781   C     0.46753   0.80856   0.35394   0.00000  Uiso   1.00
C782   C     0.53247   0.85811   0.64606   0.00000  Uiso   1.00
C783   C     0.46759   0.80854   0.63768   0.00000  Uiso   1.00
C784   C     0.53241   0.85813   0.36232   0.00000  Uiso   1.00
Cu785  Cu    0.50000   0.83334   0.54689   0.00000  Uiso   1.00
Cu786  Cu    0.50000   0.83333   0.45311   0.00000  Uiso   1.00
H787   H     0.44151   0.78871   0.36927   0.00000  Uiso   1.00
H788   H     0.55849   0.87795   0.63073   0.00000  Uiso   1.00
H789   H     0.44159   0.78870   0.61564   0.00000  Uiso   1.00
H790   H     0.55842   0.87796   0.38436   0.00000  Uiso   1.00
N791   N     0.50001   0.83334   0.61736   0.00000  Uiso   1.00
N792   N     0.49999   0.83332   0.38264   0.00000  Uiso   1.00
O793   O     0.50000   0.77322   0.53958   0.00000  Uiso   1.00
O794   O     0.50000   0.89345   0.46042   0.00000  Uiso   1.00
O795   O     0.50000   0.77321   0.46039   0.00000  Uiso   1.00
O796   O     0.50000   0.89346   0.53961   0.00000  Uiso   1.00
O797   O     0.42495   0.83334   0.53046   0.00000  Uiso   1.00
O798   O     0.57505   0.83333   0.46954   0.00000  Uiso   1.00
O799   O     0.42494   0.83333   0.45127   0.00000  Uiso   1.00
O800   O     0.57506   0.83334   0.54873   0.00000  Uiso   1.00
C801   C     0.65763   0.81752   0.43444   0.00000  Uiso   1.00
N802   N     0.64013   0.80741   0.39683   0.00000  Uiso   1.00
C803   C     0.34237   0.84914   0.56556   0.00000  Uiso   1.00
N804   N     0.35987   0.85926   0.60317   0.00000  Uiso   1.00
C805   C     0.58614   0.71107   0.47679   0.00000  Uiso   1.00
N806   N     0.62084   0.72930   0.46766   0.00000  Uiso   1.00
C807   C     0.41386   0.95560   0.52321   0.00000  Uiso   1.00
N808   N     0.37916   0.93737   0.53235   0.00000  Uiso   1.00
C809   C     0.58932   0.95385   0.47746   0.00000  Uiso   1.00
H810   H     0.57922   0.93571   0.44457   0.00000  Uiso   1.00
H811   H     0.62226   0.97337   0.47239   0.00000  Uiso   1.00
H812   H     0.60219   0.93242   0.50707   0.00000  Uiso   1.00
C813   C     0.41068   0.71281   0.52254   0.00000  Uiso   1.00
H814   H     0.42078   0.73096   0.55544   0.00000  Uiso   1.00
H815   H     0.39781   0.73425   0.49294   0.00000  Uiso   1.00
H816   H     0.37774   0.69330   0.52761   0.00000  Uiso   1.00
C817   C     0.83315   0.75420   0.49995   0.00000  Uiso   1.00
C818   C     0.83351   0.91246   0.50005   0.00000  Uiso   1.00
C819   C     0.73483   0.83317   0.48807   0.00000  Uiso   1.00
C820   C     0.93183   0.83350   0.51193   0.00000  Uiso   1.00
C821   C     0.68020   0.83016   0.48164   0.00000  Uiso   1.00
C822   C     0.98647   0.83651   0.51836   0.00000  Uiso   1.00
C823   C     0.87597   0.68817   0.48822   0.00000  Uiso   1.00
C824   C     0.79070   0.97850   0.51178   0.00000  Uiso   1.00
C825   C     0.87656   0.97818   0.48840   0.00000  Uiso   1.00
C826   C     0.79011   0.68848   0.51160   0.00000  Uiso   1.00
C827   C     0.83360   0.95716   0.50007   0.00000  Uiso   1.00
C828   C     0.83307   0.70951   0.49993   0.00000  Uiso   1.00
C829   C     0.80086   0.80856   0.35394   0.00000  Uiso   1.00
C830   C     0.86580   0.85811   0.64606   0.00000  Uiso   1.00
C831   C     0.80093   0.80854   0.63768   0.00000  Uiso   1.00
C832   C     0.86574   0.85813   0.36232   0.00000  Uiso   1.00
Cu833  Cu    0.83333   0.83334   0.54689   0.00000  Uiso   1.00
Cu834  Cu    0.83333   0.83333   0.45311   0.00000  Uiso   1.00
H835   H     0.77485   0.78871   0.36927   0.00000  Uiso   1.00
H836   H     0.89182   0.87795   0.63073   0.00000  Uiso   1.00
H837   H     0.77492   0.78870   0.61564   0.00000  Uiso   1.00
H838   H     0.89175   0.87796   0.38436   0.00000  Uiso   1.00
N839   N     0.83335   0.83334   0.61736   0.00000  Uiso   1.00
N840   N     0.83332   0.83332   0.38264   0.00000  Uiso   1.00
O841   O     0.83333   0.77322   0.53958   0.00000  Uiso   1.00
O842   O     0.83334   0.89345   0.46042   0.00000  Uiso   1.00
O843   O     0.83333   0.77321   0.46039   0.00000  Uiso   1.00
O844   O     0.83334   0.89346   0.53961   0.00000  Uiso   1.00
O845   O     0.75828   0.83334   0.53046   0.00000  Uiso   1.00
O846   O     0.90839   0.83333   0.46954   0.00000  Uiso   1.00
O847   O     0.75828   0.83333   0.45127   0.00000  Uiso   1.00
O848   O     0.90839   0.83334   0.54873   0.00000  Uiso   1.00
C849   C     0.99097   0.81752   0.43444   0.00000  Uiso   1.00
N850   N     0.97346   0.80741   0.39683   0.00000  Uiso   1.00
C851   C     0.67570   0.84914   0.56556   0.00000  Uiso   1.00
N852   N     0.69320   0.85926   0.60317   0.00000  Uiso   1.00
C853   C     0.91947   0.71107   0.47679   0.00000  Uiso   1.00
N854   N     0.95417   0.72930   0.46766   0.00000  Uiso   1.00
C855   C     0.74720   0.95560   0.52321   0.00000  Uiso   1.00
N856   N     0.71250   0.93737   0.53235   0.00000  Uiso   1.00
C857   C     0.92265   0.95385   0.47746   0.00000  Uiso   1.00
H858   H     0.91256   0.93571   0.44457   0.00000  Uiso   1.00
H859   H     0.95560   0.97337   0.47239   0.00000  Uiso   1.00
H860   H     0.93552   0.93242   0.50707   0.00000  Uiso   1.00
C861   C     0.74402   0.71281   0.52254   0.00000  Uiso   1.00
H862   H     0.75411   0.73096   0.55544   0.00000  Uiso   1.00
H863   H     0.73115   0.73425   0.49294   0.00000  Uiso   1.00
H864   H     0.71107   0.69330   0.52761   0.00000  Uiso   1.00
C865   C     0.16649   0.08754   0.83328   0.00000  Uiso   1.00
C866   C     0.16685   0.24580   0.83339   0.00000  Uiso   1.00
C867   C     0.06817   0.16650   0.82141   0.00000  Uiso   1.00
C868   C     0.26517   0.16683   0.84526   0.00000  Uiso   1.00
C869   C     0.01353   0.16349   0.81497   0.00000  Uiso   1.00
C870   C     0.31980   0.16984   0.85170   0.00000  Uiso   1.00
C871   C     0.20930   0.02150   0.82155   0.00000  Uiso   1.00
C872   C     0.12404   0.31183   0.84511   0.00000  Uiso   1.00
C873   C     0.20989   0.31152   0.82174   0.00000  Uiso   1.00
C874   C     0.12344   0.02182   0.84493   0.00000  Uiso   1.00
C875   C     0.16693   0.29049   0.83340   0.00000  Uiso   1.00
C876   C     0.16640   0.04284   0.83326   0.00000  Uiso   1.00
C877   C     0.13420   0.14189   0.68727   0.00000  Uiso   1.00
C878   C     0.19914   0.19144   0.97939   0.00000  Uiso   1.00
C879   C     0.13426   0.14187   0.97101   0.00000  Uiso   1.00
C880   C     0.19908   0.19146   0.69566   0.00000  Uiso   1.00
Cu881  Cu    0.16667   0.16667   0.88022   0.00000  Uiso   1.00
Cu882  Cu    0.16667   0.16666   0.78645   0.00000  Uiso   1.00
H883   H     0.10818   0.12205   0.70260   0.00000  Uiso   1.00
H884   H     0.22515   0.21129   0.96407   0.00000  Uiso   1.00
H885   H     0.10825   0.12204   0.94897   0.00000  Uiso   1.00
H886   H     0.22508   0.21130   0.71769   0.00000  Uiso   1.00
N887   N     0.16668   0.16668   0.95069   0.00000  Uiso   1.00
N888   N     0.16665   0.16666   0.71597   0.00000  Uiso   1.00
O889   O     0.16666   0.10655   0.87291   0.00000  Uiso   1.00
O890   O     0.16667   0.22678   0.79375   0.00000  Uiso   1.00
O891   O     0.16666   0.10654   0.79372   0.00000  Uiso   1.00
O892   O     0.16667   0.22679   0.87294   0.00000  Uiso   1.00
O893   O     0.09161   0.16667   0.86379   0.00000  Uiso   1.00
O894   O     0.24172   0.16666   0.80288   0.00000  Uiso   1.00
O895   O     0.09161   0.16666   0.78460   0.00000  Uiso   1.00
O896   O     0.24172   0.16667   0.88207   0.00000  Uiso   1.00
C897   C     0.32430   0.15086   0.76777   0.00000  Uiso   1.00
N898   N     0.30680   0.14074   0.73016   0.00000  Uiso   1.00
C899   C     0.00903   0.18248   0.89889   0.00000  Uiso   1.00
N900   N     0.02654   0.19259   0.93651   0.00000  Uiso   1.00
C901   C     0.25281   0.04440   0.81012   0.00000  Uiso   1.00
N902   N     0.28751   0.06263   0.80099   0.00000  Uiso   1.00
C903   C     0.08053   0.28893   0.85655   0.00000  Uiso   1.00
N904   N     0.04583   0.27070   0.86568   0.00000  Uiso   1.00
C905   C     0.25598   0.28719   0.81080   0.00000  Uiso   1.00
H906   H     0.24589   0.26904   0.77790   0.00000  Uiso   1.00
H907   H     0.28893   0.30670   0.80572   0.00000  Uiso   1.00
H908   H     0.26885   0.26575   0.84040   0.00000  Uiso   1.00
C909   C     0.07735   0.04615   0.85587   0.00000  Uiso   1.00
H910   H     0.08744   0.06429   0.88877   0.00000  Uiso   1.00
H911   H     0.06448   0.06758   0.82627   0.00000  Uiso   1.00
H912   H     0.04440   0.02663   0.86094   0.00000  Uiso   1.00
C913   C     0.49982   0.08754   0.83328   0.00000  Uiso   1.00
C914   C     0.50018   0.24580   0.83339   0.00000  Uiso   1.00
C915   C     0.40150   0.16650   0.82141   0.00000  Uiso   1.00
C916   C     0.59850   0.16683   0.84526   0.00000  Uiso   1.00
C917   C     0.34686   0.16349   0.81497   0.00000  Uiso   1.00
C918   C     0.65314   0.16984   0.85170   0.00000  Uiso   1.00
C919   C     0.54263   0.02150   0.82155   0.00000  Uiso   1.00
C920   C     0.45737   0.31183   0.84511   0.00000  Uiso   1.00
C921   C     0.54323   0.31152   0.82174   0.00000  Uiso   1.00
C922   C     0.45678   0.02182   0.84493   0.00000  Uiso   1.00
C923   C     0.50026   0.29049   0.83340   0.00000  Uiso   1.00
C924   C     0.49974   0.04284   0.83326   0.00000  Uiso   1.00
C925   C     0.46753   0.14189   0.68727   0.00000  Uiso   1.00
C926   C     0.53247   0.19144   0.97939   0.00000  Uiso   1.00
C927   C     0.46759   0.14187   0.97101   0.00000  Uiso   1.00
C928   C     0.53241   0.19146   0.69566   0.00000  Uiso   1.00
Cu929  Cu    0.50000   0.16667   0.88022   0.00000  Uiso   1.00
Cu930  Cu    0.50000   0.16666   0.78645   0.00000  Uiso   1.00
H931   H     0.44151   0.12205   0.70260   0.00000  Uiso   1.00
H932   H     0.55849   0.21129   0.96407   0.00000  Uiso   1.00
H933   H     0.44159   0.12204   0.94897   0.00000  Uiso   1.00
H934   H     0.55842   0.21130   0.71769   0.00000  Uiso   1.00
N935   N     0.50001   0.16668   0.95069   0.00000  Uiso   1.00
N936   N     0.49999   0.16666   0.71597   0.00000  Uiso   1.00
O937   O     0.50000   0.10655   0.87291   0.00000  Uiso   1.00
O938   O     0.50000   0.22678   0.79375   0.00000  Uiso   1.00
O939   O     0.50000   0.10654   0.79372   0.00000  Uiso   1.00
O940   O     0.50000   0.22679   0.87294   0.00000  Uiso   1.00
O941   O     0.42495   0.16667   0.86379   0.00000  Uiso   1.00
O942   O     0.57505   0.16666   0.80288   0.00000  Uiso   1.00
O943   O     0.42494   0.16666   0.78460   0.00000  Uiso   1.00
O944   O     0.57506   0.16667   0.88207   0.00000  Uiso   1.00
C945   C     0.65763   0.15086   0.76777   0.00000  Uiso   1.00
N946   N     0.64013   0.14074   0.73016   0.00000  Uiso   1.00
C947   C     0.34237   0.18248   0.89889   0.00000  Uiso   1.00
N948   N     0.35987   0.19259   0.93651   0.00000  Uiso   1.00
C949   C     0.58614   0.04440   0.81012   0.00000  Uiso   1.00
N950   N     0.62084   0.06263   0.80099   0.00000  Uiso   1.00
C951   C     0.41386   0.28893   0.85655   0.00000  Uiso   1.00
N952   N     0.37916   0.27070   0.86568   0.00000  Uiso   1.00
C953   C     0.58932   0.28719   0.81080   0.00000  Uiso   1.00
H954   H     0.57922   0.26904   0.77790   0.00000  Uiso   1.00
H955   H     0.62226   0.30670   0.80572   0.00000  Uiso   1.00
H956   H     0.60219   0.26575   0.84040   0.00000  Uiso   1.00
C957   C     0.41068   0.04615   0.85587   0.00000  Uiso   1.00
H958   H     0.42078   0.06429   0.88877   0.00000  Uiso   1.00
H959   H     0.39781   0.06758   0.82627   0.00000  Uiso   1.00
H960   H     0.37774   0.02663   0.86094   0.00000  Uiso   1.00
C961   C     0.83315   0.08754   0.83328   0.00000  Uiso   1.00
C962   C     0.83351   0.24580   0.83339   0.00000  Uiso   1.00
C963   C     0.73483   0.16650   0.82141   0.00000  Uiso   1.00
C964   C     0.93183   0.16683   0.84526   0.00000  Uiso   1.00
C965   C     0.68020   0.16349   0.81497   0.00000  Uiso   1.00
C966   C     0.98647   0.16984   0.85170   0.00000  Uiso   1.00
C967   C     0.87597   0.02150   0.82155   0.00000  Uiso   1.00
C968   C     0.79070   0.31183   0.84511   0.00000  Uiso   1.00
C969   C     0.87656   0.31152   0.82174   0.00000  Uiso   1.00
C970   C     0.79011   0.02182   0.84493   0.00000  Uiso   1.00
C971   C     0.83360   0.29049   0.83340   0.00000  Uiso   1.00
C972   C     0.83307   0.04284   0.83326   0.00000  Uiso   1.00
C973   C     0.80086   0.14189   0.68727   0.00000  Uiso   1.00
C974   C     0.86580   0.19144   0.97939   0.00000  Uiso   1.00
C975   C     0.80093   0.14187   0.97101   0.00000  Uiso   1.00
C976   C     0.86574   0.19146   0.69566   0.00000  Uiso   1.00
Cu977  Cu    0.83333   0.16667   0.88022   0.00000  Uiso   1.00
Cu978  Cu    0.83333   0.16666   0.78645   0.00000  Uiso   1.00
H979   H     0.77485   0.12205   0.70260   0.00000  Uiso   1.00
H980   H     0.89182   0.21129   0.96407   0.00000  Uiso   1.00
H981   H     0.77492   0.12204   0.94897   0.00000  Uiso   1.00
H982   H     0.89175   0.21130   0.71769   0.00000  Uiso   1.00
N983   N     0.83335   0.16668   0.95069   0.00000  Uiso   1.00
N984   N     0.83332   0.16666   0.71597   0.00000  Uiso   1.00
O985   O     0.83333   0.10655   0.87291   0.00000  Uiso   1.00
O986   O     0.83334   0.22678   0.79375   0.00000  Uiso   1.00
O987   O     0.83333   0.10654   0.79372   0.00000  Uiso   1.00
O988   O     0.83334   0.22679   0.87294   0.00000  Uiso   1.00
O989   O     0.75828   0.16667   0.86379   0.00000  Uiso   1.00
O990   O     0.90839   0.16666   0.80288   0.00000  Uiso   1.00
O991   O     0.75828   0.16666   0.78460   0.00000  Uiso   1.00
O992   O     0.90839   0.16667   0.88207   0.00000  Uiso   1.00
C993   C     0.99097   0.15086   0.76777   0.00000  Uiso   1.00
N994   N     0.97346   0.14074   0.73016   0.00000  Uiso   1.00
C995   C     0.67570   0.18248   0.89889   0.00000  Uiso   1.00
N996   N     0.69320   0.19259   0.93651   0.00000  Uiso   1.00
C997   C     0.91947   0.04440   0.81012   0.00000  Uiso   1.00
N998   N     0.95417   0.06263   0.80099   0.00000  Uiso   1.00
C999   C     0.74720   0.28893   0.85655   0.00000  Uiso   1.00
N1000  N     0.71250   0.27070   0.86568   0.00000  Uiso   1.00
C1001  C     0.92265   0.28719   0.81080   0.00000  Uiso   1.00
H1002  H     0.91256   0.26904   0.77790   0.00000  Uiso   1.00
H1003  H     0.95560   0.30670   0.80572   0.00000  Uiso   1.00
H1004  H     0.93552   0.26575   0.84040   0.00000  Uiso   1.00
C1005  C     0.74402   0.04615   0.85587   0.00000  Uiso   1.00
H1006  H     0.75411   0.06429   0.88877   0.00000  Uiso   1.00
H1007  H     0.73115   0.06758   0.82627   0.00000  Uiso   1.00
H1008  H     0.71107   0.02663   0.86094   0.00000  Uiso   1.00
C1009  C     0.16649   0.42087   0.83328   0.00000  Uiso   1.00
C1010  C     0.16685   0.57913   0.83339   0.00000  Uiso   1.00
C1011  C     0.06817   0.49984   0.82141   0.00000  Uiso   1.00
C1012  C     0.26517   0.50016   0.84526   0.00000  Uiso   1.00
C1013  C     0.01353   0.49682   0.81497   0.00000  Uiso   1.00
C1014  C     0.31980   0.50318   0.85170   0.00000  Uiso   1.00
C1015  C     0.20930   0.35484   0.82155   0.00000  Uiso   1.00
C1016  C     0.12404   0.64516   0.84511   0.00000  Uiso   1.00
C1017  C     0.20989   0.64485   0.82174   0.00000  Uiso   1.00
C1018  C     0.12344   0.35515   0.84493   0.00000  Uiso   1.00
C1019  C     0.16693   0.62382   0.83340   0.00000  Uiso   1.00
C1020  C     0.16640   0.37618   0.83326   0.00000  Uiso   1.00
C1021  C     0.13420   0.47523   0.68727   0.00000  Uiso   1.00
C1022  C     0.19914   0.52477   0.97939   0.00000  Uiso   1.00
C1023  C     0.13426   0.47520   0.97101   0.00000  Uiso   1.00
C1024  C     0.19908   0.52480   0.69566   0.00000  Uiso   1.00
Cu1025 Cu    0.16667   0.50001   0.88022   0.00000  Uiso   1.00
Cu1026 Cu    0.16667   0.49999   0.78645   0.00000  Uiso   1.00
H1027  H     0.10818   0.45538   0.70260   0.00000  Uiso   1.00
H1028  H     0.22515   0.54462   0.96407   0.00000  Uiso   1.00
H1029  H     0.10825   0.45537   0.94897   0.00000  Uiso   1.00
H1030  H     0.22508   0.54463   0.71769   0.00000  Uiso   1.00
N1031  N     0.16668   0.50001   0.95069   0.00000  Uiso   1.00
N1032  N     0.16665   0.49999   0.71597   0.00000  Uiso   1.00
O1033  O     0.16666   0.43989   0.87291   0.00000  Uiso   1.00
O1034  O     0.16667   0.56011   0.79375   0.00000  Uiso   1.00
O1035  O     0.16666   0.43988   0.79372   0.00000  Uiso   1.00
O1036  O     0.16667   0.56012   0.87294   0.00000  Uiso   1.00
O1037  O     0.09161   0.50000   0.86379   0.00000  Uiso   1.00
O1038  O     0.24172   0.50000   0.80288   0.00000  Uiso   1.00
O1039  O     0.09161   0.49999   0.78460   0.00000  Uiso   1.00
O1040  O     0.24172   0.50001   0.88207   0.00000  Uiso   1.00
C1041  C     0.32430   0.48419   0.76777   0.00000  Uiso   1.00
N1042  N     0.30680   0.47407   0.73016   0.00000  Uiso   1.00
C1043  C     0.00903   0.51581   0.89889   0.00000  Uiso   1.00
N1044  N     0.02654   0.52593   0.93651   0.00000  Uiso   1.00
C1045  C     0.25281   0.37773   0.81012   0.00000  Uiso   1.00
N1046  N     0.28751   0.39596   0.80099   0.00000  Uiso   1.00
C1047  C     0.08053   0.62227   0.85655   0.00000  Uiso   1.00
N1048  N     0.04583   0.60404   0.86568   0.00000  Uiso   1.00
C1049  C     0.25598   0.62052   0.81080   0.00000  Uiso   1.00
H1050  H     0.24589   0.60237   0.77790   0.00000  Uiso   1.00
H1051  H     0.28893   0.64003   0.80572   0.00000  Uiso   1.00
H1052  H     0.26885   0.59908   0.84040   0.00000  Uiso   1.00
C1053  C     0.07735   0.37948   0.85587   0.00000  Uiso   1.00
H1054  H     0.08744   0.39762   0.88877   0.00000  Uiso   1.00
H1055  H     0.06448   0.40092   0.82627   0.00000  Uiso   1.00
H1056  H     0.04440   0.35997   0.86094   0.00000  Uiso   1.00
C1057  C     0.49982   0.42087   0.83328   0.00000  Uiso   1.00
C1058  C     0.50018   0.57913   0.83339   0.00000  Uiso   1.00
C1059  C     0.40150   0.49984   0.82141   0.00000  Uiso   1.00
C1060  C     0.59850   0.50016   0.84526   0.00000  Uiso   1.00
C1061  C     0.34686   0.49682   0.81497   0.00000  Uiso   1.00
C1062  C     0.65314   0.50318   0.85170   0.00000  Uiso   1.00
C1063  C     0.54263   0.35484   0.82155   0.00000  Uiso   1.00
C1064  C     0.45737   0.64516   0.84511   0.00000  Uiso   1.00
C1065  C     0.54323   0.64485   0.82174   0.00000  Uiso   1.00
C1066  C     0.45678   0.35515   0.84493   0.00000  Uiso   1.00
C1067  C     0.50026   0.62382   0.83340   0.00000  Uiso   1.00
C1068  C     0.49974   0.37618   0.83326   0.00000  Uiso   1.00
C1069  C     0.46753   0.47523   0.68727   0.00000  Uiso   1.00
C1070  C     0.53247   0.52477   0.97939   0.00000  Uiso   1.00
C1071  C     0.46759   0.47520   0.97101   0.00000  Uiso   1.00
C1072  C     0.53241   0.52480   0.69566   0.00000  Uiso   1.00
Cu1073 Cu    0.50000   0.50001   0.88022   0.00000  Uiso   1.00
Cu1074 Cu    0.50000   0.49999   0.78645   0.00000  Uiso   1.00
H1075  H     0.44151   0.45538   0.70260   0.00000  Uiso   1.00
H1076  H     0.55849   0.54462   0.96407   0.00000  Uiso   1.00
H1077  H     0.44159   0.45537   0.94897   0.00000  Uiso   1.00
H1078  H     0.55842   0.54463   0.71769   0.00000  Uiso   1.00
N1079  N     0.50001   0.50001   0.95069   0.00000  Uiso   1.00
N1080  N     0.49999   0.49999   0.71597   0.00000  Uiso   1.00
O1081  O     0.50000   0.43989   0.87291   0.00000  Uiso   1.00
O1082  O     0.50000   0.56011   0.79375   0.00000  Uiso   1.00
O1083  O     0.50000   0.43988   0.79372   0.00000  Uiso   1.00
O1084  O     0.50000   0.56012   0.87294   0.00000  Uiso   1.00
O1085  O     0.42495   0.50000   0.86379   0.00000  Uiso   1.00
O1086  O     0.57505   0.50000   0.80288   0.00000  Uiso   1.00
O1087  O     0.42494   0.49999   0.78460   0.00000  Uiso   1.00
O1088  O     0.57506   0.50001   0.88207   0.00000  Uiso   1.00
C1089  C     0.65763   0.48419   0.76777   0.00000  Uiso   1.00
N1090  N     0.64013   0.47407   0.73016   0.00000  Uiso   1.00
C1091  C     0.34237   0.51581   0.89889   0.00000  Uiso   1.00
N1092  N     0.35987   0.52593   0.93651   0.00000  Uiso   1.00
C1093  C     0.58614   0.37773   0.81012   0.00000  Uiso   1.00
N1094  N     0.62084   0.39596   0.80099   0.00000  Uiso   1.00
C1095  C     0.41386   0.62227   0.85655   0.00000  Uiso   1.00
N1096  N     0.37916   0.60404   0.86568   0.00000  Uiso   1.00
C1097  C     0.58932   0.62052   0.81080   0.00000  Uiso   1.00
H1098  H     0.57922   0.60237   0.77790   0.00000  Uiso   1.00
H1099  H     0.62226   0.64003   0.80572   0.00000  Uiso   1.00
H1100  H     0.60219   0.59908   0.84040   0.00000  Uiso   1.00
C1101  C     0.41068   0.37948   0.85587   0.00000  Uiso   1.00
H1102  H     0.42078   0.39762   0.88877   0.00000  Uiso   1.00
H1103  H     0.39781   0.40092   0.82627   0.00000  Uiso   1.00
H1104  H     0.37774   0.35997   0.86094   0.00000  Uiso   1.00
C1105  C     0.83315   0.42087   0.83328   0.00000  Uiso   1.00
C1106  C     0.83351   0.57913   0.83339   0.00000  Uiso   1.00
C1107  C     0.73483   0.49984   0.82141   0.00000  Uiso   1.00
C1108  C     0.93183   0.50016   0.84526   0.00000  Uiso   1.00
C1109  C     0.68020   0.49682   0.81497   0.00000  Uiso   1.00
C1110  C     0.98647   0.50318   0.85170   0.00000  Uiso   1.00
C1111  C     0.87597   0.35484   0.82155   0.00000  Uiso   1.00
C1112  C     0.79070   0.64516   0.84511   0.00000  Uiso   1.00
C1113  C     0.87656   0.64485   0.82174   0.00000  Uiso   1.00
C1114  C     0.79011   0.35515   0.84493   0.00000  Uiso   1.00
C1115  C     0.83360   0.62382   0.83340   0.00000  Uiso   1.00
C1116  C     0.83307   0.37618   0.83326   0.00000  Uiso   1.00
C1117  C     0.80086   0.47523   0.68727   0.00000  Uiso   1.00
C1118  C     0.86580   0.52477   0.97939   0.00000  Uiso   1.00
C1119  C     0.80093   0.47520   0.97101   0.00000  Uiso   1.00
C1120  C     0.86574   0.52480   0.69566   0.00000  Uiso   1.00
Cu1121 Cu    0.83333   0.50001   0.88022   0.00000  Uiso   1.00
Cu1122 Cu    0.83333   0.49999   0.78645   0.00000  Uiso   1.00
H1123  H     0.77485   0.45538   0.70260   0.00000  Uiso   1.00
H1124  H     0.89182   0.54462   0.96407   0.00000  Uiso   1.00
H1125  H     0.77492   0.45537   0.94897   0.00000  Uiso   1.00
H1126  H     0.89175   0.54463   0.71769   0.00000  Uiso   1.00
N1127  N     0.83335   0.50001   0.95069   0.00000  Uiso   1.00
N1128  N     0.83332   0.49999   0.71597   0.00000  Uiso   1.00
O1129  O     0.83333   0.43989   0.87291   0.00000  Uiso   1.00
O1130  O     0.83334   0.56011   0.79375   0.00000  Uiso   1.00
O1131  O     0.83333   0.43988   0.79372   0.00000  Uiso   1.00
O1132  O     0.83334   0.56012   0.87294   0.00000  Uiso   1.00
O1133  O     0.75828   0.50000   0.86379   0.00000  Uiso   1.00
O1134  O     0.90839   0.50000   0.80288   0.00000  Uiso   1.00
O1135  O     0.75828   0.49999   0.78460   0.00000  Uiso   1.00
O1136  O     0.90839   0.50001   0.88207   0.00000  Uiso   1.00
C1137  C     0.99097   0.48419   0.76777   0.00000  Uiso   1.00
N1138  N     0.97346   0.47407   0.73016   0.00000  Uiso   1.00
C1139  C     0.67570   0.51581   0.89889   0.00000  Uiso   1.00
N1140  N     0.69320   0.52593   0.93651   0.00000  Uiso   1.00
C1141  C     0.91947   0.37773   0.81012   0.00000  Uiso   1.00
N1142  N     0.95417   0.39596   0.80099   0.00000  Uiso   1.00
C1143  C     0.74720   0.62227   0.85655   0.00000  Uiso   1.00
N1144  N     0.71250   0.60404   0.86568   0.00000  Uiso   1.00
C1145  C     0.92265   0.62052   0.81080   0.00000  Uiso   1.00
H1146  H     0.91256   0.60237   0.77790   0.00000  Uiso   1.00
H1147  H     0.95560   0.64003   0.80572   0.00000  Uiso   1.00
H1148  H     0.93552   0.59908   0.84040   0.00000  Uiso   1.00
C1149  C     0.74402   0.37948   0.85587   0.00000  Uiso   1.00
H1150  H     0.75411   0.39762   0.88877   0.00000  Uiso   1.00
H1151  H     0.73115   0.40092   0.82627   0.00000  Uiso   1.00
H1152  H     0.71107   0.35997   0.86094   0.00000  Uiso   1.00
C1153  C     0.16649   0.75420   0.83328   0.00000  Uiso   1.00
C1154  C     0.16685   0.91246   0.83339   0.00000  Uiso   1.00
C1155  C     0.06817   0.83317   0.82141   0.00000  Uiso   1.00
C1156  C     0.26517   0.83350   0.84526   0.00000  Uiso   1.00
C1157  C     0.01353   0.83016   0.81497   0.00000  Uiso   1.00
C1158  C     0.31980   0.83651   0.85170   0.00000  Uiso   1.00
C1159  C     0.20930   0.68817   0.82155   0.00000  Uiso   1.00
C1160  C     0.12404   0.97850   0.84511   0.00000  Uiso   1.00
C1161  C     0.20989   0.97818   0.82174   0.00000  Uiso   1.00
C1162  C     0.12344   0.68848   0.84493   0.00000  Uiso   1.00
C1163  C     0.16693   0.95716   0.83340   0.00000  Uiso   1.00
C1164  C     0.16640   0.70951   0.83326   0.00000  Uiso   1.00
C1165  C     0.13420   0.80856   0.68727   0.00000  Uiso   1.00
C1166  C     0.19914   0.85811   0.97939   0.00000  Uiso   1.00
C1167  C     0.13426   0.80854   0.97101   0.00000  Uiso   1.00
C1168  C     0.19908   0.85813   0.69566   0.00000  Uiso   1.00
Cu1169 Cu    0.16667   0.83334   0.88022   0.00000  Uiso   1.00
Cu1170 Cu    0.16667   0.83333   0.78645   0.00000  Uiso   1.00
H1171  H     0.10818   0.78871   0.70260   0.00000  Uiso   1.00
H1172  H     0.22515   0.87795   0.96407   0.00000  Uiso   1.00
H1173  H     0.10825   0.78870   0.94897   0.00000  Uiso   1.00
H1174  H     0.22508   0.87796   0.71769   0.00000  Uiso   1.00
N1175  N     0.16668   0.83334   0.95069   0.00000  Uiso   1.00
N1176  N     0.16665   0.83332   0.71597   0.00000  Uiso   1.00
O1177  O     0.16666   0.77322   0.87291   0.00000  Uiso   1.00
O1178  O     0.16667   0.89345   0.79375   0.00000  Uiso   1.00
O1179  O     0.16666   0.77321   0.79372   0.00000  Uiso   1.00
O1180  O     0.16667   0.89346   0.87294   0.00000  Uiso   1.00
O1181  O     0.09161   0.83334   0.86379   0.00000  Uiso   1.00
O1182  O     0.24172   0.83333   0.80288   0.00000  Uiso   1.00
O1183  O     0.09161   0.83333   0.78460   0.00000  Uiso   1.00
O1184  O     0.24172   0.83334   0.88207   0.00000  Uiso   1.00
C1185  C     0.32430   0.81752   0.76777   0.00000  Uiso   1.00
N1186  N     0.30680   0.80741   0.73016   0.00000  Uiso   1.00
C1187  C     0.00903   0.84914   0.89889   0.00000  Uiso   1.00
N1188  N     0.02654   0.85926   0.93651   0.00000  Uiso   1.00
C1189  C     0.25281   0.71107   0.81012   0.00000  Uiso   1.00
N1190  N     0.28751   0.72930   0.80099   0.00000  Uiso   1.00
C1191  C     0.08053   0.95560   0.85655   0.00000  Uiso   1.00
N1192  N     0.04583   0.93737   0.86568   0.00000  Uiso   1.00
C1193  C     0.25598   0.95385   0.81080   0.00000  Uiso   1.00
H1194  H     0.24589   0.93571   0.77790   0.00000  Uiso   1.00
H1195  H     0.28893   0.97337   0.80572   0.00000  Uiso   1.00
H1196  H     0.26885   0.93242   0.84040   0.00000  Uiso   1.00
C1197  C     0.07735   0.71281   0.85587   0.00000  Uiso   1.00
H1198  H     0.08744   0.73096   0.88877   0.00000  Uiso   1.00
H1199  H     0.06448   0.73425   0.82627   0.00000  Uiso   1.00
H1200  H     0.04440   0.69330   0.86094   0.00000  Uiso   1.00
C1201  C     0.49982   0.75420   0.83328   0.00000  Uiso   1.00
C1202  C     0.50018   0.91246   0.83339   0.00000  Uiso   1.00
C1203  C     0.40150   0.83317   0.82141   0.00000  Uiso   1.00
C1204  C     0.59850   0.83350   0.84526   0.00000  Uiso   1.00
C1205  C     0.34686   0.83016   0.81497   0.00000  Uiso   1.00
C1206  C     0.65314   0.83651   0.85170   0.00000  Uiso   1.00
C1207  C     0.54263   0.68817   0.82155   0.00000  Uiso   1.00
C1208  C     0.45737   0.97850   0.84511   0.00000  Uiso   1.00
C1209  C     0.54323   0.97818   0.82174   0.00000  Uiso   1.00
C1210  C     0.45678   0.68848   0.84493   0.00000  Uiso   1.00
C1211  C     0.50026   0.95716   0.83340   0.00000  Uiso   1.00
C1212  C     0.49974   0.70951   0.83326   0.00000  Uiso   1.00
C1213  C     0.46753   0.80856   0.68727   0.00000  Uiso   1.00
C1214  C     0.53247   0.85811   0.97939   0.00000  Uiso   1.00
C1215  C     0.46759   0.80854   0.97101   0.00000  Uiso   1.00
C1216  C     0.53241   0.85813   0.69566   0.00000  Uiso   1.00
Cu1217 Cu    0.50000   0.83334   0.88022   0.00000  Uiso   1.00
Cu1218 Cu    0.50000   0.83333   0.78645   0.00000  Uiso   1.00
H1219  H     0.44151   0.78871   0.70260   0.00000  Uiso   1.00
H1220  H     0.55849   0.87795   0.96407   0.00000  Uiso   1.00
H1221  H     0.44159   0.78870   0.94897   0.00000  Uiso   1.00
H1222  H     0.55842   0.87796   0.71769   0.00000  Uiso   1.00
N1223  N     0.50001   0.83334   0.95069   0.00000  Uiso   1.00
N1224  N     0.49999   0.83332   0.71597   0.00000  Uiso   1.00
O1225  O     0.50000   0.77322   0.87291   0.00000  Uiso   1.00
O1226  O     0.50000   0.89345   0.79375   0.00000  Uiso   1.00
O1227  O     0.50000   0.77321   0.79372   0.00000  Uiso   1.00
O1228  O     0.50000   0.89346   0.87294   0.00000  Uiso   1.00
O1229  O     0.42495   0.83334   0.86379   0.00000  Uiso   1.00
O1230  O     0.57505   0.83333   0.80288   0.00000  Uiso   1.00
O1231  O     0.42494   0.83333   0.78460   0.00000  Uiso   1.00
O1232  O     0.57506   0.83334   0.88207   0.00000  Uiso   1.00
C1233  C     0.65763   0.81752   0.76777   0.00000  Uiso   1.00
N1234  N     0.64013   0.80741   0.73016   0.00000  Uiso   1.00
C1235  C     0.34237   0.84914   0.89889   0.00000  Uiso   1.00
N1236  N     0.35987   0.85926   0.93651   0.00000  Uiso   1.00
C1237  C     0.58614   0.71107   0.81012   0.00000  Uiso   1.00
N1238  N     0.62084   0.72930   0.80099   0.00000  Uiso   1.00
C1239  C     0.41386   0.95560   0.85655   0.00000  Uiso   1.00
N1240  N     0.37916   0.93737   0.86568   0.00000  Uiso   1.00
C1241  C     0.58932   0.95385   0.81080   0.00000  Uiso   1.00
H1242  H     0.57922   0.93571   0.77790   0.00000  Uiso   1.00
H1243  H     0.62226   0.97337   0.80572   0.00000  Uiso   1.00
H1244  H     0.60219   0.93242   0.84040   0.00000  Uiso   1.00
C1245  C     0.41068   0.71281   0.85587   0.00000  Uiso   1.00
H1246  H     0.42078   0.73096   0.88877   0.00000  Uiso   1.00
H1247  H     0.39781   0.73425   0.82627   0.00000  Uiso   1.00
H1248  H     0.37774   0.69330   0.86094   0.00000  Uiso   1.00
C1249  C     0.83315   0.75420   0.83328   0.00000  Uiso   1.00
C1250  C     0.83351   0.91246   0.83339   0.00000  Uiso   1.00
C1251  C     0.73483   0.83317   0.82141   0.00000  Uiso   1.00
C1252  C     0.93183   0.83350   0.84526   0.00000  Uiso   1.00
C1253  C     0.68020   0.83016   0.81497   0.00000  Uiso   1.00
C1254  C     0.98647   0.83651   0.85170   0.00000  Uiso   1.00
C1255  C     0.87597   0.68817   0.82155   0.00000  Uiso   1.00
C1256  C     0.79070   0.97850   0.84511   0.00000  Uiso   1.00
C1257  C     0.87656   0.97818   0.82174   0.00000  Uiso   1.00
C1258  C     0.79011   0.68848   0.84493   0.00000  Uiso   1.00
C1259  C     0.83360   0.95716   0.83340   0.00000  Uiso   1.00
C1260  C     0.83307   0.70951   0.83326   0.00000  Uiso   1.00
C1261  C     0.80086   0.80856   0.68727   0.00000  Uiso   1.00
C1262  C     0.86580   0.85811   0.97939   0.00000  Uiso   1.00
C1263  C     0.80093   0.80854   0.97101   0.00000  Uiso   1.00
C1264  C     0.86574   0.85813   0.69566   0.00000  Uiso   1.00
Cu1265 Cu    0.83333   0.83334   0.88022   0.00000  Uiso   1.00
Cu1266 Cu    0.83333   0.83333   0.78645   0.00000  Uiso   1.00
H1267  H     0.77485   0.78871   0.70260   0.00000  Uiso   1.00
H1268  H     0.89182   0.87795   0.96407   0.00000  Uiso   1.00
H1269  H     0.77492   0.78870   0.94897   0.00000  Uiso   1.00
H1270  H     0.89175   0.87796   0.71769   0.00000  Uiso   1.00
N1271  N     0.83335   0.83334   0.95069   0.00000  Uiso   1.00
N1272  N     0.83332   0.83332   0.71597   0.00000  Uiso   1.00
O1273  O     0.83333   0.77322   0.87291   0.00000  Uiso   1.00
O1274  O     0.83334   0.89345   0.79375   0.00000  Uiso   1.00
O1275  O     0.83333   0.77321   0.79372   0.00000  Uiso   1.00
O1276  O     0.83334   0.89346   0.87294   0.00000  Uiso   1.00
O1277  O     0.75828   0.83334   0.86379   0.00000  Uiso   1.00
O1278  O     0.90839   0.83333   0.80288   0.00000  Uiso   1.00
O1279  O     0.75828   0.83333   0.78460   0.00000  Uiso   1.00
O1280  O     0.90839   0.83334   0.88207   0.00000  Uiso   1.00
C1281  C     0.99097   0.81752   0.76777   0.00000  Uiso   1.00
N1282  N     0.97346   0.80741   0.73016   0.00000  Uiso   1.00
C1283  C     0.67570   0.84914   0.89889   0.00000  Uiso   1.00
N1284  N     0.69320   0.85926   0.93651   0.00000  Uiso   1.00
C1285  C     0.91947   0.71107   0.81012   0.00000  Uiso   1.00
N1286  N     0.95417   0.72930   0.80099   0.00000  Uiso   1.00
C1287  C     0.74720   0.95560   0.85655   0.00000  Uiso   1.00
N1288  N     0.71250   0.93737   0.86568   0.00000  Uiso   1.00
C1289  C     0.92265   0.95385   0.81080   0.00000  Uiso   1.00
H1290  H     0.91256   0.93571   0.77790   0.00000  Uiso   1.00
H1291  H     0.95560   0.97337   0.80572   0.00000  Uiso   1.00
H1292  H     0.93552   0.93242   0.84040   0.00000  Uiso   1.00
C1293  C     0.74402   0.71281   0.85587   0.00000  Uiso   1.00
H1294  H     0.75411   0.73096   0.88877   0.00000  Uiso   1.00
H1295  H     0.73115   0.73425   0.82627   0.00000  Uiso   1.00
H1296  H     0.71107   0.69330   0.86094   0.00000  Uiso   1.00
loop_
_geom_bond_atom_site_label_1
_geom_bond_atom_site_label_2
_geom_bond_distance
_geom_bond_site_symmetry_2
_ccdc_geom_bond_type
C1     O25     1.287   .     A
C1     C12     1.447   .     S
C1     O27     1.288   .     A
C2     C11     1.447   .     S
C2     O26     1.287   .     A
C2     O28     1.288   .     A
C3     O31     1.293   .     A
C3     O29     1.283   .     A
C3     C5      1.441   .     S
C4     O32     1.293   .     A
C4     C6      1.441   .     S
C4     O30     1.283   .     A
C5     C102    1.365   1_455 S
C5     C129    1.457   1_455 S
C6     C53     1.365   .     S
C6     C83     1.457   .     S
C7     C37     1.451   .     S
C7     C12     1.409   .     A
C7     C297    1.403   1_545 S
C8     C39     1.451   .     S
C8     C11     1.409   .     A
C8     C154    1.403   .     S
C9     C41     1.521   .     S
C9     C11     1.410   .     A
C9     C151    1.403   .     S
C10    C45     1.521   .     S
C10    C12     1.410   .     A
C10    C296    1.403   1_545 S
C13    H19     1.082   .     S
C13    N24     1.367   .     A
C13    C879    1.416   1_554 S
C14    N23     1.367   .     A
C14    H20     1.082   .     S
C14    C448    1.416   .     S
C15    N23     1.367   .     A
C15    H21     1.081   .     S
C15    C445    1.416   .     S
C16    N24     1.367   .     A
C16    H22     1.081   .     S
C16    C878    1.416   1_554 S
Cu17   O29     1.984   .     S
Cu17   O25     1.957   .     S
Cu17   Cu18    2.678   .     S
Cu17   N23     2.012   .     S
Cu17   O32     1.987   .     S
Cu17   O28     1.958   .     S
Cu18   O30     1.984   .     S
Cu18   O26     1.957   .     S
Cu18   N24     2.012   .     S
Cu18   O31     1.987   .     S
Cu18   O27     1.958   .     S
C33    N34     1.158   .     T
C33    C53     1.457   .     S
C35    N36     1.158   .     T
C35    C102    1.457   1_455 S
C37    N38     1.157   .     T
C39    N40     1.157   .     T
C41    H42     1.109   .     S
C41    H43     1.107   .     S
C41    H44     1.111   .     S
C45    H46     1.109   .     S
C45    H47     1.111   .     S
C45    H48     1.107   .     S
C49    O73     1.287   .     A
C49    C60     1.447   .     S
C49    O75     1.288   .     A
C50    C59     1.447   .     S
C50    O74     1.287   .     A
C50    O76     1.288   .     A
C51    O79     1.293   .     A
C51    O77     1.283   .     A
C51    C53     1.441   .     S
C52    O80     1.293   .     A
C52    C54     1.441   .     S
C52    O78     1.283   .     A
C54    C101    1.365   .     S
C54    C131    1.457   .     S
C55    C85     1.451   .     S
C55    C60     1.409   .     A
C55    C345    1.403   1_545 S
C56    C87     1.451   .     S
C56    C59     1.409   .     A
C56    C202    1.403   .     S
C57    C89     1.521   .     S
C57    C59     1.410   .     A
C57    C199    1.403   .     S
C58    C93     1.521   .     S
C58    C60     1.410   .     A
C58    C344    1.403   1_545 S
C61    H67     1.082   .     S
C61    N72     1.367   .     A
C61    C927    1.416   1_554 S
C62    N71     1.367   .     A
C62    H68     1.082   .     S
C62    C496    1.416   .     S
C63    N71     1.367   .     A
C63    H69     1.081   .     S
C63    C493    1.416   .     S
C64    N72     1.367   .     A
C64    H70     1.081   .     S
C64    C926    1.416   1_554 S
Cu65   O77     1.984   .     S
Cu65   O73     1.957   .     S
Cu65   Cu66    2.678   .     S
Cu65   N71     2.012   .     S
Cu65   O80     1.987   .     S
Cu65   O76     1.958   .     S
Cu66   O78     1.984   .     S
Cu66   O74     1.957   .     S
Cu66   N72     2.012   .     S
Cu66   O79     1.987   .     S
Cu66   O75     1.958   .     S
C81    N82     1.158   .     T
C81    C101    1.457   .     S
C83    N84     1.158   .     T
C85    N86     1.157   .     T
C87    N88     1.157   .     T
C89    H90     1.109   .     S
C89    H91     1.107   .     S
C89    H92     1.111   .     S
C93    H94     1.109   .     S
C93    H95     1.111   .     S
C93    H96     1.107   .     S
C97    O121    1.287   .     A
C97    C108    1.447   .     S
C97    O123    1.288   .     A
C98    C107    1.447   .     S
C98    O122    1.287   .     A
C98    O124    1.288   .     A
C99    O127    1.293   .     A
C99    O125    1.283   .     A
C99    C101    1.441   .     S
C100   O128    1.293   .     A
C100   C102    1.441   .     S
C100   O126    1.283   .     A
C102   C5      1.365   1_655 S
C102   C35     1.457   1_655 S
C103   C133    1.451   .     S
C103   C108    1.409   .     A
C103   C393    1.403   1_545 S
C104   C135    1.451   .     S
C104   C107    1.409   .     A
C104   C250    1.403   .     S
C105   C137    1.521   .     S
C105   C107    1.410   .     A
C105   C247    1.403   .     S
C106   C141    1.521   .     S
C106   C108    1.410   .     A
C106   C392    1.403   1_545 S
C109   H115    1.082   .     S
C109   N120    1.367   .     A
C109   C975    1.416   1_554 S
C110   N119    1.367   .     A
C110   H116    1.082   .     S
C110   C544    1.416   .     S
C111   N119    1.367   .     A
C111   H117    1.081   .     S
C111   C541    1.416   .     S
C112   N120    1.367   .     A
C112   H118    1.081   .     S
C112   C974    1.416   1_554 S
Cu113  O125    1.984   .     S
Cu113  O121    1.957   .     S
Cu113  Cu114   2.678   .     S
Cu113  N119    2.012   .     S
Cu113  O128    1.987   .     S
Cu113  O124    1.958   .     S
Cu114  O126    1.984   .     S
Cu114  O122    1.957   .     S
Cu114  N120    2.012   .     S
Cu114  O127    1.987   .     S
Cu114  O123    1.958   .     S
C129   N130    1.158   .     T
C129   C5      1.457   1_655 S
C131   N132    1.158   .     T
C133   N134    1.157   .     T
C135   N136    1.157   .     T
C137   H138    1.109   .     S
C137   H139    1.107   .     S
C137   H140    1.111   .     S
C141   H142    1.109   .     S
C141   H143    1.111   .     S
C141   H144    1.107   .     S
C145   O169    1.287   .     A
C145   C156    1.447   .     S
C145   O171    1.288   .     A
C146   C155    1.447   .     S
C146   O170    1.287   .     A
C146   O172    1.288   .     A
C147   O175    1.293   .     A
C147   O173    1.283   .     A
C147   C149    1.441   .     S
C148   O176    1.293   .     A
C148   C150    1.441   .     S
C148   O174    1.283   .     A
C149   C246    1.365   1_455 S
C149   C273    1.457   1_455 S
C150   C197    1.365   .     S
C150   C227    1.457   .     S
C151   C181    1.451   .     S
C151   C156    1.409   .     A
C152   C183    1.451   .     S
C152   C155    1.409   .     A
C152   C298    1.403   .     S
C153   C185    1.521   .     S
C153   C155    1.410   .     A
C153   C295    1.403   .     S
C154   C189    1.521   .     S
C154   C156    1.410   .     A
C157   H163    1.082   .     S
C157   N168    1.367   .     A
C157   C1023   1.416   1_554 S
C158   N167    1.367   .     A
C158   H164    1.082   .     S
C158   C592    1.416   .     S
C159   N167    1.367   .     A
C159   H165    1.081   .     S
C159   C589    1.416   .     S
C160   N168    1.367   .     A
C160   H166    1.081   .     S
C160   C1022   1.416   1_554 S
Cu161  O173    1.984   .     S
Cu161  O169    1.957   .     S
Cu161  Cu162   2.678   .     S
Cu161  N167    2.012   .     S
Cu161  O176    1.987   .     S
Cu161  O172    1.958   .     S
Cu162  O174    1.984   .     S
Cu162  O170    1.957   .     S
Cu162  N168    2.012   .     S
Cu162  O175    1.987   .     S
Cu162  O171    1.958   .     S
C177   N178    1.158   .     T
C177   C197    1.457   .     S
C179   N180    1.158   .     T
C179   C246    1.457   1_455 S
C181   N182    1.157   .     T
C183   N184    1.157   .     T
C185   H186    1.109   .     S
C185   H187    1.107   .     S
C185   H188    1.111   .     S
C189   H190    1.109   .     S
C189   H191    1.111   .     S
C189   H192    1.107   .     S
C193   O217    1.287   .     A
C193   C204    1.447   .     S
C193   O219    1.288   .     A
C194   C203    1.447   .     S
C194   O218    1.287   .     A
C194   O220    1.288   .     A
C195   O223    1.293   .     A
C195   O221    1.283   .     A
C195   C197    1.441   .     S
C196   O224    1.293   .     A
C196   C198    1.441   .     S
C196   O222    1.283   .     A
C198   C245    1.365   .     S
C198   C275    1.457   .     S
C199   C229    1.451   .     S
C199   C204    1.409   .     A
C200   C231    1.451   .     S
C200   C203    1.409   .     A
C200   C346    1.403   .     S
C201   C233    1.521   .     S
C201   C203    1.410   .     A
C201   C343    1.403   .     S
C202   C237    1.521   .     S
C202   C204    1.410   .     A
C205   H211    1.082   .     S
C205   N216    1.367   .     A
C205   C1071   1.416   1_554 S
C206   N215    1.367   .     A
C206   H212    1.082   .     S
C206   C640    1.416   .     S
C207   N215    1.367   .     A
C207   H213    1.081   .     S
C207   C637    1.416   .     S
C208   N216    1.367   .     A
C208   H214    1.081   .     S
C208   C1070   1.416   1_554 S
Cu209  O221    1.984   .     S
Cu209  O217    1.957   .     S
Cu209  Cu210   2.678   .     S
Cu209  N215    2.012   .     S
Cu209  O224    1.987   .     S
Cu209  O220    1.958   .     S
Cu210  O222    1.984   .     S
Cu210  O218    1.957   .     S
Cu210  N216    2.012   .     S
Cu210  O223    1.987   .     S
Cu210  O219    1.958   .     S
C225   N226    1.158   .     T
C225   C245    1.457   .     S
C227   N228    1.158   .     T
C229   N230    1.157   .     T
C231   N232    1.157   .     T
C233   H234    1.109   .     S
C233   H235    1.107   .     S
C233   H236    1.111   .     S
C237   H238    1.109   .     S
C237   H239    1.111   .     S
C237   H240    1.107   .     S
C241   O265    1.287   .     A
C241   C252    1.447   .     S
C241   O267    1.288   .     A
C242   C251    1.447   .     S
C242   O266    1.287   .     A
C242   O268    1.288   .     A
C243   O271    1.293   .     A
C243   O269    1.283   .     A
C243   C245    1.441   .     S
C244   O272    1.293   .     A
C244   C246    1.441   .     S
C244   O270    1.283   .     A
C246   C149    1.365   1_655 S
C246   C179    1.457   1_655 S
C247   C277    1.451   .     S
C247   C252    1.409   .     A
C248   C279    1.451   .     S
C248   C251    1.409   .     A
C248   C394    1.403   .     S
C249   C281    1.521   .     S
C249   C251    1.410   .     A
C249   C391    1.403   .     S
C250   C285    1.521   .     S
C250   C252    1.410   .     A
C253   H259    1.082   .     S
C253   N264    1.367   .     A
C253   C1119   1.416   1_554 S
C254   N263    1.367   .     A
C254   H260    1.082   .     S
C254   C688    1.416   .     S
C255   N263    1.367   .     A
C255   H261    1.081   .     S
C255   C685    1.416   .     S
C256   N264    1.367   .     A
C256   H262    1.081   .     S
C256   C1118   1.416   1_554 S
Cu257  O269    1.984   .     S
Cu257  O265    1.957   .     S
Cu257  Cu258   2.678   .     S
Cu257  N263    2.012   .     S
Cu257  O272    1.987   .     S
Cu257  O268    1.958   .     S
Cu258  O270    1.984   .     S
Cu258  O266    1.957   .     S
Cu258  N264    2.012   .     S
Cu258  O271    1.987   .     S
Cu258  O267    1.958   .     S
C273   N274    1.158   .     T
C273   C149    1.457   1_655 S
C275   N276    1.158   .     T
C277   N278    1.157   .     T
C279   N280    1.157   .     T
C281   H282    1.109   .     S
C281   H283    1.107   .     S
C281   H284    1.111   .     S
C285   H286    1.109   .     S
C285   H287    1.111   .     S
C285   H288    1.107   .     S
C289   O313    1.287   .     A
C289   C300    1.447   .     S
C289   O315    1.288   .     A
C290   C299    1.447   .     S
C290   O314    1.287   .     A
C290   O316    1.288   .     A
C291   O319    1.293   .     A
C291   O317    1.283   .     A
C291   C293    1.441   .     S
C292   O320    1.293   .     A
C292   C294    1.441   .     S
C292   O318    1.283   .     A
C293   C390    1.365   1_455 S
C293   C417    1.457   1_455 S
C294   C341    1.365   .     S
C294   C371    1.457   .     S
C295   C325    1.451   .     S
C295   C300    1.409   .     A
C296   C327    1.451   .     S
C296   C299    1.409   .     A
C296   C10     1.403   1_565 S
C297   C329    1.521   .     S
C297   C299    1.410   .     A
C297   C7      1.403   1_565 S
C298   C333    1.521   .     S
C298   C300    1.410   .     A
C301   H307    1.082   .     S
C301   N312    1.367   .     A
C301   C1167   1.416   1_554 S
C302   N311    1.367   .     A
C302   H308    1.082   .     S
C302   C736    1.416   .     S
C303   N311    1.367   .     A
C303   H309    1.081   .     S
C303   C733    1.416   .     S
C304   N312    1.367   .     A
C304   H310    1.081   .     S
C304   C1166   1.416   1_554 S
Cu305  O317    1.984   .     S
Cu305  O313    1.957   .     S
Cu305  Cu306   2.678   .     S
Cu305  N311    2.012   .     S
Cu305  O320    1.987   .     S
Cu305  O316    1.958   .     S
Cu306  O318    1.984   .     S
Cu306  O314    1.957   .     S
Cu306  N312    2.012   .     S
Cu306  O319    1.987   .     S
Cu306  O315    1.958   .     S
C321   N322    1.158   .     T
C321   C341    1.457   .     S
C323   N324    1.158   .     T
C323   C390    1.457   1_455 S
C325   N326    1.157   .     T
C327   N328    1.157   .     T
C329   H330    1.109   .     S
C329   H331    1.107   .     S
C329   H332    1.111   .     S
C333   H334    1.109   .     S
C333   H335    1.111   .     S
C333   H336    1.107   .     S
C337   O361    1.287   .     A
C337   C348    1.447   .     S
C337   O363    1.288   .     A
C338   C347    1.447   .     S
C338   O362    1.287   .     A
C338   O364    1.288   .     A
C339   O367    1.293   .     A
C339   O365    1.283   .     A
C339   C341    1.441   .     S
C340   O368    1.293   .     A
C340   C342    1.441   .     S
C340   O366    1.283   .     A
C342   C389    1.365   .     S
C342   C419    1.457   .     S
C343   C373    1.451   .     S
C343   C348    1.409   .     A
C344   C375    1.451   .     S
C344   C347    1.409   .     A
C344   C58     1.403   1_565 S
C345   C377    1.521   .     S
C345   C347    1.410   .     A
C345   C55     1.403   1_565 S
C346   C381    1.521   .     S
C346   C348    1.410   .     A
C349   H355    1.082   .     S
C349   N360    1.367   .     A
C349   C1215   1.416   1_554 S
C350   N359    1.367   .     A
C350   H356    1.082   .     S
C350   C784    1.416   .     S
C351   N359    1.367   .     A
C351   H357    1.081   .     S
C351   C781    1.416   .     S
C352   N360    1.367   .     A
C352   H358    1.081   .     S
C352   C1214   1.416   1_554 S
Cu353  O365    1.984   .     S
Cu353  O361    1.957   .     S
Cu353  Cu354   2.678   .     S
Cu353  N359    2.012   .     S
Cu353  O368    1.987   .     S
Cu353  O364    1.958   .     S
Cu354  O366    1.984   .     S
Cu354  O362    1.957   .     S
Cu354  N360    2.012   .     S
Cu354  O367    1.987   .     S
Cu354  O363    1.958   .     S
C369   N370    1.158   .     T
C369   C389    1.457   .     S
C371   N372    1.158   .     T
C373   N374    1.157   .     T
C375   N376    1.157   .     T
C377   H378    1.109   .     S
C377   H379    1.107   .     S
C377   H380    1.111   .     S
C381   H382    1.109   .     S
C381   H383    1.111   .     S
C381   H384    1.107   .     S
C385   O409    1.287   .     A
C385   C396    1.447   .     S
C385   O411    1.288   .     A
C386   C395    1.447   .     S
C386   O410    1.287   .     A
C386   O412    1.288   .     A
C387   O415    1.293   .     A
C387   O413    1.283   .     A
C387   C389    1.441   .     S
C388   O416    1.293   .     A
C388   C390    1.441   .     S
C388   O414    1.283   .     A
C390   C293    1.365   1_655 S
C390   C323    1.457   1_655 S
C391   C421    1.451   .     S
C391   C396    1.409   .     A
C392   C423    1.451   .     S
C392   C395    1.409   .     A
C392   C106    1.403   1_565 S
C393   C425    1.521   .     S
C393   C395    1.410   .     A
C393   C103    1.403   1_565 S
C394   C429    1.521   .     S
C394   C396    1.410   .     A
C397   H403    1.082   .     S
C397   N408    1.367   .     A
C397   C1263   1.416   1_554 S
C398   N407    1.367   .     A
C398   H404    1.082   .     S
C398   C832    1.416   .     S
C399   N407    1.367   .     A
C399   H405    1.081   .     S
C399   C829    1.416   .     S
C400   N408    1.367   .     A
C400   H406    1.081   .     S
C400   C1262   1.416   1_554 S
Cu401  O413    1.984   .     S
Cu401  O409    1.957   .     S
Cu401  Cu402   2.678   .     S
Cu401  N407    2.012   .     S
Cu401  O416    1.987   .     S
Cu401  O412    1.958   .     S
Cu402  O414    1.984   .     S
Cu402  O410    1.957   .     S
Cu402  N408    2.012   .     S
Cu402  O415    1.987   .     S
Cu402  O411    1.958   .     S
C417   N418    1.158   .     T
C417   C293    1.457   1_655 S
C419   N420    1.158   .     T
C421   N422    1.157   .     T
C423   N424    1.157   .     T
C425   H426    1.109   .     S
C425   H427    1.107   .     S
C425   H428    1.111   .     S
C429   H430    1.109   .     S
C429   H431    1.111   .     S
C429   H432    1.107   .     S
C433   O457    1.287   .     A
C433   C444    1.447   .     S
C433   O459    1.288   .     A
C434   C443    1.447   .     S
C434   O458    1.287   .     A
C434   O460    1.288   .     A
C435   O463    1.293   .     A
C435   O461    1.283   .     A
C435   C437    1.441   .     S
C436   O464    1.293   .     A
C436   C438    1.441   .     S
C436   O462    1.283   .     A
C437   C534    1.365   1_455 S
C437   C561    1.457   1_455 S
C438   C485    1.365   .     S
C438   C515    1.457   .     S
C439   C469    1.451   .     S
C439   C444    1.409   .     A
C439   C729    1.403   1_545 S
C440   C471    1.451   .     S
C440   C443    1.409   .     A
C440   C586    1.403   .     S
C441   C473    1.521   .     S
C441   C443    1.410   .     A
C441   C583    1.403   .     S
C442   C477    1.521   .     S
C442   C444    1.410   .     A
C442   C728    1.403   1_545 S
C445   H451    1.082   .     S
C445   N456    1.367   .     A
C446   N455    1.367   .     A
C446   H452    1.082   .     S
C446   C880    1.416   .     S
C447   N455    1.367   .     A
C447   H453    1.081   .     S
C447   C877    1.416   .     S
C448   N456    1.367   .     A
C448   H454    1.081   .     S
Cu449  O461    1.984   .     S
Cu449  O457    1.957   .     S
Cu449  Cu450   2.678   .     S
Cu449  N455    2.012   .     S
Cu449  O464    1.987   .     S
Cu449  O460    1.958   .     S
Cu450  O462    1.984   .     S
Cu450  O458    1.957   .     S
Cu450  N456    2.012   .     S
Cu450  O463    1.987   .     S
Cu450  O459    1.958   .     S
C465   N466    1.158   .     T
C465   C485    1.457   .     S
C467   N468    1.158   .     T
C467   C534    1.457   1_455 S
C469   N470    1.157   .     T
C471   N472    1.157   .     T
C473   H474    1.109   .     S
C473   H475    1.107   .     S
C473   H476    1.111   .     S
C477   H478    1.109   .     S
C477   H479    1.111   .     S
C477   H480    1.107   .     S
C481   O505    1.287   .     A
C481   C492    1.447   .     S
C481   O507    1.288   .     A
C482   C491    1.447   .     S
C482   O506    1.287   .     A
C482   O508    1.288   .     A
C483   O511    1.293   .     A
C483   O509    1.283   .     A
C483   C485    1.441   .     S
C484   O512    1.293   .     A
C484   C486    1.441   .     S
C484   O510    1.283   .     A
C486   C533    1.365   .     S
C486   C563    1.457   .     S
C487   C517    1.451   .     S
C487   C492    1.409   .     A
C487   C777    1.403   1_545 S
C488   C519    1.451   .     S
C488   C491    1.409   .     A
C488   C634    1.403   .     S
C489   C521    1.521   .     S
C489   C491    1.410   .     A
C489   C631    1.403   .     S
C490   C525    1.521   .     S
C490   C492    1.410   .     A
C490   C776    1.403   1_545 S
C493   H499    1.082   .     S
C493   N504    1.367   .     A
C494   N503    1.367   .     A
C494   H500    1.082   .     S
C494   C928    1.416   .     S
C495   N503    1.367   .     A
C495   H501    1.081   .     S
C495   C925    1.416   .     S
C496   N504    1.367   .     A
C496   H502    1.081   .     S
Cu497  O509    1.984   .     S
Cu497  O505    1.957   .     S
Cu497  Cu498   2.678   .     S
Cu497  N503    2.012   .     S
Cu497  O512    1.987   .     S
Cu497  O508    1.958   .     S
Cu498  O510    1.984   .     S
Cu498  O506    1.957   .     S
Cu498  N504    2.012   .     S
Cu498  O511    1.987   .     S
Cu498  O507    1.958   .     S
C513   N514    1.158   .     T
C513   C533    1.457   .     S
C515   N516    1.158   .     T
C517   N518    1.157   .     T
C519   N520    1.157   .     T
C521   H522    1.109   .     S
C521   H523    1.107   .     S
C521   H524    1.111   .     S
C525   H526    1.109   .     S
C525   H527    1.111   .     S
C525   H528    1.107   .     S
C529   O553    1.287   .     A
C529   C540    1.447   .     S
C529   O555    1.288   .     A
C530   C539    1.447   .     S
C530   O554    1.287   .     A
C530   O556    1.288   .     A
C531   O559    1.293   .     A
C531   O557    1.283   .     A
C531   C533    1.441   .     S
C532   O560    1.293   .     A
C532   C534    1.441   .     S
C532   O558    1.283   .     A
C534   C437    1.365   1_655 S
C534   C467    1.457   1_655 S
C535   C565    1.451   .     S
C535   C540    1.409   .     A
C535   C825    1.403   1_545 S
C536   C567    1.451   .     S
C536   C539    1.409   .     A
C536   C682    1.403   .     S
C537   C569    1.521   .     S
C537   C539    1.410   .     A
C537   C679    1.403   .     S
C538   C573    1.521   .     S
C538   C540    1.410   .     A
C538   C824    1.403   1_545 S
C541   H547    1.082   .     S
C541   N552    1.367   .     A
C542   N551    1.367   .     A
C542   H548    1.082   .     S
C542   C976    1.416   .     S
C543   N551    1.367   .     A
C543   H549    1.081   .     S
C543   C973    1.416   .     S
C544   N552    1.367   .     A
C544   H550    1.081   .     S
Cu545  O557    1.984   .     S
Cu545  O553    1.957   .     S
Cu545  Cu546   2.678   .     S
Cu545  N551    2.012   .     S
Cu545  O560    1.987   .     S
Cu545  O556    1.958   .     S
Cu546  O558    1.984   .     S
Cu546  O554    1.957   .     S
Cu546  N552    2.012   .     S
Cu546  O559    1.987   .     S
Cu546  O555    1.958   .     S
C561   N562    1.158   .     T
C561   C437    1.457   1_655 S
C563   N564    1.158   .     T
C565   N566    1.157   .     T
C567   N568    1.157   .     T
C569   H570    1.109   .     S
C569   H571    1.107   .     S
C569   H572    1.111   .     S
C573   H574    1.109   .     S
C573   H575    1.111   .     S
C573   H576    1.107   .     S
C577   O601    1.287   .     A
C577   C588    1.447   .     S
C577   O603    1.288   .     A
C578   C587    1.447   .     S
C578   O602    1.287   .     A
C578   O604    1.288   .     A
C579   O607    1.293   .     A
C579   O605    1.283   .     A
C579   C581    1.441   .     S
C580   O608    1.293   .     A
C580   C582    1.441   .     S
C580   O606    1.283   .     A
C581   C678    1.365   1_455 S
C581   C705    1.457   1_455 S
C582   C629    1.365   .     S
C582   C659    1.457   .     S
C583   C613    1.451   .     S
C583   C588    1.409   .     A
C584   C615    1.451   .     S
C584   C587    1.409   .     A
C584   C730    1.403   .     S
C585   C617    1.521   .     S
C585   C587    1.410   .     A
C585   C727    1.403   .     S
C586   C621    1.521   .     S
C586   C588    1.410   .     A
C589   H595    1.082   .     S
C589   N600    1.367   .     A
C590   N599    1.367   .     A
C590   H596    1.082   .     S
C590   C1024   1.416   .     S
C591   N599    1.367   .     A
C591   H597    1.081   .     S
C591   C1021   1.416   .     S
C592   N600    1.367   .     A
C592   H598    1.081   .     S
Cu593  O605    1.984   .     S
Cu593  O601    1.957   .     S
Cu593  Cu594   2.678   .     S
Cu593  N599    2.012   .     S
Cu593  O608    1.987   .     S
Cu593  O604    1.958   .     S
Cu594  O606    1.984   .     S
Cu594  O602    1.957   .     S
Cu594  N600    2.012   .     S
Cu594  O607    1.987   .     S
Cu594  O603    1.958   .     S
C609   N610    1.158   .     T
C609   C629    1.457   .     S
C611   N612    1.158   .     T
C611   C678    1.457   1_455 S
C613   N614    1.157   .     T
C615   N616    1.157   .     T
C617   H618    1.109   .     S
C617   H619    1.107   .     S
C617   H620    1.111   .     S
C621   H622    1.109   .     S
C621   H623    1.111   .     S
C621   H624    1.107   .     S
C625   O649    1.287   .     A
C625   C636    1.447   .     S
C625   O651    1.288   .     A
C626   C635    1.447   .     S
C626   O650    1.287   .     A
C626   O652    1.288   .     A
C627   O655    1.293   .     A
C627   O653    1.283   .     A
C627   C629    1.441   .     S
C628   O656    1.293   .     A
C628   C630    1.441   .     S
C628   O654    1.283   .     A
C630   C677    1.365   .     S
C630   C707    1.457   .     S
C631   C661    1.451   .     S
C631   C636    1.409   .     A
C632   C663    1.451   .     S
C632   C635    1.409   .     A
C632   C778    1.403   .     S
C633   C665    1.521   .     S
C633   C635    1.410   .     A
C633   C775    1.403   .     S
C634   C669    1.521   .     S
C634   C636    1.410   .     A
C637   H643    1.082   .     S
C637   N648    1.367   .     A
C638   N647    1.367   .     A
C638   H644    1.082   .     S
C638   C1072   1.416   .     S
C639   N647    1.367   .     A
C639   H645    1.081   .     S
C639   C1069   1.416   .     S
C640   N648    1.367   .     A
C640   H646    1.081   .     S
Cu641  O653    1.984   .     S
Cu641  O649    1.957   .     S
Cu641  Cu642   2.678   .     S
Cu641  N647    2.012   .     S
Cu641  O656    1.987   .     S
Cu641  O652    1.958   .     S
Cu642  O654    1.984   .     S
Cu642  O650    1.957   .     S
Cu642  N648    2.012   .     S
Cu642  O655    1.987   .     S
Cu642  O651    1.958   .     S
C657   N658    1.158   .     T
C657   C677    1.457   .     S
C659   N660    1.158   .     T
C661   N662    1.157   .     T
C663   N664    1.157   .     T
C665   H666    1.109   .     S
C665   H667    1.107   .     S
C665   H668    1.111   .     S
C669   H670    1.109   .     S
C669   H671    1.111   .     S
C669   H672    1.107   .     S
C673   O697    1.287   .     A
C673   C684    1.447   .     S
C673   O699    1.288   .     A
C674   C683    1.447   .     S
C674   O698    1.287   .     A
C674   O700    1.288   .     A
C675   O703    1.293   .     A
C675   O701    1.283   .     A
C675   C677    1.441   .     S
C676   O704    1.293   .     A
C676   C678    1.441   .     S
C676   O702    1.283   .     A
C678   C581    1.365   1_655 S
C678   C611    1.457   1_655 S
C679   C709    1.451   .     S
C679   C684    1.409   .     A
C680   C711    1.451   .     S
C680   C683    1.409   .     A
C680   C826    1.403   .     S
C681   C713    1.521   .     S
C681   C683    1.410   .     A
C681   C823    1.403   .     S
C682   C717    1.521   .     S
C682   C684    1.410   .     A
C685   H691    1.082   .     S
C685   N696    1.367   .     A
C686   N695    1.367   .     A
C686   H692    1.082   .     S
C686   C1120   1.416   .     S
C687   N695    1.367   .     A
C687   H693    1.081   .     S
C687   C1117   1.416   .     S
C688   N696    1.367   .     A
C688   H694    1.081   .     S
Cu689  O701    1.984   .     S
Cu689  O697    1.957   .     S
Cu689  Cu690   2.678   .     S
Cu689  N695    2.012   .     S
Cu689  O704    1.987   .     S
Cu689  O700    1.958   .     S
Cu690  O702    1.984   .     S
Cu690  O698    1.957   .     S
Cu690  N696    2.012   .     S
Cu690  O703    1.987   .     S
Cu690  O699    1.958   .     S
C705   N706    1.158   .     T
C705   C581    1.457   1_655 S
C707   N708    1.158   .     T
C709   N710    1.157   .     T
C711   N712    1.157   .     T
C713   H714    1.109   .     S
C713   H715    1.107   .     S
C713   H716    1.111   .     S
C717   H718    1.109   .     S
C717   H719    1.111   .     S
C717   H720    1.107   .     S
C721   O745    1.287   .     A
C721   C732    1.447   .     S
C721   O747    1.288   .     A
C722   C731    1.447   .     S
C722   O746    1.287   .     A
C722   O748    1.288   .     A
C723   O751    1.293   .     A
C723   O749    1.283   .     A
C723   C725    1.441   .     S
C724   O752    1.293   .     A
C724   C726    1.441   .     S
C724   O750    1.283   .     A
C725   C822    1.365   1_455 S
C725   C849    1.457   1_455 S
C726   C773    1.365   .     S
C726   C803    1.457   .     S
C727   C757    1.451   .     S
C727   C732    1.409   .     A
C728   C759    1.451   .     S
C728   C731    1.409   .     A
C728   C442    1.403   1_565 S
C729   C761    1.521   .     S
C729   C731    1.410   .     A
C729   C439    1.403   1_565 S
C730   C765    1.521   .     S
C730   C732    1.410   .     A
C733   H739    1.082   .     S
C733   N744    1.367   .     A
C734   N743    1.367   .     A
C734   H740    1.082   .     S
C734   C1168   1.416   .     S
C735   N743    1.367   .     A
C735   H741    1.081   .     S
C735   C1165   1.416   .     S
C736   N744    1.367   .     A
C736   H742    1.081   .     S
Cu737  O749    1.984   .     S
Cu737  O745    1.957   .     S
Cu737  Cu738   2.678   .     S
Cu737  N743    2.012   .     S
Cu737  O752    1.987   .     S
Cu737  O748    1.958   .     S
Cu738  O750    1.984   .     S
Cu738  O746    1.957   .     S
Cu738  N744    2.012   .     S
Cu738  O751    1.987   .     S
Cu738  O747    1.958   .     S
C753   N754    1.158   .     T
C753   C773    1.457   .     S
C755   N756    1.158   .     T
C755   C822    1.457   1_455 S
C757   N758    1.157   .     T
C759   N760    1.157   .     T
C761   H762    1.109   .     S
C761   H763    1.107   .     S
C761   H764    1.111   .     S
C765   H766    1.109   .     S
C765   H767    1.111   .     S
C765   H768    1.107   .     S
C769   O793    1.287   .     A
C769   C780    1.447   .     S
C769   O795    1.288   .     A
C770   C779    1.447   .     S
C770   O794    1.287   .     A
C770   O796    1.288   .     A
C771   O799    1.293   .     A
C771   O797    1.283   .     A
C771   C773    1.441   .     S
C772   O800    1.293   .     A
C772   C774    1.441   .     S
C772   O798    1.283   .     A
C774   C821    1.365   .     S
C774   C851    1.457   .     S
C775   C805    1.451   .     S
C775   C780    1.409   .     A
C776   C807    1.451   .     S
C776   C779    1.409   .     A
C776   C490    1.403   1_565 S
C777   C809    1.521   .     S
C777   C779    1.410   .     A
C777   C487    1.403   1_565 S
C778   C813    1.521   .     S
C778   C780    1.410   .     A
C781   H787    1.082   .     S
C781   N792    1.367   .     A
C782   N791    1.367   .     A
C782   H788    1.082   .     S
C782   C1216   1.416   .     S
C783   N791    1.367   .     A
C783   H789    1.081   .     S
C783   C1213   1.416   .     S
C784   N792    1.367   .     A
C784   H790    1.081   .     S
Cu785  O797    1.984   .     S
Cu785  O793    1.957   .     S
Cu785  Cu786   2.678   .     S
Cu785  N791    2.012   .     S
Cu785  O800    1.987   .     S
Cu785  O796    1.958   .     S
Cu786  O798    1.984   .     S
Cu786  O794    1.957   .     S
Cu786  N792    2.012   .     S
Cu786  O799    1.987   .     S
Cu786  O795    1.958   .     S
C801   N802    1.158   .     T
C801   C821    1.457   .     S
C803   N804    1.158   .     T
C805   N806    1.157   .     T
C807   N808    1.157   .     T
C809   H810    1.109   .     S
C809   H811    1.107   .     S
C809   H812    1.111   .     S
C813   H814    1.109   .     S
C813   H815    1.111   .     S
C813   H816    1.107   .     S
C817   O841    1.287   .     A
C817   C828    1.447   .     S
C817   O843    1.288   .     A
C818   C827    1.447   .     S
C818   O842    1.287   .     A
C818   O844    1.288   .     A
C819   O847    1.293   .     A
C819   O845    1.283   .     A
C819   C821    1.441   .     S
C820   O848    1.293   .     A
C820   C822    1.441   .     S
C820   O846    1.283   .     A
C822   C725    1.365   1_655 S
C822   C755    1.457   1_655 S
C823   C853    1.451   .     S
C823   C828    1.409   .     A
C824   C855    1.451   .     S
C824   C827    1.409   .     A
C824   C538    1.403   1_565 S
C825   C857    1.521   .     S
C825   C827    1.410   .     A
C825   C535    1.403   1_565 S
C826   C861    1.521   .     S
C826   C828    1.410   .     A
C829   H835    1.082   .     S
C829   N840    1.367   .     A
C830   N839    1.367   .     A
C830   H836    1.082   .     S
C830   C1264   1.416   .     S
C831   N839    1.367   .     A
C831   H837    1.081   .     S
C831   C1261   1.416   .     S
C832   N840    1.367   .     A
C832   H838    1.081   .     S
Cu833  O845    1.984   .     S
Cu833  O841    1.957   .     S
Cu833  Cu834   2.678   .     S
Cu833  N839    2.012   .     S
Cu833  O848    1.987   .     S
Cu833  O844    1.958   .     S
Cu834  O846    1.984   .     S
Cu834  O842    1.957   .     S
Cu834  N840    2.012   .     S
Cu834  O847    1.987   .     S
Cu834  O843    1.958   .     S
C849   N850    1.158   .     T
C849   C725    1.457   1_655 S
C851   N852    1.158   .     T
C853   N854    1.157   .     T
C855   N856    1.157   .     T
C857   H858    1.109   .     S
C857   H859    1.107   .     S
C857   H860    1.111   .     S
C861   H862    1.109   .     S
C861   H863    1.111   .     S
C861   H864    1.107   .     S
C865   O889    1.287   .     A
C865   C876    1.447   .     S
C865   O891    1.288   .     A
C866   C875    1.447   .     S
C866   O890    1.287   .     A
C866   O892    1.288   .     A
C867   O895    1.293   .     A
C867   O893    1.283   .     A
C867   C869    1.441   .     S
C868   O896    1.293   .     A
C868   C870    1.441   .     S
C868   O894    1.283   .     A
C869   C966    1.365   1_455 S
C869   C993    1.457   1_455 S
C870   C917    1.365   .     S
C870   C947    1.457   .     S
C871   C901    1.451   .     S
C871   C876    1.409   .     A
C871   C1161   1.403   1_545 S
C872   C903    1.451   .     S
C872   C875    1.409   .     A
C872   C1018   1.403   .     S
C873   C905    1.521   .     S
C873   C875    1.410   .     A
C873   C1015   1.403   .     S
C874   C909    1.521   .     S
C874   C876    1.410   .     A
C874   C1160   1.403   1_545 S
C877   H883    1.082   .     S
C877   N888    1.367   .     A
C878   N887    1.367   .     A
C878   H884    1.082   .     S
C878   C16     1.416   1_556 S
C879   N887    1.367   .     A
C879   H885    1.081   .     S
C879   C13     1.416   1_556 S
C880   N888    1.367   .     A
C880   H886    1.081   .     S
Cu881  O893    1.984   .     S
Cu881  O889    1.957   .     S
Cu881  Cu882   2.678   .     S
Cu881  N887    2.012   .     S
Cu881  O896    1.987   .     S
Cu881  O892    1.958   .     S
Cu882  O894    1.984   .     S
Cu882  O890    1.957   .     S
Cu882  N888    2.012   .     S
Cu882  O895    1.987   .     S
Cu882  O891    1.958   .     S
C897   N898    1.158   .     T
C897   C917    1.457   .     S
C899   N900    1.158   .     T
C899   C966    1.457   1_455 S
C901   N902    1.157   .     T
C903   N904    1.157   .     T
C905   H906    1.109   .     S
C905   H907    1.107   .     S
C905   H908    1.111   .     S
C909   H910    1.109   .     S
C909   H911    1.111   .     S
C909   H912    1.107   .     S
C913   O937    1.287   .     A
C913   C924    1.447   .     S
C913   O939    1.288   .     A
C914   C923    1.447   .     S
C914   O938    1.287   .     A
C914   O940    1.288   .     A
C915   O943    1.293   .     A
C915   O941    1.283   .     A
C915   C917    1.441   .     S
C916   O944    1.293   .     A
C916   C918    1.441   .     S
C916   O942    1.283   .     A
C918   C965    1.365   .     S
C918   C995    1.457   .     S
C919   C949    1.451   .     S
C919   C924    1.409   .     A
C919   C1209   1.403   1_545 S
C920   C951    1.451   .     S
C920   C923    1.409   .     A
C920   C1066   1.403   .     S
C921   C953    1.521   .     S
C921   C923    1.410   .     A
C921   C1063   1.403   .     S
C922   C957    1.521   .     S
C922   C924    1.410   .     A
C922   C1208   1.403   1_545 S
C925   H931    1.082   .     S
C925   N936    1.367   .     A
C926   N935    1.367   .     A
C926   H932    1.082   .     S
C926   C64     1.416   1_556 S
C927   N935    1.367   .     A
C927   H933    1.081   .     S
C927   C61     1.416   1_556 S
C928   N936    1.367   .     A
C928   H934    1.081   .     S
Cu929  O941    1.984   .     S
Cu929  O937    1.957   .     S
Cu929  Cu930   2.678   .     S
Cu929  N935    2.012   .     S
Cu929  O944    1.987   .     S
Cu929  O940    1.958   .     S
Cu930  O942    1.984   .     S
Cu930  O938    1.957   .     S
Cu930  N936    2.012   .     S
Cu930  O943    1.987   .     S
Cu930  O939    1.958   .     S
C945   N946    1.158   .     T
C945   C965    1.457   .     S
C947   N948    1.158   .     T
C949   N950    1.157   .     T
C951   N952    1.157   .     T
C953   H954    1.109   .     S
C953   H955    1.107   .     S
C953   H956    1.111   .     S
C957   H958    1.109   .     S
C957   H959    1.111   .     S
C957   H960    1.107   .     S
C961   O985    1.287   .     A
C961   C972    1.447   .     S
C961   O987    1.288   .     A
C962   C971    1.447   .     S
C962   O986    1.287   .     A
C962   O988    1.288   .     A
C963   O991    1.293   .     A
C963   O989    1.283   .     A
C963   C965    1.441   .     S
C964   O992    1.293   .     A
C964   C966    1.441   .     S
C964   O990    1.283   .     A
C966   C869    1.365   1_655 S
C966   C899    1.457   1_655 S
C967   C997    1.451   .     S
C967   C972    1.409   .     A
C967   C1257   1.403   1_545 S
C968   C999    1.451   .     S
C968   C971    1.409   .     A
C968   C1114   1.403   .     S
C969   C1001   1.521   .     S
C969   C971    1.410   .     A
C969   C1111   1.403   .     S
C970   C1005   1.521   .     S
C970   C972    1.410   .     A
C970   C1256   1.403   1_545 S
C973   H979    1.082   .     S
C973   N984    1.367   .     A
C974   N983    1.367   .     A
C974   H980    1.082   .     S
C974   C112    1.416   1_556 S
C975   N983    1.367   .     A
C975   H981    1.081   .     S
C975   C109    1.416   1_556 S
C976   N984    1.367   .     A
C976   H982    1.081   .     S
Cu977  O989    1.984   .     S
Cu977  O985    1.957   .     S
Cu977  Cu978   2.678   .     S
Cu977  N983    2.012   .     S
Cu977  O992    1.987   .     S
Cu977  O988    1.958   .     S
Cu978  O990    1.984   .     S
Cu978  O986    1.957   .     S
Cu978  N984    2.012   .     S
Cu978  O991    1.987   .     S
Cu978  O987    1.958   .     S
C993   N994    1.158   .     T
C993   C869    1.457   1_655 S
C995   N996    1.158   .     T
C997   N998    1.157   .     T
C999   N1000   1.157   .     T
C1001  H1002   1.109   .     S
C1001  H1003   1.107   .     S
C1001  H1004   1.111   .     S
C1005  H1006   1.109   .     S
C1005  H1007   1.111   .     S
C1005  H1008   1.107   .     S
C1009  O1033   1.287   .     A
C1009  C1020   1.447   .     S
C1009  O1035   1.288   .     A
C1010  C1019   1.447   .     S
C1010  O1034   1.287   .     A
C1010  O1036   1.288   .     A
C1011  O1039   1.293   .     A
C1011  O1037   1.283   .     A
C1011  C1013   1.441   .     S
C1012  O1040   1.293   .     A
C1012  C1014   1.441   .     S
C1012  O1038   1.283   .     A
C1013  C1110   1.365   1_455 S
C1013  C1137   1.457   1_455 S
C1014  C1061   1.365   .     S
C1014  C1091   1.457   .     S
C1015  C1045   1.451   .     S
C1015  C1020   1.409   .     A
C1016  C1047   1.451   .     S
C1016  C1019   1.409   .     A
C1016  C1162   1.403   .     S
C1017  C1049   1.521   .     S
C1017  C1019   1.410   .     A
C1017  C1159   1.403   .     S
C1018  C1053   1.521   .     S
C1018  C1020   1.410   .     A
C1021  H1027   1.082   .     S
C1021  N1032   1.367   .     A
C1022  N1031   1.367   .     A
C1022  H1028   1.082   .     S
C1022  C160    1.416   1_556 S
C1023  N1031   1.367   .     A
C1023  H1029   1.081   .     S
C1023  C157    1.416   1_556 S
C1024  N1032   1.367   .     A
C1024  H1030   1.081   .     S
Cu1025 O1037   1.984   .     S
Cu1025 O1033   1.957   .     S
Cu1025 Cu1026  2.678   .     S
Cu1025 N1031   2.012   .     S
Cu1025 O1040   1.987   .     S
Cu1025 O1036   1.958   .     S
Cu1026 O1038   1.984   .     S
Cu1026 O1034   1.957   .     S
Cu1026 N1032   2.012   .     S
Cu1026 O1039   1.987   .     S
Cu1026 O1035   1.958   .     S
C1041  N1042   1.158   .     T
C1041  C1061   1.457   .     S
C1043  N1044   1.158   .     T
C1043  C1110   1.457   1_455 S
C1045  N1046   1.157   .     T
C1047  N1048   1.157   .     T
C1049  H1050   1.109   .     S
C1049  H1051   1.107   .     S
C1049  H1052   1.111   .     S
C1053  H1054   1.109   .     S
C1053  H1055   1.111   .     S
C1053  H1056   1.107   .     S
C1057  O1081   1.287   .     A
C1057  C1068   1.447   .     S
C1057  O1083   1.288   .     A
C1058  C1067   1.447   .     S
C1058  O1082   1.287   .     A
C1058  O1084   1.288   .     A
C1059  O1087   1.293   .     A
C1059  O1085   1.283   .     A
C1059  C1061   1.441   .     S
C1060  O1088   1.293   .     A
C1060  C1062   1.441   .     S
C1060  O1086   1.283   .     A
C1062  C1109   1.365   .     S
C1062  C1139   1.457   .     S
C1063  C1093   1.451   .     S
C1063  C1068   1.409   .     A
C1064  C1095   1.451   .     S
C1064  C1067   1.409   .     A
C1064  C1210   1.403   .     S
C1065  C1097   1.521   .     S
C1065  C1067   1.410   .     A
C1065  C1207   1.403   .     S
C1066  C1101   1.521   .     S
C1066  C1068   1.410   .     A
C1069  H1075   1.082   .     S
C1069  N1080   1.367   .     A
C1070  N1079   1.367   .     A
C1070  H1076   1.082   .     S
C1070  C208    1.416   1_556 S
C1071  N1079   1.367   .     A
C1071  H1077   1.081   .     S
C1071  C205    1.416   1_556 S
C1072  N1080   1.367   .     A
C1072  H1078   1.081   .     S
Cu1073 O1085   1.984   .     S
Cu1073 O1081   1.957   .     S
Cu1073 Cu1074  2.678   .     S
Cu1073 N1079   2.012   .     S
Cu1073 O1088   1.987   .     S
Cu1073 O1084   1.958   .     S
Cu1074 O1086   1.984   .     S
Cu1074 O1082   1.957   .     S
Cu1074 N1080   2.012   .     S
Cu1074 O1087   1.987   .     S
Cu1074 O1083   1.958   .     S
C1089  N1090   1.158   .     T
C1089  C1109   1.457   .     S
C1091  N1092   1.158   .     T
C1093  N1094   1.157   .     T
C1095  N1096   1.157   .     T
C1097  H1098   1.109   .     S
C1097  H1099   1.107   .     S
C1097  H1100   1.111   .     S
C1101  H1102   1.109   .     S
C1101  H1103   1.111   .     S
C1101  H1104   1.107   .     S
C1105  O1129   1.287   .     A
C1105  C1116   1.447   .     S
C1105  O1131   1.288   .     A
C1106  C1115   1.447   .     S
C1106  O1130   1.287   .     A
C1106  O1132   1.288   .     A
C1107  O1135   1.293   .     A
C1107  O1133   1.283   .     A
C1107  C1109   1.441   .     S
C1108  O1136   1.293   .     A
C1108  C1110   1.441   .     S
C1108  O1134   1.283   .     A
C1110  C1013   1.365   1_655 S
C1110  C1043   1.457   1_655 S
C1111  C1141   1.451   .     S
C1111  C1116   1.409   .     A
C1112  C1143   1.451   .     S
C1112  C1115   1.409   .     A
C1112  C1258   1.403   .     S
C1113  C1145   1.521   .     S
C1113  C1115   1.410   .     A
C1113  C1255   1.403   .     S
C1114  C1149   1.521   .     S
C1114  C1116   1.410   .     A
C1117  H1123   1.082   .     S
C1117  N1128   1.367   .     A
C1118  N1127   1.367   .     A
C1118  H1124   1.082   .     S
C1118  C256    1.416   1_556 S
C1119  N1127   1.367   .     A
C1119  H1125   1.081   .     S
C1119  C253    1.416   1_556 S
C1120  N1128   1.367   .     A
C1120  H1126   1.081   .     S
Cu1121 O1133   1.984   .     S
Cu1121 O1129   1.957   .     S
Cu1121 Cu1122  2.678   .     S
Cu1121 N1127   2.012   .     S
Cu1121 O1136   1.987   .     S
Cu1121 O1132   1.958   .     S
Cu1122 O1134   1.984   .     S
Cu1122 O1130   1.957   .     S
Cu1122 N1128   2.012   .     S
Cu1122 O1135   1.987   .     S
Cu1122 O1131   1.958   .     S
C1137  N1138   1.158   .     T
C1137  C1013   1.457   1_655 S
C1139  N1140   1.158   .     T
C1141  N1142   1.157   .     T
C1143  N1144   1.157   .     T
C1145  H1146   1.109   .     S
C1145  H1147   1.107   .     S
C1145  H1148   1.111   .     S
C1149  H1150   1.109   .     S
C1149  H1151   1.111   .     S
C1149  H1152   1.107   .     S
C1153  O1177   1.287   .     A
C1153  C1164   1.447   .     S
C1153  O1179   1.288   .     A
C1154  C1163   1.447   .     S
C1154  O1178   1.287   .     A
C1154  O1180   1.288   .     A
C1155  O1183   1.293   .     A
C1155  O1181   1.283   .     A
C1155  C1157   1.441   .     S
C1156  O1184   1.293   .     A
C1156  C1158   1.441   .     S
C1156  O1182   1.283   .     A
C1157  C1254   1.365   1_455 S
C1157  C1281   1.457   1_455 S
C1158  C1205   1.365   .     S
C1158  C1235   1.457   .     S
C1159  C1189   1.451   .     S
C1159  C1164   1.409   .     A
C1160  C1191   1.451   .     S
C1160  C1163   1.409   .     A
C1160  C874    1.403   1_565 S
C1161  C1193   1.521   .     S
C1161  C1163   1.410   .     A
C1161  C871    1.403   1_565 S
C1162  C1197   1.521   .     S
C1162  C1164   1.410   .     A
C1165  H1171   1.082   .     S
C1165  N1176   1.367   .     A
C1166  N1175   1.367   .     A
C1166  H1172   1.082   .     S
C1166  C304    1.416   1_556 S
C1167  N1175   1.367   .     A
C1167  H1173   1.081   .     S
C1167  C301    1.416   1_556 S
C1168  N1176   1.367   .     A
C1168  H1174   1.081   .     S
Cu1169 O1181   1.984   .     S
Cu1169 O1177   1.957   .     S
Cu1169 Cu1170  2.678   .     S
Cu1169 N1175   2.012   .     S
Cu1169 O1184   1.987   .     S
Cu1169 O1180   1.958   .     S
Cu1170 O1182   1.984   .     S
Cu1170 O1178   1.957   .     S
Cu1170 N1176   2.012   .     S
Cu1170 O1183   1.987   .     S
Cu1170 O1179   1.958   .     S
C1185  N1186   1.158   .     T
C1185  C1205   1.457   .     S
C1187  N1188   1.158   .     T
C1187  C1254   1.457   1_455 S
C1189  N1190   1.157   .     T
C1191  N1192   1.157   .     T
C1193  H1194   1.109   .     S
C1193  H1195   1.107   .     S
C1193  H1196   1.111   .     S
C1197  H1198   1.109   .     S
C1197  H1199   1.111   .     S
C1197  H1200   1.107   .     S
C1201  O1225   1.287   .     A
C1201  C1212   1.447   .     S
C1201  O1227   1.288   .     A
C1202  C1211   1.447   .     S
C1202  O1226   1.287   .     A
C1202  O1228   1.288   .     A
C1203  O1231   1.293   .     A
C1203  O1229   1.283   .     A
C1203  C1205   1.441   .     S
C1204  O1232   1.293   .     A
C1204  C1206   1.441   .     S
C1204  O1230   1.283   .     A
C1206  C1253   1.365   .     S
C1206  C1283   1.457   .     S
C1207  C1237   1.451   .     S
C1207  C1212   1.409   .     A
C1208  C1239   1.451   .     S
C1208  C1211   1.409   .     A
C1208  C922    1.403   1_565 S
C1209  C1241   1.521   .     S
C1209  C1211   1.410   .     A
C1209  C919    1.403   1_565 S
C1210  C1245   1.521   .     S
C1210  C1212   1.410   .     A
C1213  H1219   1.082   .     S
C1213  N1224   1.367   .     A
C1214  N1223   1.367   .     A
C1214  H1220   1.082   .     S
C1214  C352    1.416   1_556 S
C1215  N1223   1.367   .     A
C1215  H1221   1.081   .     S
C1215  C349    1.416   1_556 S
C1216  N1224   1.367   .     A
C1216  H1222   1.081   .     S
Cu1217 O1229   1.984   .     S
Cu1217 O1225   1.957   .     S
Cu1217 Cu1218  2.678   .     S
Cu1217 N1223   2.012   .     S
Cu1217 O1232   1.987   .     S
Cu1217 O1228   1.958   .     S
Cu1218 O1230   1.984   .     S
Cu1218 O1226   1.957   .     S
Cu1218 N1224   2.012   .     S
Cu1218 O1231   1.987   .     S
Cu1218 O1227   1.958   .     S
C1233  N1234   1.158   .     T
C1233  C1253   1.457   .     S
C1235  N1236   1.158   .     T
C1237  N1238   1.157   .     T
C1239  N1240   1.157   .     T
C1241  H1242   1.109   .     S
C1241  H1243   1.107   .     S
C1241  H1244   1.111   .     S
C1245  H1246   1.109   .     S
C1245  H1247   1.111   .     S
C1245  H1248   1.107   .     S
C1249  O1273   1.287   .     A
C1249  C1260   1.447   .     S
C1249  O1275   1.288   .     A
C1250  C1259   1.447   .     S
C1250  O1274   1.287   .     A
C1250  O1276   1.288   .     A
C1251  O1279   1.293   .     A
C1251  O1277   1.283   .     A
C1251  C1253   1.441   .     S
C1252  O1280   1.293   .     A
C1252  C1254   1.441   .     S
C1252  O1278   1.283   .     A
C1254  C1157   1.365   1_655 S
C1254  C1187   1.457   1_655 S
C1255  C1285   1.451   .     S
C1255  C1260   1.409   .     A
C1256  C1287   1.451   .     S
C1256  C1259   1.409   .     A
C1256  C970    1.403   1_565 S
C1257  C1289   1.521   .     S
C1257  C1259   1.410   .     A
C1257  C967    1.403   1_565 S
C1258  C1293   1.521   .     S
C1258  C1260   1.410   .     A
C1261  H1267   1.082   .     S
C1261  N1272   1.367   .     A
C1262  N1271   1.367   .     A
C1262  H1268   1.082   .     S
C1262  C400    1.416   1_556 S
C1263  N1271   1.367   .     A
C1263  H1269   1.081   .     S
C1263  C397    1.416   1_556 S
C1264  N1272   1.367   .     A
C1264  H1270   1.081   .     S
Cu1265 O1277   1.984   .     S
Cu1265 O1273   1.957   .     S
Cu1265 Cu1266  2.678   .     S
Cu1265 N1271   2.012   .     S
Cu1265 O1280   1.987   .     S
Cu1265 O1276   1.958   .     S
Cu1266 O1278   1.984   .     S
Cu1266 O1274   1.957   .     S
Cu1266 N1272   2.012   .     S
Cu1266 O1279   1.987   .     S
Cu1266 O1275   1.958   .     S
C1281  N1282   1.158   .     T
C1281  C1157   1.457   1_655 S
C1283  N1284   1.158   .     T
C1285  N1286   1.157   .     T
C1287  N1288   1.157   .     T
C1289  H1290   1.109   .     S
C1289  H1291   1.107   .     S
C1289  H1292   1.111   .     S
C1293  H1294   1.109   .     S
C1293  H1295   1.111   .     S
C1293  H1296   1.107   .     S
