data_str_m3_o1_o2_pcu_sym.79
_audit_creation_date              2020-01-03
_audit_creation_method            'Materials Studio'
_symmetry_space_group_name_H-M    'P1'
_symmetry_Int_Tables_number       1
_symmetry_cell_setting            triclinic
loop_
_symmetry_equiv_pos_as_xyz
  x,y,z
_cell_length_a                    31.9549
_cell_length_b                    29.7332
_cell_length_c                    30.1729
_cell_angle_alpha                 90.0001
_cell_angle_beta                  93.2729
_cell_angle_gamma                 90.0000
loop_
_atom_site_label
_atom_site_type_symbol
_atom_site_fract_x
_atom_site_fract_y
_atom_site_fract_z
_atom_site_U_iso_or_equiv
_atom_site_adp_type
_atom_site_occupancy
Br1    Br    0.19598   0.26496   0.12001   0.00000  Uiso   1.00
Br2    Br    0.13736   0.06837   0.37999   0.00000  Uiso   1.00
Br3    Br    0.13736   0.26496   0.37999   0.00000  Uiso   1.00
Br4    Br    0.19598   0.06837   0.12001   0.00000  Uiso   1.00
C5     C     0.08704   0.16667   0.25538   0.00000  Uiso   1.00
C6     C     0.31265   0.20768   0.24206   0.00000  Uiso   1.00
C7     C     0.31265   0.12565   0.24206   0.00000  Uiso   1.00
C8     C     0.02069   0.20768   0.25794   0.00000  Uiso   1.00
C9     C     0.17838   0.20710   0.04769   0.00000  Uiso   1.00
C10    C     0.15494   0.12623   0.45231   0.00000  Uiso   1.00
C11    C     0.15494   0.20710   0.45231   0.00000  Uiso   1.00
C12    C     0.17838   0.12623   0.04769   0.00000  Uiso   1.00
C13    C     0.18208   0.20750   0.09354   0.00000  Uiso   1.00
C14    C     0.15125   0.12583   0.40646   0.00000  Uiso   1.00
C15    C     0.15125   0.20750   0.40646   0.00000  Uiso   1.00
C16    C     0.24629   0.16667   0.24462   0.00000  Uiso   1.00
C17    C     0.18208   0.12583   0.09354   0.00000  Uiso   1.00
C18    C     0.17849   0.16667   0.11702   0.00000  Uiso   1.00
C19    C     0.15485   0.16667   0.38298   0.00000  Uiso   1.00
C20    C     0.17195   0.16667   0.02425   0.00000  Uiso   1.00
C21    C     0.16138   0.16667   0.47575   0.00000  Uiso   1.00
C22    C     0.29092   0.16667   0.23916   0.00000  Uiso   1.00
C23    C     0.04242   0.16667   0.26084   0.00000  Uiso   1.00
C24    C     0.17073   0.16667   0.16436   0.00000  Uiso   1.00
C25    C     0.16261   0.16667   0.33564   0.00000  Uiso   1.00
C26    C     0.19375   0.02395   0.27840   0.00000  Uiso   1.00
C27    C     0.13959   0.30938   0.22160   0.00000  Uiso   1.00
C28    C     0.13959   0.02395   0.22160   0.00000  Uiso   1.00
C29    C     0.19375   0.30938   0.27840   0.00000  Uiso   1.00
C30    C     0.02069   0.12565   0.25794   0.00000  Uiso   1.00
H31    H     0.18127   0.23903   0.03133   0.00000  Uiso   1.00
H32    H     0.15206   0.09430   0.46866   0.00000  Uiso   1.00
H33    H     0.15206   0.23903   0.46867   0.00000  Uiso   1.00
H34    H     0.18127   0.09430   0.03133   0.00000  Uiso   1.00
I35    I     0.23686   0.05859   0.32347   0.00000  Uiso   1.00
I36    I     0.09648   0.27474   0.17653   0.00000  Uiso   1.00
I37    I     0.09648   0.05859   0.17653   0.00000  Uiso   1.00
I38    I     0.23686   0.27474   0.32347   0.00000  Uiso   1.00
I39    I     0.04485   0.06592   0.28955   0.00000  Uiso   1.00
I40    I     0.28848   0.26741   0.21045   0.00000  Uiso   1.00
I41    I     0.28848   0.06592   0.21045   0.00000  Uiso   1.00
I42    I     0.04485   0.26741   0.28955   0.00000  Uiso   1.00
N43    N     0.16667   0.28573   0.25000   0.00000  Uiso   1.00
N44    N     0.16667   0.04760   0.25000   0.00000  Uiso   1.00
O45    O     0.10559   0.20487   0.25000   0.00000  Uiso   1.00
O46    O     0.22774   0.12846   0.25001   0.00000  Uiso   1.00
O47    O     0.22774   0.20487   0.25001   0.00000  Uiso   1.00
O48    O     0.10559   0.12846   0.25000   0.00000  Uiso   1.00
O49    O     0.16666   0.20489   0.18453   0.00000  Uiso   1.00
O50    O     0.16667   0.12845   0.31547   0.00000  Uiso   1.00
O51    O     0.16667   0.20489   0.31547   0.00000  Uiso   1.00
O52    O     0.16666   0.12845   0.18453   0.00000  Uiso   1.00
Zn53   Zn    0.16667   0.21771   0.25000   0.00000  Uiso   1.00
Zn54   Zn    0.16667   0.11563   0.25000   0.00000  Uiso   1.00
Br55   Br    0.52931   0.26496   0.12001   0.00000  Uiso   1.00
Br56   Br    0.47069   0.06837   0.37999   0.00000  Uiso   1.00
Br57   Br    0.47069   0.26496   0.37999   0.00000  Uiso   1.00
Br58   Br    0.52931   0.06837   0.12001   0.00000  Uiso   1.00
C59    C     0.42037   0.16667   0.25538   0.00000  Uiso   1.00
C60    C     0.64598   0.20768   0.24206   0.00000  Uiso   1.00
C61    C     0.64598   0.12565   0.24206   0.00000  Uiso   1.00
C62    C     0.35402   0.20768   0.25794   0.00000  Uiso   1.00
C63    C     0.51172   0.20710   0.04769   0.00000  Uiso   1.00
C64    C     0.48828   0.12623   0.45231   0.00000  Uiso   1.00
C65    C     0.48828   0.20710   0.45231   0.00000  Uiso   1.00
C66    C     0.51172   0.12623   0.04769   0.00000  Uiso   1.00
C67    C     0.51542   0.20750   0.09354   0.00000  Uiso   1.00
C68    C     0.48458   0.12583   0.40646   0.00000  Uiso   1.00
C69    C     0.48458   0.20750   0.40646   0.00000  Uiso   1.00
C70    C     0.57963   0.16667   0.24462   0.00000  Uiso   1.00
C71    C     0.51542   0.12583   0.09354   0.00000  Uiso   1.00
C72    C     0.51182   0.16667   0.11702   0.00000  Uiso   1.00
C73    C     0.48818   0.16667   0.38298   0.00000  Uiso   1.00
C74    C     0.50528   0.16667   0.02425   0.00000  Uiso   1.00
C75    C     0.49471   0.16667   0.47575   0.00000  Uiso   1.00
C76    C     0.62425   0.16667   0.23916   0.00000  Uiso   1.00
C77    C     0.37575   0.16667   0.26084   0.00000  Uiso   1.00
C78    C     0.50406   0.16667   0.16436   0.00000  Uiso   1.00
C79    C     0.49594   0.16667   0.33564   0.00000  Uiso   1.00
C80    C     0.52708   0.02395   0.27840   0.00000  Uiso   1.00
C81    C     0.47292   0.30938   0.22160   0.00000  Uiso   1.00
C82    C     0.47292   0.02395   0.22160   0.00000  Uiso   1.00
C83    C     0.52708   0.30938   0.27840   0.00000  Uiso   1.00
C84    C     0.35402   0.12565   0.25794   0.00000  Uiso   1.00
H85    H     0.51460   0.23903   0.03133   0.00000  Uiso   1.00
H86    H     0.48539   0.09430   0.46866   0.00000  Uiso   1.00
H87    H     0.48539   0.23903   0.46867   0.00000  Uiso   1.00
H88    H     0.51460   0.09430   0.03133   0.00000  Uiso   1.00
I89    I     0.57019   0.05859   0.32347   0.00000  Uiso   1.00
I90    I     0.42981   0.27474   0.17653   0.00000  Uiso   1.00
I91    I     0.42981   0.05859   0.17653   0.00000  Uiso   1.00
I92    I     0.57019   0.27474   0.32347   0.00000  Uiso   1.00
I93    I     0.37818   0.06592   0.28955   0.00000  Uiso   1.00
I94    I     0.62182   0.26741   0.21045   0.00000  Uiso   1.00
I95    I     0.62182   0.06592   0.21045   0.00000  Uiso   1.00
I96    I     0.37818   0.26741   0.28955   0.00000  Uiso   1.00
N97    N     0.50000   0.28573   0.25000   0.00000  Uiso   1.00
N98    N     0.50000   0.04760   0.25000   0.00000  Uiso   1.00
O99    O     0.43892   0.20487   0.25000   0.00000  Uiso   1.00
O100   O     0.56108   0.12846   0.25001   0.00000  Uiso   1.00
O101   O     0.56108   0.20487   0.25001   0.00000  Uiso   1.00
O102   O     0.43892   0.12846   0.25000   0.00000  Uiso   1.00
O103   O     0.50000   0.20489   0.18453   0.00000  Uiso   1.00
O104   O     0.50000   0.12845   0.31547   0.00000  Uiso   1.00
O105   O     0.50000   0.20489   0.31547   0.00000  Uiso   1.00
O106   O     0.50000   0.12845   0.18453   0.00000  Uiso   1.00
Zn107  Zn    0.50000   0.21771   0.25000   0.00000  Uiso   1.00
Zn108  Zn    0.50000   0.11563   0.25000   0.00000  Uiso   1.00
Br109  Br    0.86264   0.26496   0.12001   0.00000  Uiso   1.00
Br110  Br    0.80402   0.06837   0.37999   0.00000  Uiso   1.00
Br111  Br    0.80402   0.26496   0.37999   0.00000  Uiso   1.00
Br112  Br    0.86264   0.06837   0.12001   0.00000  Uiso   1.00
C113   C     0.75371   0.16667   0.25538   0.00000  Uiso   1.00
C114   C     0.97931   0.20768   0.24206   0.00000  Uiso   1.00
C115   C     0.97931   0.12565   0.24206   0.00000  Uiso   1.00
C116   C     0.68735   0.20768   0.25794   0.00000  Uiso   1.00
C117   C     0.84505   0.20710   0.04769   0.00000  Uiso   1.00
C118   C     0.82161   0.12623   0.45231   0.00000  Uiso   1.00
C119   C     0.82161   0.20710   0.45231   0.00000  Uiso   1.00
C120   C     0.84505   0.12623   0.04769   0.00000  Uiso   1.00
C121   C     0.84875   0.20750   0.09354   0.00000  Uiso   1.00
C122   C     0.81791   0.12583   0.40646   0.00000  Uiso   1.00
C123   C     0.81791   0.20750   0.40646   0.00000  Uiso   1.00
C124   C     0.91296   0.16667   0.24462   0.00000  Uiso   1.00
C125   C     0.84875   0.12583   0.09354   0.00000  Uiso   1.00
C126   C     0.84515   0.16667   0.11702   0.00000  Uiso   1.00
C127   C     0.82151   0.16667   0.38298   0.00000  Uiso   1.00
C128   C     0.83861   0.16667   0.02425   0.00000  Uiso   1.00
C129   C     0.82805   0.16667   0.47575   0.00000  Uiso   1.00
C130   C     0.95758   0.16667   0.23916   0.00000  Uiso   1.00
C131   C     0.70908   0.16667   0.26084   0.00000  Uiso   1.00
C132   C     0.83739   0.16667   0.16436   0.00000  Uiso   1.00
C133   C     0.82927   0.16667   0.33564   0.00000  Uiso   1.00
C134   C     0.86041   0.02395   0.27840   0.00000  Uiso   1.00
C135   C     0.80625   0.30938   0.22160   0.00000  Uiso   1.00
C136   C     0.80625   0.02395   0.22160   0.00000  Uiso   1.00
C137   C     0.86041   0.30938   0.27840   0.00000  Uiso   1.00
C138   C     0.68735   0.12565   0.25794   0.00000  Uiso   1.00
H139   H     0.84794   0.23903   0.03133   0.00000  Uiso   1.00
H140   H     0.81872   0.09430   0.46866   0.00000  Uiso   1.00
H141   H     0.81872   0.23903   0.46867   0.00000  Uiso   1.00
H142   H     0.84794   0.09430   0.03133   0.00000  Uiso   1.00
I143   I     0.90352   0.05859   0.32347   0.00000  Uiso   1.00
I144   I     0.76314   0.27474   0.17653   0.00000  Uiso   1.00
I145   I     0.76314   0.05859   0.17653   0.00000  Uiso   1.00
I146   I     0.90352   0.27474   0.32347   0.00000  Uiso   1.00
I147   I     0.71152   0.06592   0.28955   0.00000  Uiso   1.00
I148   I     0.95515   0.26741   0.21045   0.00000  Uiso   1.00
I149   I     0.95515   0.06592   0.21045   0.00000  Uiso   1.00
I150   I     0.71152   0.26741   0.28955   0.00000  Uiso   1.00
N151   N     0.83333   0.28573   0.25000   0.00000  Uiso   1.00
N152   N     0.83333   0.04760   0.25000   0.00000  Uiso   1.00
O153   O     0.77226   0.20487   0.25000   0.00000  Uiso   1.00
O154   O     0.89441   0.12846   0.25001   0.00000  Uiso   1.00
O155   O     0.89441   0.20487   0.25001   0.00000  Uiso   1.00
O156   O     0.77226   0.12846   0.25000   0.00000  Uiso   1.00
O157   O     0.83333   0.20489   0.18453   0.00000  Uiso   1.00
O158   O     0.83334   0.12845   0.31547   0.00000  Uiso   1.00
O159   O     0.83334   0.20489   0.31547   0.00000  Uiso   1.00
O160   O     0.83333   0.12845   0.18453   0.00000  Uiso   1.00
Zn161  Zn    0.83333   0.21771   0.25000   0.00000  Uiso   1.00
Zn162  Zn    0.83333   0.11563   0.25000   0.00000  Uiso   1.00
Br163  Br    0.19598   0.59829   0.12001   0.00000  Uiso   1.00
Br164  Br    0.13736   0.40171   0.37999   0.00000  Uiso   1.00
Br165  Br    0.13736   0.59829   0.37999   0.00000  Uiso   1.00
Br166  Br    0.19598   0.40171   0.12001   0.00000  Uiso   1.00
C167   C     0.08704   0.50000   0.25538   0.00000  Uiso   1.00
C168   C     0.31265   0.54101   0.24206   0.00000  Uiso   1.00
C169   C     0.31265   0.45899   0.24206   0.00000  Uiso   1.00
C170   C     0.02069   0.54101   0.25794   0.00000  Uiso   1.00
C171   C     0.17838   0.54043   0.04769   0.00000  Uiso   1.00
C172   C     0.15494   0.45956   0.45231   0.00000  Uiso   1.00
C173   C     0.15494   0.54043   0.45231   0.00000  Uiso   1.00
C174   C     0.17838   0.45956   0.04769   0.00000  Uiso   1.00
C175   C     0.18208   0.54084   0.09354   0.00000  Uiso   1.00
C176   C     0.15125   0.45916   0.40646   0.00000  Uiso   1.00
C177   C     0.15125   0.54084   0.40646   0.00000  Uiso   1.00
C178   C     0.24629   0.50000   0.24462   0.00000  Uiso   1.00
C179   C     0.18208   0.45916   0.09354   0.00000  Uiso   1.00
C180   C     0.17849   0.50000   0.11702   0.00000  Uiso   1.00
C181   C     0.15485   0.50000   0.38298   0.00000  Uiso   1.00
C182   C     0.17195   0.50000   0.02425   0.00000  Uiso   1.00
C183   C     0.16138   0.50000   0.47575   0.00000  Uiso   1.00
C184   C     0.29092   0.50000   0.23916   0.00000  Uiso   1.00
C185   C     0.04242   0.50000   0.26084   0.00000  Uiso   1.00
C186   C     0.17073   0.50000   0.16436   0.00000  Uiso   1.00
C187   C     0.16261   0.50000   0.33564   0.00000  Uiso   1.00
C188   C     0.19375   0.35729   0.27840   0.00000  Uiso   1.00
C189   C     0.13959   0.64271   0.22160   0.00000  Uiso   1.00
C190   C     0.13959   0.35729   0.22160   0.00000  Uiso   1.00
C191   C     0.19375   0.64271   0.27840   0.00000  Uiso   1.00
C192   C     0.02069   0.45899   0.25794   0.00000  Uiso   1.00
H193   H     0.18127   0.57237   0.03133   0.00000  Uiso   1.00
H194   H     0.15206   0.42763   0.46866   0.00000  Uiso   1.00
H195   H     0.15206   0.57237   0.46867   0.00000  Uiso   1.00
H196   H     0.18127   0.42763   0.03133   0.00000  Uiso   1.00
I197   I     0.23686   0.39192   0.32347   0.00000  Uiso   1.00
I198   I     0.09648   0.60808   0.17653   0.00000  Uiso   1.00
I199   I     0.09648   0.39192   0.17653   0.00000  Uiso   1.00
I200   I     0.23686   0.60808   0.32347   0.00000  Uiso   1.00
I201   I     0.04485   0.39926   0.28955   0.00000  Uiso   1.00
I202   I     0.28848   0.60074   0.21045   0.00000  Uiso   1.00
I203   I     0.28848   0.39926   0.21045   0.00000  Uiso   1.00
I204   I     0.04485   0.60074   0.28955   0.00000  Uiso   1.00
N205   N     0.16667   0.61907   0.25000   0.00000  Uiso   1.00
N206   N     0.16667   0.38093   0.25000   0.00000  Uiso   1.00
O207   O     0.10559   0.53821   0.25000   0.00000  Uiso   1.00
O208   O     0.22774   0.46179   0.25001   0.00000  Uiso   1.00
O209   O     0.22774   0.53821   0.25001   0.00000  Uiso   1.00
O210   O     0.10559   0.46179   0.25000   0.00000  Uiso   1.00
O211   O     0.16666   0.53822   0.18453   0.00000  Uiso   1.00
O212   O     0.16667   0.46178   0.31547   0.00000  Uiso   1.00
O213   O     0.16667   0.53822   0.31547   0.00000  Uiso   1.00
O214   O     0.16666   0.46178   0.18453   0.00000  Uiso   1.00
Zn215  Zn    0.16667   0.55104   0.25000   0.00000  Uiso   1.00
Zn216  Zn    0.16667   0.44896   0.25000   0.00000  Uiso   1.00
Br217  Br    0.52931   0.59829   0.12001   0.00000  Uiso   1.00
Br218  Br    0.47069   0.40171   0.37999   0.00000  Uiso   1.00
Br219  Br    0.47069   0.59829   0.37999   0.00000  Uiso   1.00
Br220  Br    0.52931   0.40171   0.12001   0.00000  Uiso   1.00
C221   C     0.42037   0.50000   0.25538   0.00000  Uiso   1.00
C222   C     0.64598   0.54101   0.24206   0.00000  Uiso   1.00
C223   C     0.64598   0.45899   0.24206   0.00000  Uiso   1.00
C224   C     0.35402   0.54101   0.25794   0.00000  Uiso   1.00
C225   C     0.51172   0.54043   0.04769   0.00000  Uiso   1.00
C226   C     0.48828   0.45956   0.45231   0.00000  Uiso   1.00
C227   C     0.48828   0.54043   0.45231   0.00000  Uiso   1.00
C228   C     0.51172   0.45956   0.04769   0.00000  Uiso   1.00
C229   C     0.51542   0.54084   0.09354   0.00000  Uiso   1.00
C230   C     0.48458   0.45916   0.40646   0.00000  Uiso   1.00
C231   C     0.48458   0.54084   0.40646   0.00000  Uiso   1.00
C232   C     0.57963   0.50000   0.24462   0.00000  Uiso   1.00
C233   C     0.51542   0.45916   0.09354   0.00000  Uiso   1.00
C234   C     0.51182   0.50000   0.11702   0.00000  Uiso   1.00
C235   C     0.48818   0.50000   0.38298   0.00000  Uiso   1.00
C236   C     0.50528   0.50000   0.02425   0.00000  Uiso   1.00
C237   C     0.49471   0.50000   0.47575   0.00000  Uiso   1.00
C238   C     0.62425   0.50000   0.23916   0.00000  Uiso   1.00
C239   C     0.37575   0.50000   0.26084   0.00000  Uiso   1.00
C240   C     0.50406   0.50000   0.16436   0.00000  Uiso   1.00
C241   C     0.49594   0.50000   0.33564   0.00000  Uiso   1.00
C242   C     0.52708   0.35729   0.27840   0.00000  Uiso   1.00
C243   C     0.47292   0.64271   0.22160   0.00000  Uiso   1.00
C244   C     0.47292   0.35729   0.22160   0.00000  Uiso   1.00
C245   C     0.52708   0.64271   0.27840   0.00000  Uiso   1.00
C246   C     0.35402   0.45899   0.25794   0.00000  Uiso   1.00
H247   H     0.51460   0.57237   0.03133   0.00000  Uiso   1.00
H248   H     0.48539   0.42763   0.46866   0.00000  Uiso   1.00
H249   H     0.48539   0.57237   0.46867   0.00000  Uiso   1.00
H250   H     0.51460   0.42763   0.03133   0.00000  Uiso   1.00
I251   I     0.57019   0.39192   0.32347   0.00000  Uiso   1.00
I252   I     0.42981   0.60808   0.17653   0.00000  Uiso   1.00
I253   I     0.42981   0.39192   0.17653   0.00000  Uiso   1.00
I254   I     0.57019   0.60808   0.32347   0.00000  Uiso   1.00
I255   I     0.37818   0.39926   0.28955   0.00000  Uiso   1.00
I256   I     0.62182   0.60074   0.21045   0.00000  Uiso   1.00
I257   I     0.62182   0.39926   0.21045   0.00000  Uiso   1.00
I258   I     0.37818   0.60074   0.28955   0.00000  Uiso   1.00
N259   N     0.50000   0.61907   0.25000   0.00000  Uiso   1.00
N260   N     0.50000   0.38093   0.25000   0.00000  Uiso   1.00
O261   O     0.43892   0.53821   0.25000   0.00000  Uiso   1.00
O262   O     0.56108   0.46179   0.25001   0.00000  Uiso   1.00
O263   O     0.56108   0.53821   0.25001   0.00000  Uiso   1.00
O264   O     0.43892   0.46179   0.25000   0.00000  Uiso   1.00
O265   O     0.50000   0.53822   0.18453   0.00000  Uiso   1.00
O266   O     0.50000   0.46178   0.31547   0.00000  Uiso   1.00
O267   O     0.50000   0.53822   0.31547   0.00000  Uiso   1.00
O268   O     0.50000   0.46178   0.18453   0.00000  Uiso   1.00
Zn269  Zn    0.50000   0.55104   0.25000   0.00000  Uiso   1.00
Zn270  Zn    0.50000   0.44896   0.25000   0.00000  Uiso   1.00
Br271  Br    0.86264   0.59829   0.12001   0.00000  Uiso   1.00
Br272  Br    0.80402   0.40171   0.37999   0.00000  Uiso   1.00
Br273  Br    0.80402   0.59829   0.37999   0.00000  Uiso   1.00
Br274  Br    0.86264   0.40171   0.12001   0.00000  Uiso   1.00
C275   C     0.75371   0.50000   0.25538   0.00000  Uiso   1.00
C276   C     0.97931   0.54101   0.24206   0.00000  Uiso   1.00
C277   C     0.97931   0.45899   0.24206   0.00000  Uiso   1.00
C278   C     0.68735   0.54101   0.25794   0.00000  Uiso   1.00
C279   C     0.84505   0.54043   0.04769   0.00000  Uiso   1.00
C280   C     0.82161   0.45956   0.45231   0.00000  Uiso   1.00
C281   C     0.82161   0.54043   0.45231   0.00000  Uiso   1.00
C282   C     0.84505   0.45956   0.04769   0.00000  Uiso   1.00
C283   C     0.84875   0.54084   0.09354   0.00000  Uiso   1.00
C284   C     0.81791   0.45916   0.40646   0.00000  Uiso   1.00
C285   C     0.81791   0.54084   0.40646   0.00000  Uiso   1.00
C286   C     0.91296   0.50000   0.24462   0.00000  Uiso   1.00
C287   C     0.84875   0.45916   0.09354   0.00000  Uiso   1.00
C288   C     0.84515   0.50000   0.11702   0.00000  Uiso   1.00
C289   C     0.82151   0.50000   0.38298   0.00000  Uiso   1.00
C290   C     0.83861   0.50000   0.02425   0.00000  Uiso   1.00
C291   C     0.82805   0.50000   0.47575   0.00000  Uiso   1.00
C292   C     0.95758   0.50000   0.23916   0.00000  Uiso   1.00
C293   C     0.70908   0.50000   0.26084   0.00000  Uiso   1.00
C294   C     0.83739   0.50000   0.16436   0.00000  Uiso   1.00
C295   C     0.82927   0.50000   0.33564   0.00000  Uiso   1.00
C296   C     0.86041   0.35729   0.27840   0.00000  Uiso   1.00
C297   C     0.80625   0.64271   0.22160   0.00000  Uiso   1.00
C298   C     0.80625   0.35729   0.22160   0.00000  Uiso   1.00
C299   C     0.86041   0.64271   0.27840   0.00000  Uiso   1.00
C300   C     0.68735   0.45899   0.25794   0.00000  Uiso   1.00
H301   H     0.84794   0.57237   0.03133   0.00000  Uiso   1.00
H302   H     0.81872   0.42763   0.46866   0.00000  Uiso   1.00
H303   H     0.81872   0.57237   0.46867   0.00000  Uiso   1.00
H304   H     0.84794   0.42763   0.03133   0.00000  Uiso   1.00
I305   I     0.90352   0.39192   0.32347   0.00000  Uiso   1.00
I306   I     0.76314   0.60808   0.17653   0.00000  Uiso   1.00
I307   I     0.76314   0.39192   0.17653   0.00000  Uiso   1.00
I308   I     0.90352   0.60808   0.32347   0.00000  Uiso   1.00
I309   I     0.71152   0.39926   0.28955   0.00000  Uiso   1.00
I310   I     0.95515   0.60074   0.21045   0.00000  Uiso   1.00
I311   I     0.95515   0.39926   0.21045   0.00000  Uiso   1.00
I312   I     0.71152   0.60074   0.28955   0.00000  Uiso   1.00
N313   N     0.83333   0.61907   0.25000   0.00000  Uiso   1.00
N314   N     0.83333   0.38093   0.25000   0.00000  Uiso   1.00
O315   O     0.77226   0.53821   0.25000   0.00000  Uiso   1.00
O316   O     0.89441   0.46179   0.25001   0.00000  Uiso   1.00
O317   O     0.89441   0.53821   0.25001   0.00000  Uiso   1.00
O318   O     0.77226   0.46179   0.25000   0.00000  Uiso   1.00
O319   O     0.83333   0.53822   0.18453   0.00000  Uiso   1.00
O320   O     0.83334   0.46178   0.31547   0.00000  Uiso   1.00
O321   O     0.83334   0.53822   0.31547   0.00000  Uiso   1.00
O322   O     0.83333   0.46178   0.18453   0.00000  Uiso   1.00
Zn323  Zn    0.83333   0.55104   0.25000   0.00000  Uiso   1.00
Zn324  Zn    0.83333   0.44896   0.25000   0.00000  Uiso   1.00
Br325  Br    0.19598   0.93163   0.12001   0.00000  Uiso   1.00
Br326  Br    0.13736   0.73504   0.37999   0.00000  Uiso   1.00
Br327  Br    0.13736   0.93163   0.37999   0.00000  Uiso   1.00
Br328  Br    0.19598   0.73504   0.12001   0.00000  Uiso   1.00
C329   C     0.08704   0.83333   0.25538   0.00000  Uiso   1.00
C330   C     0.31265   0.87435   0.24206   0.00000  Uiso   1.00
C331   C     0.31265   0.79232   0.24206   0.00000  Uiso   1.00
C332   C     0.02069   0.87434   0.25794   0.00000  Uiso   1.00
C333   C     0.17838   0.87377   0.04769   0.00000  Uiso   1.00
C334   C     0.15494   0.79290   0.45231   0.00000  Uiso   1.00
C335   C     0.15494   0.87377   0.45231   0.00000  Uiso   1.00
C336   C     0.17838   0.79290   0.04769   0.00000  Uiso   1.00
C337   C     0.18208   0.87417   0.09354   0.00000  Uiso   1.00
C338   C     0.15125   0.79249   0.40646   0.00000  Uiso   1.00
C339   C     0.15125   0.87417   0.40646   0.00000  Uiso   1.00
C340   C     0.24629   0.83333   0.24462   0.00000  Uiso   1.00
C341   C     0.18208   0.79249   0.09354   0.00000  Uiso   1.00
C342   C     0.17849   0.83333   0.11702   0.00000  Uiso   1.00
C343   C     0.15485   0.83333   0.38298   0.00000  Uiso   1.00
C344   C     0.17195   0.83333   0.02425   0.00000  Uiso   1.00
C345   C     0.16138   0.83333   0.47575   0.00000  Uiso   1.00
C346   C     0.29092   0.83333   0.23916   0.00000  Uiso   1.00
C347   C     0.04242   0.83333   0.26084   0.00000  Uiso   1.00
C348   C     0.17073   0.83333   0.16436   0.00000  Uiso   1.00
C349   C     0.16261   0.83333   0.33564   0.00000  Uiso   1.00
C350   C     0.19375   0.69062   0.27840   0.00000  Uiso   1.00
C351   C     0.13959   0.97605   0.22160   0.00000  Uiso   1.00
C352   C     0.13959   0.69062   0.22160   0.00000  Uiso   1.00
C353   C     0.19375   0.97605   0.27840   0.00000  Uiso   1.00
C354   C     0.02069   0.79232   0.25794   0.00000  Uiso   1.00
H355   H     0.18127   0.90570   0.03133   0.00000  Uiso   1.00
H356   H     0.15206   0.76097   0.46866   0.00000  Uiso   1.00
H357   H     0.15206   0.90570   0.46867   0.00000  Uiso   1.00
H358   H     0.18127   0.76097   0.03133   0.00000  Uiso   1.00
I359   I     0.23686   0.72526   0.32347   0.00000  Uiso   1.00
I360   I     0.09648   0.94141   0.17653   0.00000  Uiso   1.00
I361   I     0.09648   0.72526   0.17653   0.00000  Uiso   1.00
I362   I     0.23686   0.94141   0.32347   0.00000  Uiso   1.00
I363   I     0.04485   0.73259   0.28955   0.00000  Uiso   1.00
I364   I     0.28848   0.93408   0.21045   0.00000  Uiso   1.00
I365   I     0.28848   0.73259   0.21045   0.00000  Uiso   1.00
I366   I     0.04485   0.93408   0.28955   0.00000  Uiso   1.00
N367   N     0.16667   0.95240   0.25000   0.00000  Uiso   1.00
N368   N     0.16667   0.71427   0.25000   0.00000  Uiso   1.00
O369   O     0.10559   0.87154   0.25000   0.00000  Uiso   1.00
O370   O     0.22774   0.79513   0.25001   0.00000  Uiso   1.00
O371   O     0.22774   0.87154   0.25001   0.00000  Uiso   1.00
O372   O     0.10559   0.79513   0.25000   0.00000  Uiso   1.00
O373   O     0.16666   0.87155   0.18453   0.00000  Uiso   1.00
O374   O     0.16667   0.79511   0.31547   0.00000  Uiso   1.00
O375   O     0.16667   0.87155   0.31547   0.00000  Uiso   1.00
O376   O     0.16666   0.79511   0.18453   0.00000  Uiso   1.00
Zn377  Zn    0.16667   0.88437   0.25000   0.00000  Uiso   1.00
Zn378  Zn    0.16667   0.78229   0.25000   0.00000  Uiso   1.00
Br379  Br    0.52931   0.93163   0.12001   0.00000  Uiso   1.00
Br380  Br    0.47069   0.73504   0.37999   0.00000  Uiso   1.00
Br381  Br    0.47069   0.93163   0.37999   0.00000  Uiso   1.00
Br382  Br    0.52931   0.73504   0.12001   0.00000  Uiso   1.00
C383   C     0.42037   0.83333   0.25538   0.00000  Uiso   1.00
C384   C     0.64598   0.87435   0.24206   0.00000  Uiso   1.00
C385   C     0.64598   0.79232   0.24206   0.00000  Uiso   1.00
C386   C     0.35402   0.87434   0.25794   0.00000  Uiso   1.00
C387   C     0.51172   0.87377   0.04769   0.00000  Uiso   1.00
C388   C     0.48828   0.79290   0.45231   0.00000  Uiso   1.00
C389   C     0.48828   0.87377   0.45231   0.00000  Uiso   1.00
C390   C     0.51172   0.79290   0.04769   0.00000  Uiso   1.00
C391   C     0.51542   0.87417   0.09354   0.00000  Uiso   1.00
C392   C     0.48458   0.79249   0.40646   0.00000  Uiso   1.00
C393   C     0.48458   0.87417   0.40646   0.00000  Uiso   1.00
C394   C     0.57963   0.83333   0.24462   0.00000  Uiso   1.00
C395   C     0.51542   0.79249   0.09354   0.00000  Uiso   1.00
C396   C     0.51182   0.83333   0.11702   0.00000  Uiso   1.00
C397   C     0.48818   0.83333   0.38298   0.00000  Uiso   1.00
C398   C     0.50528   0.83333   0.02425   0.00000  Uiso   1.00
C399   C     0.49471   0.83333   0.47575   0.00000  Uiso   1.00
C400   C     0.62425   0.83333   0.23916   0.00000  Uiso   1.00
C401   C     0.37575   0.83333   0.26084   0.00000  Uiso   1.00
C402   C     0.50406   0.83333   0.16436   0.00000  Uiso   1.00
C403   C     0.49594   0.83333   0.33564   0.00000  Uiso   1.00
C404   C     0.52708   0.69062   0.27840   0.00000  Uiso   1.00
C405   C     0.47292   0.97605   0.22160   0.00000  Uiso   1.00
C406   C     0.47292   0.69062   0.22160   0.00000  Uiso   1.00
C407   C     0.52708   0.97605   0.27840   0.00000  Uiso   1.00
C408   C     0.35402   0.79232   0.25794   0.00000  Uiso   1.00
H409   H     0.51460   0.90570   0.03133   0.00000  Uiso   1.00
H410   H     0.48539   0.76097   0.46866   0.00000  Uiso   1.00
H411   H     0.48539   0.90570   0.46867   0.00000  Uiso   1.00
H412   H     0.51460   0.76097   0.03133   0.00000  Uiso   1.00
I413   I     0.57019   0.72526   0.32347   0.00000  Uiso   1.00
I414   I     0.42981   0.94141   0.17653   0.00000  Uiso   1.00
I415   I     0.42981   0.72526   0.17653   0.00000  Uiso   1.00
I416   I     0.57019   0.94141   0.32347   0.00000  Uiso   1.00
I417   I     0.37818   0.73259   0.28955   0.00000  Uiso   1.00
I418   I     0.62182   0.93408   0.21045   0.00000  Uiso   1.00
I419   I     0.62182   0.73259   0.21045   0.00000  Uiso   1.00
I420   I     0.37818   0.93408   0.28955   0.00000  Uiso   1.00
N421   N     0.50000   0.95240   0.25000   0.00000  Uiso   1.00
N422   N     0.50000   0.71427   0.25000   0.00000  Uiso   1.00
O423   O     0.43892   0.87154   0.25000   0.00000  Uiso   1.00
O424   O     0.56108   0.79513   0.25001   0.00000  Uiso   1.00
O425   O     0.56108   0.87154   0.25001   0.00000  Uiso   1.00
O426   O     0.43892   0.79513   0.25000   0.00000  Uiso   1.00
O427   O     0.50000   0.87155   0.18453   0.00000  Uiso   1.00
O428   O     0.50000   0.79511   0.31547   0.00000  Uiso   1.00
O429   O     0.50000   0.87155   0.31547   0.00000  Uiso   1.00
O430   O     0.50000   0.79511   0.18453   0.00000  Uiso   1.00
Zn431  Zn    0.50000   0.88437   0.25000   0.00000  Uiso   1.00
Zn432  Zn    0.50000   0.78229   0.25000   0.00000  Uiso   1.00
Br433  Br    0.86264   0.93163   0.12001   0.00000  Uiso   1.00
Br434  Br    0.80402   0.73504   0.37999   0.00000  Uiso   1.00
Br435  Br    0.80402   0.93163   0.37999   0.00000  Uiso   1.00
Br436  Br    0.86264   0.73504   0.12001   0.00000  Uiso   1.00
C437   C     0.75371   0.83333   0.25538   0.00000  Uiso   1.00
C438   C     0.97931   0.87435   0.24206   0.00000  Uiso   1.00
C439   C     0.97931   0.79232   0.24206   0.00000  Uiso   1.00
C440   C     0.68735   0.87434   0.25794   0.00000  Uiso   1.00
C441   C     0.84505   0.87377   0.04769   0.00000  Uiso   1.00
C442   C     0.82161   0.79290   0.45231   0.00000  Uiso   1.00
C443   C     0.82161   0.87377   0.45231   0.00000  Uiso   1.00
C444   C     0.84505   0.79290   0.04769   0.00000  Uiso   1.00
C445   C     0.84875   0.87417   0.09354   0.00000  Uiso   1.00
C446   C     0.81791   0.79249   0.40646   0.00000  Uiso   1.00
C447   C     0.81791   0.87417   0.40646   0.00000  Uiso   1.00
C448   C     0.91296   0.83333   0.24462   0.00000  Uiso   1.00
C449   C     0.84875   0.79249   0.09354   0.00000  Uiso   1.00
C450   C     0.84515   0.83333   0.11702   0.00000  Uiso   1.00
C451   C     0.82151   0.83333   0.38298   0.00000  Uiso   1.00
C452   C     0.83861   0.83333   0.02425   0.00000  Uiso   1.00
C453   C     0.82805   0.83333   0.47575   0.00000  Uiso   1.00
C454   C     0.95758   0.83333   0.23916   0.00000  Uiso   1.00
C455   C     0.70908   0.83333   0.26084   0.00000  Uiso   1.00
C456   C     0.83739   0.83333   0.16436   0.00000  Uiso   1.00
C457   C     0.82927   0.83333   0.33564   0.00000  Uiso   1.00
C458   C     0.86041   0.69062   0.27840   0.00000  Uiso   1.00
C459   C     0.80625   0.97605   0.22160   0.00000  Uiso   1.00
C460   C     0.80625   0.69062   0.22160   0.00000  Uiso   1.00
C461   C     0.86041   0.97605   0.27840   0.00000  Uiso   1.00
C462   C     0.68735   0.79232   0.25794   0.00000  Uiso   1.00
H463   H     0.84794   0.90570   0.03133   0.00000  Uiso   1.00
H464   H     0.81872   0.76097   0.46866   0.00000  Uiso   1.00
H465   H     0.81872   0.90570   0.46867   0.00000  Uiso   1.00
H466   H     0.84794   0.76097   0.03133   0.00000  Uiso   1.00
I467   I     0.90352   0.72526   0.32347   0.00000  Uiso   1.00
I468   I     0.76314   0.94141   0.17653   0.00000  Uiso   1.00
I469   I     0.76314   0.72526   0.17653   0.00000  Uiso   1.00
I470   I     0.90352   0.94141   0.32347   0.00000  Uiso   1.00
I471   I     0.71152   0.73259   0.28955   0.00000  Uiso   1.00
I472   I     0.95515   0.93408   0.21045   0.00000  Uiso   1.00
I473   I     0.95515   0.73259   0.21045   0.00000  Uiso   1.00
I474   I     0.71152   0.93408   0.28955   0.00000  Uiso   1.00
N475   N     0.83333   0.95240   0.25000   0.00000  Uiso   1.00
N476   N     0.83333   0.71427   0.25000   0.00000  Uiso   1.00
O477   O     0.77226   0.87154   0.25000   0.00000  Uiso   1.00
O478   O     0.89441   0.79513   0.25001   0.00000  Uiso   1.00
O479   O     0.89441   0.87154   0.25001   0.00000  Uiso   1.00
O480   O     0.77226   0.79513   0.25000   0.00000  Uiso   1.00
O481   O     0.83333   0.87155   0.18453   0.00000  Uiso   1.00
O482   O     0.83334   0.79511   0.31547   0.00000  Uiso   1.00
O483   O     0.83334   0.87155   0.31547   0.00000  Uiso   1.00
O484   O     0.83333   0.79511   0.18453   0.00000  Uiso   1.00
Zn485  Zn    0.83333   0.88437   0.25000   0.00000  Uiso   1.00
Zn486  Zn    0.83333   0.78229   0.25000   0.00000  Uiso   1.00
Br487  Br    0.19598   0.26496   0.62001   0.00000  Uiso   1.00
Br488  Br    0.13736   0.06837   0.87999   0.00000  Uiso   1.00
Br489  Br    0.13736   0.26496   0.87999   0.00000  Uiso   1.00
Br490  Br    0.19598   0.06837   0.62001   0.00000  Uiso   1.00
C491   C     0.08704   0.16667   0.75538   0.00000  Uiso   1.00
C492   C     0.31265   0.20768   0.74206   0.00000  Uiso   1.00
C493   C     0.31265   0.12565   0.74206   0.00000  Uiso   1.00
C494   C     0.02069   0.20768   0.75794   0.00000  Uiso   1.00
C495   C     0.17838   0.20710   0.54769   0.00000  Uiso   1.00
C496   C     0.15494   0.12623   0.95231   0.00000  Uiso   1.00
C497   C     0.15494   0.20710   0.95231   0.00000  Uiso   1.00
C498   C     0.17838   0.12623   0.54769   0.00000  Uiso   1.00
C499   C     0.18208   0.20750   0.59354   0.00000  Uiso   1.00
C500   C     0.15125   0.12583   0.90646   0.00000  Uiso   1.00
C501   C     0.15125   0.20750   0.90646   0.00000  Uiso   1.00
C502   C     0.24629   0.16667   0.74462   0.00000  Uiso   1.00
C503   C     0.18208   0.12583   0.59354   0.00000  Uiso   1.00
C504   C     0.17849   0.16667   0.61702   0.00000  Uiso   1.00
C505   C     0.15485   0.16667   0.88298   0.00000  Uiso   1.00
C506   C     0.17195   0.16667   0.52425   0.00000  Uiso   1.00
C507   C     0.16138   0.16667   0.97575   0.00000  Uiso   1.00
C508   C     0.29092   0.16667   0.73916   0.00000  Uiso   1.00
C509   C     0.04242   0.16667   0.76084   0.00000  Uiso   1.00
C510   C     0.17073   0.16667   0.66436   0.00000  Uiso   1.00
C511   C     0.16261   0.16667   0.83564   0.00000  Uiso   1.00
C512   C     0.19375   0.02395   0.77840   0.00000  Uiso   1.00
C513   C     0.13959   0.30938   0.72160   0.00000  Uiso   1.00
C514   C     0.13959   0.02395   0.72160   0.00000  Uiso   1.00
C515   C     0.19375   0.30938   0.77840   0.00000  Uiso   1.00
C516   C     0.02069   0.12565   0.75794   0.00000  Uiso   1.00
H517   H     0.18127   0.23903   0.53133   0.00000  Uiso   1.00
H518   H     0.15206   0.09430   0.96866   0.00000  Uiso   1.00
H519   H     0.15206   0.23903   0.96867   0.00000  Uiso   1.00
H520   H     0.18127   0.09430   0.53133   0.00000  Uiso   1.00
I521   I     0.23686   0.05859   0.82347   0.00000  Uiso   1.00
I522   I     0.09648   0.27474   0.67653   0.00000  Uiso   1.00
I523   I     0.09648   0.05859   0.67653   0.00000  Uiso   1.00
I524   I     0.23686   0.27474   0.82347   0.00000  Uiso   1.00
I525   I     0.04485   0.06592   0.78955   0.00000  Uiso   1.00
I526   I     0.28848   0.26741   0.71045   0.00000  Uiso   1.00
I527   I     0.28848   0.06592   0.71045   0.00000  Uiso   1.00
I528   I     0.04485   0.26741   0.78955   0.00000  Uiso   1.00
N529   N     0.16667   0.28573   0.75000   0.00000  Uiso   1.00
N530   N     0.16667   0.04760   0.75000   0.00000  Uiso   1.00
O531   O     0.10559   0.20487   0.75000   0.00000  Uiso   1.00
O532   O     0.22774   0.12846   0.75001   0.00000  Uiso   1.00
O533   O     0.22774   0.20487   0.75001   0.00000  Uiso   1.00
O534   O     0.10559   0.12846   0.75000   0.00000  Uiso   1.00
O535   O     0.16666   0.20489   0.68453   0.00000  Uiso   1.00
O536   O     0.16667   0.12845   0.81547   0.00000  Uiso   1.00
O537   O     0.16667   0.20489   0.81547   0.00000  Uiso   1.00
O538   O     0.16666   0.12845   0.68453   0.00000  Uiso   1.00
Zn539  Zn    0.16667   0.21771   0.75000   0.00000  Uiso   1.00
Zn540  Zn    0.16667   0.11563   0.75000   0.00000  Uiso   1.00
Br541  Br    0.52931   0.26496   0.62001   0.00000  Uiso   1.00
Br542  Br    0.47069   0.06837   0.87999   0.00000  Uiso   1.00
Br543  Br    0.47069   0.26496   0.87999   0.00000  Uiso   1.00
Br544  Br    0.52931   0.06837   0.62001   0.00000  Uiso   1.00
C545   C     0.42037   0.16667   0.75538   0.00000  Uiso   1.00
C546   C     0.64598   0.20768   0.74206   0.00000  Uiso   1.00
C547   C     0.64598   0.12565   0.74206   0.00000  Uiso   1.00
C548   C     0.35402   0.20768   0.75794   0.00000  Uiso   1.00
C549   C     0.51172   0.20710   0.54769   0.00000  Uiso   1.00
C550   C     0.48828   0.12623   0.95231   0.00000  Uiso   1.00
C551   C     0.48828   0.20710   0.95231   0.00000  Uiso   1.00
C552   C     0.51172   0.12623   0.54769   0.00000  Uiso   1.00
C553   C     0.51542   0.20750   0.59354   0.00000  Uiso   1.00
C554   C     0.48458   0.12583   0.90646   0.00000  Uiso   1.00
C555   C     0.48458   0.20750   0.90646   0.00000  Uiso   1.00
C556   C     0.57963   0.16667   0.74462   0.00000  Uiso   1.00
C557   C     0.51542   0.12583   0.59354   0.00000  Uiso   1.00
C558   C     0.51182   0.16667   0.61702   0.00000  Uiso   1.00
C559   C     0.48818   0.16667   0.88298   0.00000  Uiso   1.00
C560   C     0.50528   0.16667   0.52425   0.00000  Uiso   1.00
C561   C     0.49471   0.16667   0.97575   0.00000  Uiso   1.00
C562   C     0.62425   0.16667   0.73916   0.00000  Uiso   1.00
C563   C     0.37575   0.16667   0.76084   0.00000  Uiso   1.00
C564   C     0.50406   0.16667   0.66436   0.00000  Uiso   1.00
C565   C     0.49594   0.16667   0.83564   0.00000  Uiso   1.00
C566   C     0.52708   0.02395   0.77840   0.00000  Uiso   1.00
C567   C     0.47292   0.30938   0.72160   0.00000  Uiso   1.00
C568   C     0.47292   0.02395   0.72160   0.00000  Uiso   1.00
C569   C     0.52708   0.30938   0.77840   0.00000  Uiso   1.00
C570   C     0.35402   0.12565   0.75794   0.00000  Uiso   1.00
H571   H     0.51460   0.23903   0.53133   0.00000  Uiso   1.00
H572   H     0.48539   0.09430   0.96866   0.00000  Uiso   1.00
H573   H     0.48539   0.23903   0.96867   0.00000  Uiso   1.00
H574   H     0.51460   0.09430   0.53133   0.00000  Uiso   1.00
I575   I     0.57019   0.05859   0.82347   0.00000  Uiso   1.00
I576   I     0.42981   0.27474   0.67653   0.00000  Uiso   1.00
I577   I     0.42981   0.05859   0.67653   0.00000  Uiso   1.00
I578   I     0.57019   0.27474   0.82347   0.00000  Uiso   1.00
I579   I     0.37818   0.06592   0.78955   0.00000  Uiso   1.00
I580   I     0.62182   0.26741   0.71045   0.00000  Uiso   1.00
I581   I     0.62182   0.06592   0.71045   0.00000  Uiso   1.00
I582   I     0.37818   0.26741   0.78955   0.00000  Uiso   1.00
N583   N     0.50000   0.28573   0.75000   0.00000  Uiso   1.00
N584   N     0.50000   0.04760   0.75000   0.00000  Uiso   1.00
O585   O     0.43892   0.20487   0.75000   0.00000  Uiso   1.00
O586   O     0.56108   0.12846   0.75001   0.00000  Uiso   1.00
O587   O     0.56108   0.20487   0.75001   0.00000  Uiso   1.00
O588   O     0.43892   0.12846   0.75000   0.00000  Uiso   1.00
O589   O     0.50000   0.20489   0.68453   0.00000  Uiso   1.00
O590   O     0.50000   0.12845   0.81547   0.00000  Uiso   1.00
O591   O     0.50000   0.20489   0.81547   0.00000  Uiso   1.00
O592   O     0.50000   0.12845   0.68453   0.00000  Uiso   1.00
Zn593  Zn    0.50000   0.21771   0.75000   0.00000  Uiso   1.00
Zn594  Zn    0.50000   0.11563   0.75000   0.00000  Uiso   1.00
Br595  Br    0.86264   0.26496   0.62001   0.00000  Uiso   1.00
Br596  Br    0.80402   0.06837   0.87999   0.00000  Uiso   1.00
Br597  Br    0.80402   0.26496   0.87999   0.00000  Uiso   1.00
Br598  Br    0.86264   0.06837   0.62001   0.00000  Uiso   1.00
C599   C     0.75371   0.16667   0.75538   0.00000  Uiso   1.00
C600   C     0.97931   0.20768   0.74206   0.00000  Uiso   1.00
C601   C     0.97931   0.12565   0.74206   0.00000  Uiso   1.00
C602   C     0.68735   0.20768   0.75794   0.00000  Uiso   1.00
C603   C     0.84505   0.20710   0.54769   0.00000  Uiso   1.00
C604   C     0.82161   0.12623   0.95231   0.00000  Uiso   1.00
C605   C     0.82161   0.20710   0.95231   0.00000  Uiso   1.00
C606   C     0.84505   0.12623   0.54769   0.00000  Uiso   1.00
C607   C     0.84875   0.20750   0.59354   0.00000  Uiso   1.00
C608   C     0.81791   0.12583   0.90646   0.00000  Uiso   1.00
C609   C     0.81791   0.20750   0.90646   0.00000  Uiso   1.00
C610   C     0.91296   0.16667   0.74462   0.00000  Uiso   1.00
C611   C     0.84875   0.12583   0.59354   0.00000  Uiso   1.00
C612   C     0.84515   0.16667   0.61702   0.00000  Uiso   1.00
C613   C     0.82151   0.16667   0.88298   0.00000  Uiso   1.00
C614   C     0.83861   0.16667   0.52425   0.00000  Uiso   1.00
C615   C     0.82805   0.16667   0.97575   0.00000  Uiso   1.00
C616   C     0.95758   0.16667   0.73916   0.00000  Uiso   1.00
C617   C     0.70908   0.16667   0.76084   0.00000  Uiso   1.00
C618   C     0.83739   0.16667   0.66436   0.00000  Uiso   1.00
C619   C     0.82927   0.16667   0.83564   0.00000  Uiso   1.00
C620   C     0.86041   0.02395   0.77840   0.00000  Uiso   1.00
C621   C     0.80625   0.30938   0.72160   0.00000  Uiso   1.00
C622   C     0.80625   0.02395   0.72160   0.00000  Uiso   1.00
C623   C     0.86041   0.30938   0.77840   0.00000  Uiso   1.00
C624   C     0.68735   0.12565   0.75794   0.00000  Uiso   1.00
H625   H     0.84794   0.23903   0.53133   0.00000  Uiso   1.00
H626   H     0.81872   0.09430   0.96866   0.00000  Uiso   1.00
H627   H     0.81872   0.23903   0.96867   0.00000  Uiso   1.00
H628   H     0.84794   0.09430   0.53133   0.00000  Uiso   1.00
I629   I     0.90352   0.05859   0.82347   0.00000  Uiso   1.00
I630   I     0.76314   0.27474   0.67653   0.00000  Uiso   1.00
I631   I     0.76314   0.05859   0.67653   0.00000  Uiso   1.00
I632   I     0.90352   0.27474   0.82347   0.00000  Uiso   1.00
I633   I     0.71152   0.06592   0.78955   0.00000  Uiso   1.00
I634   I     0.95515   0.26741   0.71045   0.00000  Uiso   1.00
I635   I     0.95515   0.06592   0.71045   0.00000  Uiso   1.00
I636   I     0.71152   0.26741   0.78955   0.00000  Uiso   1.00
N637   N     0.83333   0.28573   0.75000   0.00000  Uiso   1.00
N638   N     0.83333   0.04760   0.75000   0.00000  Uiso   1.00
O639   O     0.77226   0.20487   0.75000   0.00000  Uiso   1.00
O640   O     0.89441   0.12846   0.75001   0.00000  Uiso   1.00
O641   O     0.89441   0.20487   0.75001   0.00000  Uiso   1.00
O642   O     0.77226   0.12846   0.75000   0.00000  Uiso   1.00
O643   O     0.83333   0.20489   0.68453   0.00000  Uiso   1.00
O644   O     0.83334   0.12845   0.81547   0.00000  Uiso   1.00
O645   O     0.83334   0.20489   0.81547   0.00000  Uiso   1.00
O646   O     0.83333   0.12845   0.68453   0.00000  Uiso   1.00
Zn647  Zn    0.83333   0.21771   0.75000   0.00000  Uiso   1.00
Zn648  Zn    0.83333   0.11563   0.75000   0.00000  Uiso   1.00
Br649  Br    0.19598   0.59829   0.62001   0.00000  Uiso   1.00
Br650  Br    0.13736   0.40171   0.87999   0.00000  Uiso   1.00
Br651  Br    0.13736   0.59829   0.87999   0.00000  Uiso   1.00
Br652  Br    0.19598   0.40171   0.62001   0.00000  Uiso   1.00
C653   C     0.08704   0.50000   0.75538   0.00000  Uiso   1.00
C654   C     0.31265   0.54101   0.74206   0.00000  Uiso   1.00
C655   C     0.31265   0.45899   0.74206   0.00000  Uiso   1.00
C656   C     0.02069   0.54101   0.75794   0.00000  Uiso   1.00
C657   C     0.17838   0.54043   0.54769   0.00000  Uiso   1.00
C658   C     0.15494   0.45956   0.95231   0.00000  Uiso   1.00
C659   C     0.15494   0.54043   0.95231   0.00000  Uiso   1.00
C660   C     0.17838   0.45956   0.54769   0.00000  Uiso   1.00
C661   C     0.18208   0.54084   0.59354   0.00000  Uiso   1.00
C662   C     0.15125   0.45916   0.90646   0.00000  Uiso   1.00
C663   C     0.15125   0.54084   0.90646   0.00000  Uiso   1.00
C664   C     0.24629   0.50000   0.74462   0.00000  Uiso   1.00
C665   C     0.18208   0.45916   0.59354   0.00000  Uiso   1.00
C666   C     0.17849   0.50000   0.61702   0.00000  Uiso   1.00
C667   C     0.15485   0.50000   0.88298   0.00000  Uiso   1.00
C668   C     0.17195   0.50000   0.52425   0.00000  Uiso   1.00
C669   C     0.16138   0.50000   0.97575   0.00000  Uiso   1.00
C670   C     0.29092   0.50000   0.73916   0.00000  Uiso   1.00
C671   C     0.04242   0.50000   0.76084   0.00000  Uiso   1.00
C672   C     0.17073   0.50000   0.66436   0.00000  Uiso   1.00
C673   C     0.16261   0.50000   0.83564   0.00000  Uiso   1.00
C674   C     0.19375   0.35729   0.77840   0.00000  Uiso   1.00
C675   C     0.13959   0.64271   0.72160   0.00000  Uiso   1.00
C676   C     0.13959   0.35729   0.72160   0.00000  Uiso   1.00
C677   C     0.19375   0.64271   0.77840   0.00000  Uiso   1.00
C678   C     0.02069   0.45899   0.75794   0.00000  Uiso   1.00
H679   H     0.18127   0.57237   0.53133   0.00000  Uiso   1.00
H680   H     0.15206   0.42763   0.96866   0.00000  Uiso   1.00
H681   H     0.15206   0.57237   0.96867   0.00000  Uiso   1.00
H682   H     0.18127   0.42763   0.53133   0.00000  Uiso   1.00
I683   I     0.23686   0.39192   0.82347   0.00000  Uiso   1.00
I684   I     0.09648   0.60808   0.67653   0.00000  Uiso   1.00
I685   I     0.09648   0.39192   0.67653   0.00000  Uiso   1.00
I686   I     0.23686   0.60808   0.82347   0.00000  Uiso   1.00
I687   I     0.04485   0.39926   0.78955   0.00000  Uiso   1.00
I688   I     0.28848   0.60074   0.71045   0.00000  Uiso   1.00
I689   I     0.28848   0.39926   0.71045   0.00000  Uiso   1.00
I690   I     0.04485   0.60074   0.78955   0.00000  Uiso   1.00
N691   N     0.16667   0.61907   0.75000   0.00000  Uiso   1.00
N692   N     0.16667   0.38093   0.75000   0.00000  Uiso   1.00
O693   O     0.10559   0.53821   0.75000   0.00000  Uiso   1.00
O694   O     0.22774   0.46179   0.75001   0.00000  Uiso   1.00
O695   O     0.22774   0.53821   0.75001   0.00000  Uiso   1.00
O696   O     0.10559   0.46179   0.75000   0.00000  Uiso   1.00
O697   O     0.16666   0.53822   0.68453   0.00000  Uiso   1.00
O698   O     0.16667   0.46178   0.81547   0.00000  Uiso   1.00
O699   O     0.16667   0.53822   0.81547   0.00000  Uiso   1.00
O700   O     0.16666   0.46178   0.68453   0.00000  Uiso   1.00
Zn701  Zn    0.16667   0.55104   0.75000   0.00000  Uiso   1.00
Zn702  Zn    0.16667   0.44896   0.75000   0.00000  Uiso   1.00
Br703  Br    0.52931   0.59829   0.62001   0.00000  Uiso   1.00
Br704  Br    0.47069   0.40171   0.87999   0.00000  Uiso   1.00
Br705  Br    0.47069   0.59829   0.87999   0.00000  Uiso   1.00
Br706  Br    0.52931   0.40171   0.62001   0.00000  Uiso   1.00
C707   C     0.42037   0.50000   0.75538   0.00000  Uiso   1.00
C708   C     0.64598   0.54101   0.74206   0.00000  Uiso   1.00
C709   C     0.64598   0.45899   0.74206   0.00000  Uiso   1.00
C710   C     0.35402   0.54101   0.75794   0.00000  Uiso   1.00
C711   C     0.51172   0.54043   0.54769   0.00000  Uiso   1.00
C712   C     0.48828   0.45956   0.95231   0.00000  Uiso   1.00
C713   C     0.48828   0.54043   0.95231   0.00000  Uiso   1.00
C714   C     0.51172   0.45956   0.54769   0.00000  Uiso   1.00
C715   C     0.51542   0.54084   0.59354   0.00000  Uiso   1.00
C716   C     0.48458   0.45916   0.90646   0.00000  Uiso   1.00
C717   C     0.48458   0.54084   0.90646   0.00000  Uiso   1.00
C718   C     0.57963   0.50000   0.74462   0.00000  Uiso   1.00
C719   C     0.51542   0.45916   0.59354   0.00000  Uiso   1.00
C720   C     0.51182   0.50000   0.61702   0.00000  Uiso   1.00
C721   C     0.48818   0.50000   0.88298   0.00000  Uiso   1.00
C722   C     0.50528   0.50000   0.52425   0.00000  Uiso   1.00
C723   C     0.49471   0.50000   0.97575   0.00000  Uiso   1.00
C724   C     0.62425   0.50000   0.73916   0.00000  Uiso   1.00
C725   C     0.37575   0.50000   0.76084   0.00000  Uiso   1.00
C726   C     0.50406   0.50000   0.66436   0.00000  Uiso   1.00
C727   C     0.49594   0.50000   0.83564   0.00000  Uiso   1.00
C728   C     0.52708   0.35729   0.77840   0.00000  Uiso   1.00
C729   C     0.47292   0.64271   0.72160   0.00000  Uiso   1.00
C730   C     0.47292   0.35729   0.72160   0.00000  Uiso   1.00
C731   C     0.52708   0.64271   0.77840   0.00000  Uiso   1.00
C732   C     0.35402   0.45899   0.75794   0.00000  Uiso   1.00
H733   H     0.51460   0.57237   0.53133   0.00000  Uiso   1.00
H734   H     0.48539   0.42763   0.96866   0.00000  Uiso   1.00
H735   H     0.48539   0.57237   0.96867   0.00000  Uiso   1.00
H736   H     0.51460   0.42763   0.53133   0.00000  Uiso   1.00
I737   I     0.57019   0.39192   0.82347   0.00000  Uiso   1.00
I738   I     0.42981   0.60808   0.67653   0.00000  Uiso   1.00
I739   I     0.42981   0.39192   0.67653   0.00000  Uiso   1.00
I740   I     0.57019   0.60808   0.82347   0.00000  Uiso   1.00
I741   I     0.37818   0.39926   0.78955   0.00000  Uiso   1.00
I742   I     0.62182   0.60074   0.71045   0.00000  Uiso   1.00
I743   I     0.62182   0.39926   0.71045   0.00000  Uiso   1.00
I744   I     0.37818   0.60074   0.78955   0.00000  Uiso   1.00
N745   N     0.50000   0.61907   0.75000   0.00000  Uiso   1.00
N746   N     0.50000   0.38093   0.75000   0.00000  Uiso   1.00
O747   O     0.43892   0.53821   0.75000   0.00000  Uiso   1.00
O748   O     0.56108   0.46179   0.75001   0.00000  Uiso   1.00
O749   O     0.56108   0.53821   0.75001   0.00000  Uiso   1.00
O750   O     0.43892   0.46179   0.75000   0.00000  Uiso   1.00
O751   O     0.50000   0.53822   0.68453   0.00000  Uiso   1.00
O752   O     0.50000   0.46178   0.81547   0.00000  Uiso   1.00
O753   O     0.50000   0.53822   0.81547   0.00000  Uiso   1.00
O754   O     0.50000   0.46178   0.68453   0.00000  Uiso   1.00
Zn755  Zn    0.50000   0.55104   0.75000   0.00000  Uiso   1.00
Zn756  Zn    0.50000   0.44896   0.75000   0.00000  Uiso   1.00
Br757  Br    0.86264   0.59829   0.62001   0.00000  Uiso   1.00
Br758  Br    0.80402   0.40171   0.87999   0.00000  Uiso   1.00
Br759  Br    0.80402   0.59829   0.87999   0.00000  Uiso   1.00
Br760  Br    0.86264   0.40171   0.62001   0.00000  Uiso   1.00
C761   C     0.75371   0.50000   0.75538   0.00000  Uiso   1.00
C762   C     0.97931   0.54101   0.74206   0.00000  Uiso   1.00
C763   C     0.97931   0.45899   0.74206   0.00000  Uiso   1.00
C764   C     0.68735   0.54101   0.75794   0.00000  Uiso   1.00
C765   C     0.84505   0.54043   0.54769   0.00000  Uiso   1.00
C766   C     0.82161   0.45956   0.95231   0.00000  Uiso   1.00
C767   C     0.82161   0.54043   0.95231   0.00000  Uiso   1.00
C768   C     0.84505   0.45956   0.54769   0.00000  Uiso   1.00
C769   C     0.84875   0.54084   0.59354   0.00000  Uiso   1.00
C770   C     0.81791   0.45916   0.90646   0.00000  Uiso   1.00
C771   C     0.81791   0.54084   0.90646   0.00000  Uiso   1.00
C772   C     0.91296   0.50000   0.74462   0.00000  Uiso   1.00
C773   C     0.84875   0.45916   0.59354   0.00000  Uiso   1.00
C774   C     0.84515   0.50000   0.61702   0.00000  Uiso   1.00
C775   C     0.82151   0.50000   0.88298   0.00000  Uiso   1.00
C776   C     0.83861   0.50000   0.52425   0.00000  Uiso   1.00
C777   C     0.82805   0.50000   0.97575   0.00000  Uiso   1.00
C778   C     0.95758   0.50000   0.73916   0.00000  Uiso   1.00
C779   C     0.70908   0.50000   0.76084   0.00000  Uiso   1.00
C780   C     0.83739   0.50000   0.66436   0.00000  Uiso   1.00
C781   C     0.82927   0.50000   0.83564   0.00000  Uiso   1.00
C782   C     0.86041   0.35729   0.77840   0.00000  Uiso   1.00
C783   C     0.80625   0.64271   0.72160   0.00000  Uiso   1.00
C784   C     0.80625   0.35729   0.72160   0.00000  Uiso   1.00
C785   C     0.86041   0.64271   0.77840   0.00000  Uiso   1.00
C786   C     0.68735   0.45899   0.75794   0.00000  Uiso   1.00
H787   H     0.84794   0.57237   0.53133   0.00000  Uiso   1.00
H788   H     0.81872   0.42763   0.96866   0.00000  Uiso   1.00
H789   H     0.81872   0.57237   0.96867   0.00000  Uiso   1.00
H790   H     0.84794   0.42763   0.53133   0.00000  Uiso   1.00
I791   I     0.90352   0.39192   0.82347   0.00000  Uiso   1.00
I792   I     0.76314   0.60808   0.67653   0.00000  Uiso   1.00
I793   I     0.76314   0.39192   0.67653   0.00000  Uiso   1.00
I794   I     0.90352   0.60808   0.82347   0.00000  Uiso   1.00
I795   I     0.71152   0.39926   0.78955   0.00000  Uiso   1.00
I796   I     0.95515   0.60074   0.71045   0.00000  Uiso   1.00
I797   I     0.95515   0.39926   0.71045   0.00000  Uiso   1.00
I798   I     0.71152   0.60074   0.78955   0.00000  Uiso   1.00
N799   N     0.83333   0.61907   0.75000   0.00000  Uiso   1.00
N800   N     0.83333   0.38093   0.75000   0.00000  Uiso   1.00
O801   O     0.77226   0.53821   0.75000   0.00000  Uiso   1.00
O802   O     0.89441   0.46179   0.75001   0.00000  Uiso   1.00
O803   O     0.89441   0.53821   0.75001   0.00000  Uiso   1.00
O804   O     0.77226   0.46179   0.75000   0.00000  Uiso   1.00
O805   O     0.83333   0.53822   0.68453   0.00000  Uiso   1.00
O806   O     0.83334   0.46178   0.81547   0.00000  Uiso   1.00
O807   O     0.83334   0.53822   0.81547   0.00000  Uiso   1.00
O808   O     0.83333   0.46178   0.68453   0.00000  Uiso   1.00
Zn809  Zn    0.83333   0.55104   0.75000   0.00000  Uiso   1.00
Zn810  Zn    0.83333   0.44896   0.75000   0.00000  Uiso   1.00
Br811  Br    0.19598   0.93163   0.62001   0.00000  Uiso   1.00
Br812  Br    0.13736   0.73504   0.87999   0.00000  Uiso   1.00
Br813  Br    0.13736   0.93163   0.87999   0.00000  Uiso   1.00
Br814  Br    0.19598   0.73504   0.62001   0.00000  Uiso   1.00
C815   C     0.08704   0.83333   0.75538   0.00000  Uiso   1.00
C816   C     0.31265   0.87435   0.74206   0.00000  Uiso   1.00
C817   C     0.31265   0.79232   0.74206   0.00000  Uiso   1.00
C818   C     0.02069   0.87434   0.75794   0.00000  Uiso   1.00
C819   C     0.17838   0.87377   0.54769   0.00000  Uiso   1.00
C820   C     0.15494   0.79290   0.95231   0.00000  Uiso   1.00
C821   C     0.15494   0.87377   0.95231   0.00000  Uiso   1.00
C822   C     0.17838   0.79290   0.54769   0.00000  Uiso   1.00
C823   C     0.18208   0.87417   0.59354   0.00000  Uiso   1.00
C824   C     0.15125   0.79249   0.90646   0.00000  Uiso   1.00
C825   C     0.15125   0.87417   0.90646   0.00000  Uiso   1.00
C826   C     0.24629   0.83333   0.74462   0.00000  Uiso   1.00
C827   C     0.18208   0.79249   0.59354   0.00000  Uiso   1.00
C828   C     0.17849   0.83333   0.61702   0.00000  Uiso   1.00
C829   C     0.15485   0.83333   0.88298   0.00000  Uiso   1.00
C830   C     0.17195   0.83333   0.52425   0.00000  Uiso   1.00
C831   C     0.16138   0.83333   0.97575   0.00000  Uiso   1.00
C832   C     0.29092   0.83333   0.73916   0.00000  Uiso   1.00
C833   C     0.04242   0.83333   0.76084   0.00000  Uiso   1.00
C834   C     0.17073   0.83333   0.66436   0.00000  Uiso   1.00
C835   C     0.16261   0.83333   0.83564   0.00000  Uiso   1.00
C836   C     0.19375   0.69062   0.77840   0.00000  Uiso   1.00
C837   C     0.13959   0.97605   0.72160   0.00000  Uiso   1.00
C838   C     0.13959   0.69062   0.72160   0.00000  Uiso   1.00
C839   C     0.19375   0.97605   0.77840   0.00000  Uiso   1.00
C840   C     0.02069   0.79232   0.75794   0.00000  Uiso   1.00
H841   H     0.18127   0.90570   0.53133   0.00000  Uiso   1.00
H842   H     0.15206   0.76097   0.96866   0.00000  Uiso   1.00
H843   H     0.15206   0.90570   0.96867   0.00000  Uiso   1.00
H844   H     0.18127   0.76097   0.53133   0.00000  Uiso   1.00
I845   I     0.23686   0.72526   0.82347   0.00000  Uiso   1.00
I846   I     0.09648   0.94141   0.67653   0.00000  Uiso   1.00
I847   I     0.09648   0.72526   0.67653   0.00000  Uiso   1.00
I848   I     0.23686   0.94141   0.82347   0.00000  Uiso   1.00
I849   I     0.04485   0.73259   0.78955   0.00000  Uiso   1.00
I850   I     0.28848   0.93408   0.71045   0.00000  Uiso   1.00
I851   I     0.28848   0.73259   0.71045   0.00000  Uiso   1.00
I852   I     0.04485   0.93408   0.78955   0.00000  Uiso   1.00
N853   N     0.16667   0.95240   0.75000   0.00000  Uiso   1.00
N854   N     0.16667   0.71427   0.75000   0.00000  Uiso   1.00
O855   O     0.10559   0.87154   0.75000   0.00000  Uiso   1.00
O856   O     0.22774   0.79513   0.75001   0.00000  Uiso   1.00
O857   O     0.22774   0.87154   0.75001   0.00000  Uiso   1.00
O858   O     0.10559   0.79513   0.75000   0.00000  Uiso   1.00
O859   O     0.16666   0.87155   0.68453   0.00000  Uiso   1.00
O860   O     0.16667   0.79511   0.81547   0.00000  Uiso   1.00
O861   O     0.16667   0.87155   0.81547   0.00000  Uiso   1.00
O862   O     0.16666   0.79511   0.68453   0.00000  Uiso   1.00
Zn863  Zn    0.16667   0.88437   0.75000   0.00000  Uiso   1.00
Zn864  Zn    0.16667   0.78229   0.75000   0.00000  Uiso   1.00
Br865  Br    0.52931   0.93163   0.62001   0.00000  Uiso   1.00
Br866  Br    0.47069   0.73504   0.87999   0.00000  Uiso   1.00
Br867  Br    0.47069   0.93163   0.87999   0.00000  Uiso   1.00
Br868  Br    0.52931   0.73504   0.62001   0.00000  Uiso   1.00
C869   C     0.42037   0.83333   0.75538   0.00000  Uiso   1.00
C870   C     0.64598   0.87435   0.74206   0.00000  Uiso   1.00
C871   C     0.64598   0.79232   0.74206   0.00000  Uiso   1.00
C872   C     0.35402   0.87434   0.75794   0.00000  Uiso   1.00
C873   C     0.51172   0.87377   0.54769   0.00000  Uiso   1.00
C874   C     0.48828   0.79290   0.95231   0.00000  Uiso   1.00
C875   C     0.48828   0.87377   0.95231   0.00000  Uiso   1.00
C876   C     0.51172   0.79290   0.54769   0.00000  Uiso   1.00
C877   C     0.51542   0.87417   0.59354   0.00000  Uiso   1.00
C878   C     0.48458   0.79249   0.90646   0.00000  Uiso   1.00
C879   C     0.48458   0.87417   0.90646   0.00000  Uiso   1.00
C880   C     0.57963   0.83333   0.74462   0.00000  Uiso   1.00
C881   C     0.51542   0.79249   0.59354   0.00000  Uiso   1.00
C882   C     0.51182   0.83333   0.61702   0.00000  Uiso   1.00
C883   C     0.48818   0.83333   0.88298   0.00000  Uiso   1.00
C884   C     0.50528   0.83333   0.52425   0.00000  Uiso   1.00
C885   C     0.49471   0.83333   0.97575   0.00000  Uiso   1.00
C886   C     0.62425   0.83333   0.73916   0.00000  Uiso   1.00
C887   C     0.37575   0.83333   0.76084   0.00000  Uiso   1.00
C888   C     0.50406   0.83333   0.66436   0.00000  Uiso   1.00
C889   C     0.49594   0.83333   0.83564   0.00000  Uiso   1.00
C890   C     0.52708   0.69062   0.77840   0.00000  Uiso   1.00
C891   C     0.47292   0.97605   0.72160   0.00000  Uiso   1.00
C892   C     0.47292   0.69062   0.72160   0.00000  Uiso   1.00
C893   C     0.52708   0.97605   0.77840   0.00000  Uiso   1.00
C894   C     0.35402   0.79232   0.75794   0.00000  Uiso   1.00
H895   H     0.51460   0.90570   0.53133   0.00000  Uiso   1.00
H896   H     0.48539   0.76097   0.96866   0.00000  Uiso   1.00
H897   H     0.48539   0.90570   0.96867   0.00000  Uiso   1.00
H898   H     0.51460   0.76097   0.53133   0.00000  Uiso   1.00
I899   I     0.57019   0.72526   0.82347   0.00000  Uiso   1.00
I900   I     0.42981   0.94141   0.67653   0.00000  Uiso   1.00
I901   I     0.42981   0.72526   0.67653   0.00000  Uiso   1.00
I902   I     0.57019   0.94141   0.82347   0.00000  Uiso   1.00
I903   I     0.37818   0.73259   0.78955   0.00000  Uiso   1.00
I904   I     0.62182   0.93408   0.71045   0.00000  Uiso   1.00
I905   I     0.62182   0.73259   0.71045   0.00000  Uiso   1.00
I906   I     0.37818   0.93408   0.78955   0.00000  Uiso   1.00
N907   N     0.50000   0.95240   0.75000   0.00000  Uiso   1.00
N908   N     0.50000   0.71427   0.75000   0.00000  Uiso   1.00
O909   O     0.43892   0.87154   0.75000   0.00000  Uiso   1.00
O910   O     0.56108   0.79513   0.75001   0.00000  Uiso   1.00
O911   O     0.56108   0.87154   0.75001   0.00000  Uiso   1.00
O912   O     0.43892   0.79513   0.75000   0.00000  Uiso   1.00
O913   O     0.50000   0.87155   0.68453   0.00000  Uiso   1.00
O914   O     0.50000   0.79511   0.81547   0.00000  Uiso   1.00
O915   O     0.50000   0.87155   0.81547   0.00000  Uiso   1.00
O916   O     0.50000   0.79511   0.68453   0.00000  Uiso   1.00
Zn917  Zn    0.50000   0.88437   0.75000   0.00000  Uiso   1.00
Zn918  Zn    0.50000   0.78229   0.75000   0.00000  Uiso   1.00
Br919  Br    0.86264   0.93163   0.62001   0.00000  Uiso   1.00
Br920  Br    0.80402   0.73504   0.87999   0.00000  Uiso   1.00
Br921  Br    0.80402   0.93163   0.87999   0.00000  Uiso   1.00
Br922  Br    0.86264   0.73504   0.62001   0.00000  Uiso   1.00
C923   C     0.75371   0.83333   0.75538   0.00000  Uiso   1.00
C924   C     0.97931   0.87435   0.74206   0.00000  Uiso   1.00
C925   C     0.97931   0.79232   0.74206   0.00000  Uiso   1.00
C926   C     0.68735   0.87434   0.75794   0.00000  Uiso   1.00
C927   C     0.84505   0.87377   0.54769   0.00000  Uiso   1.00
C928   C     0.82161   0.79290   0.95231   0.00000  Uiso   1.00
C929   C     0.82161   0.87377   0.95231   0.00000  Uiso   1.00
C930   C     0.84505   0.79290   0.54769   0.00000  Uiso   1.00
C931   C     0.84875   0.87417   0.59354   0.00000  Uiso   1.00
C932   C     0.81791   0.79249   0.90646   0.00000  Uiso   1.00
C933   C     0.81791   0.87417   0.90646   0.00000  Uiso   1.00
C934   C     0.91296   0.83333   0.74462   0.00000  Uiso   1.00
C935   C     0.84875   0.79249   0.59354   0.00000  Uiso   1.00
C936   C     0.84515   0.83333   0.61702   0.00000  Uiso   1.00
C937   C     0.82151   0.83333   0.88298   0.00000  Uiso   1.00
C938   C     0.83861   0.83333   0.52425   0.00000  Uiso   1.00
C939   C     0.82805   0.83333   0.97575   0.00000  Uiso   1.00
C940   C     0.95758   0.83333   0.73916   0.00000  Uiso   1.00
C941   C     0.70908   0.83333   0.76084   0.00000  Uiso   1.00
C942   C     0.83739   0.83333   0.66436   0.00000  Uiso   1.00
C943   C     0.82927   0.83333   0.83564   0.00000  Uiso   1.00
C944   C     0.86041   0.69062   0.77840   0.00000  Uiso   1.00
C945   C     0.80625   0.97605   0.72160   0.00000  Uiso   1.00
C946   C     0.80625   0.69062   0.72160   0.00000  Uiso   1.00
C947   C     0.86041   0.97605   0.77840   0.00000  Uiso   1.00
C948   C     0.68735   0.79232   0.75794   0.00000  Uiso   1.00
H949   H     0.84794   0.90570   0.53133   0.00000  Uiso   1.00
H950   H     0.81872   0.76097   0.96866   0.00000  Uiso   1.00
H951   H     0.81872   0.90570   0.96867   0.00000  Uiso   1.00
H952   H     0.84794   0.76097   0.53133   0.00000  Uiso   1.00
I953   I     0.90352   0.72526   0.82347   0.00000  Uiso   1.00
I954   I     0.76314   0.94141   0.67653   0.00000  Uiso   1.00
I955   I     0.76314   0.72526   0.67653   0.00000  Uiso   1.00
I956   I     0.90352   0.94141   0.82347   0.00000  Uiso   1.00
I957   I     0.71152   0.73259   0.78955   0.00000  Uiso   1.00
I958   I     0.95515   0.93408   0.71045   0.00000  Uiso   1.00
I959   I     0.95515   0.73259   0.71045   0.00000  Uiso   1.00
I960   I     0.71152   0.93408   0.78955   0.00000  Uiso   1.00
N961   N     0.83333   0.95240   0.75000   0.00000  Uiso   1.00
N962   N     0.83333   0.71427   0.75000   0.00000  Uiso   1.00
O963   O     0.77226   0.87154   0.75000   0.00000  Uiso   1.00
O964   O     0.89441   0.79513   0.75001   0.00000  Uiso   1.00
O965   O     0.89441   0.87154   0.75001   0.00000  Uiso   1.00
O966   O     0.77226   0.79513   0.75000   0.00000  Uiso   1.00
O967   O     0.83333   0.87155   0.68453   0.00000  Uiso   1.00
O968   O     0.83334   0.79511   0.81547   0.00000  Uiso   1.00
O969   O     0.83334   0.87155   0.81547   0.00000  Uiso   1.00
O970   O     0.83333   0.79511   0.68453   0.00000  Uiso   1.00
Zn971  Zn    0.83333   0.88437   0.75000   0.00000  Uiso   1.00
Zn972  Zn    0.83333   0.78229   0.75000   0.00000  Uiso   1.00
loop_
_geom_bond_atom_site_label_1
_geom_bond_atom_site_label_2
_geom_bond_distance
_geom_bond_site_symmetry_2
_ccdc_geom_bond_type
Br1    C13     1.927   .     S
Br2    C14     1.927   .     S
Br3    C15     1.927   .     S
Br4    C17     1.927   .     S
C5     C23     1.445   .     S
C5     O48     1.296   .     A
C5     O45     1.296   .     A
C6     I40     2.139   .     S
C6     C22     1.404   .     A
C6     C62     1.380   .     S
C7     C22     1.404   .     A
C7     I41     2.139   .     S
C7     C84     1.380   .     S
C8     I42     2.139   .     S
C8     C23     1.404   .     A
C8     C114    1.380   1_455 S
C9     C20     1.404   .     A
C9     H31     1.076   .     S
C9     C13     1.382   .     A
C10    H32     1.076   .     S
C10    C21     1.404   .     A
C10    C14     1.382   .     A
C11    C15     1.382   .     A
C11    H33     1.076   .     S
C11    C21     1.404   .     A
C12    C17     1.382   .     A
C12    C20     1.404   .     A
C12    H34     1.076   .     S
C13    C18     1.414   .     A
C14    C19     1.414   .     A
C15    C19     1.414   .     A
C16    O47     1.296   .     A
C16    O46     1.296   .     A
C16    C22     1.445   .     S
C17    C18     1.414   .     A
C18    C24     1.464   .     S
C19    C25     1.464   .     S
C20    C507    1.483   1_554 S
C21    C506    1.483   .     S
C23    C30     1.404   .     A
C24    O52     1.299   .     A
C24    O49     1.299   .     A
C25    O51     1.299   .     A
C25    O50     1.299   .     A
C26    N44     1.376   .     A
C26    I35     2.143   .     S
C26    C353    1.424   1_545 S
C27    I36     2.143   .     S
C27    N43     1.376   .     A
C27    C190    1.424   .     S
C28    I37     2.143   .     S
C28    N44     1.376   .     A
C28    C351    1.424   1_545 S
C29    I38     2.143   .     S
C29    N43     1.376   .     A
C29    C188    1.424   .     S
C30    I39     2.139   .     S
C30    C115    1.380   1_455 S
N43    Zn53    2.023   .     S
N44    Zn54    2.023   .     S
O45    Zn53    1.989   .     S
O46    Zn54    1.989   .     S
O47    Zn53    1.989   .     S
O48    Zn54    1.989   .     S
O49    Zn53    2.012   .     S
O50    Zn54    2.012   .     S
O51    Zn53    2.012   .     S
O52    Zn54    2.012   .     S
Br55   C67     1.927   .     S
Br56   C68     1.927   .     S
Br57   C69     1.927   .     S
Br58   C71     1.927   .     S
C59    C77     1.445   .     S
C59    O102    1.296   .     A
C59    O99     1.296   .     A
C60    I94     2.139   .     S
C60    C76     1.404   .     A
C60    C116    1.380   .     S
C61    C76     1.404   .     A
C61    I95     2.139   .     S
C61    C138    1.380   .     S
C62    I96     2.139   .     S
C62    C77     1.404   .     A
C63    C74     1.404   .     A
C63    H85     1.076   .     S
C63    C67     1.382   .     A
C64    H86     1.076   .     S
C64    C75     1.404   .     A
C64    C68     1.382   .     A
C65    C69     1.382   .     A
C65    H87     1.076   .     S
C65    C75     1.404   .     A
C66    C71     1.382   .     A
C66    C74     1.404   .     A
C66    H88     1.076   .     S
C67    C72     1.414   .     A
C68    C73     1.414   .     A
C69    C73     1.414   .     A
C70    O101    1.296   .     A
C70    O100    1.296   .     A
C70    C76     1.445   .     S
C71    C72     1.414   .     A
C72    C78     1.464   .     S
C73    C79     1.464   .     S
C74    C561    1.483   1_554 S
C75    C560    1.483   .     S
C77    C84     1.404   .     A
C78    O106    1.299   .     A
C78    O103    1.299   .     A
C79    O105    1.299   .     A
C79    O104    1.299   .     A
C80    N98     1.376   .     A
C80    I89     2.143   .     S
C80    C407    1.424   1_545 S
C81    I90     2.143   .     S
C81    N97     1.376   .     A
C81    C244    1.424   .     S
C82    I91     2.143   .     S
C82    N98     1.376   .     A
C82    C405    1.424   1_545 S
C83    I92     2.143   .     S
C83    N97     1.376   .     A
C83    C242    1.424   .     S
C84    I93     2.139   .     S
N97    Zn107   2.023   .     S
N98    Zn108   2.023   .     S
O99    Zn107   1.989   .     S
O100   Zn108   1.989   .     S
O101   Zn107   1.989   .     S
O102   Zn108   1.989   .     S
O103   Zn107   2.012   .     S
O104   Zn108   2.012   .     S
O105   Zn107   2.012   .     S
O106   Zn108   2.012   .     S
Br109  C121    1.927   .     S
Br110  C122    1.927   .     S
Br111  C123    1.927   .     S
Br112  C125    1.927   .     S
C113   C131    1.445   .     S
C113   O156    1.296   .     A
C113   O153    1.296   .     A
C114   I148    2.139   .     S
C114   C130    1.404   .     A
C114   C8      1.380   1_655 S
C115   C130    1.404   .     A
C115   I149    2.139   .     S
C115   C30     1.380   1_655 S
C116   I150    2.139   .     S
C116   C131    1.404   .     A
C117   C128    1.404   .     A
C117   H139    1.076   .     S
C117   C121    1.382   .     A
C118   H140    1.076   .     S
C118   C129    1.404   .     A
C118   C122    1.382   .     A
C119   C123    1.382   .     A
C119   H141    1.076   .     S
C119   C129    1.404   .     A
C120   C125    1.382   .     A
C120   C128    1.404   .     A
C120   H142    1.076   .     S
C121   C126    1.414   .     A
C122   C127    1.414   .     A
C123   C127    1.414   .     A
C124   O155    1.296   .     A
C124   O154    1.296   .     A
C124   C130    1.445   .     S
C125   C126    1.414   .     A
C126   C132    1.464   .     S
C127   C133    1.464   .     S
C128   C615    1.483   1_554 S
C129   C614    1.483   .     S
C131   C138    1.404   .     A
C132   O160    1.299   .     A
C132   O157    1.299   .     A
C133   O159    1.299   .     A
C133   O158    1.299   .     A
C134   N152    1.376   .     A
C134   I143    2.143   .     S
C134   C461    1.424   1_545 S
C135   I144    2.143   .     S
C135   N151    1.376   .     A
C135   C298    1.424   .     S
C136   I145    2.143   .     S
C136   N152    1.376   .     A
C136   C459    1.424   1_545 S
C137   I146    2.143   .     S
C137   N151    1.376   .     A
C137   C296    1.424   .     S
C138   I147    2.139   .     S
N151   Zn161   2.023   .     S
N152   Zn162   2.023   .     S
O153   Zn161   1.989   .     S
O154   Zn162   1.989   .     S
O155   Zn161   1.989   .     S
O156   Zn162   1.989   .     S
O157   Zn161   2.012   .     S
O158   Zn162   2.012   .     S
O159   Zn161   2.012   .     S
O160   Zn162   2.012   .     S
Br163  C175    1.927   .     S
Br164  C176    1.927   .     S
Br165  C177    1.927   .     S
Br166  C179    1.927   .     S
C167   C185    1.445   .     S
C167   O210    1.296   .     A
C167   O207    1.296   .     A
C168   I202    2.139   .     S
C168   C184    1.404   .     A
C168   C224    1.380   .     S
C169   C184    1.404   .     A
C169   I203    2.139   .     S
C169   C246    1.380   .     S
C170   I204    2.139   .     S
C170   C185    1.404   .     A
C170   C276    1.380   1_455 S
C171   C182    1.404   .     A
C171   H193    1.076   .     S
C171   C175    1.382   .     A
C172   H194    1.076   .     S
C172   C183    1.404   .     A
C172   C176    1.382   .     A
C173   C177    1.382   .     A
C173   H195    1.076   .     S
C173   C183    1.404   .     A
C174   C179    1.382   .     A
C174   C182    1.404   .     A
C174   H196    1.076   .     S
C175   C180    1.414   .     A
C176   C181    1.414   .     A
C177   C181    1.414   .     A
C178   O209    1.296   .     A
C178   O208    1.296   .     A
C178   C184    1.445   .     S
C179   C180    1.414   .     A
C180   C186    1.464   .     S
C181   C187    1.464   .     S
C182   C669    1.483   1_554 S
C183   C668    1.483   .     S
C185   C192    1.404   .     A
C186   O214    1.299   .     A
C186   O211    1.299   .     A
C187   O213    1.299   .     A
C187   O212    1.299   .     A
C188   N206    1.376   .     A
C188   I197    2.143   .     S
C189   I198    2.143   .     S
C189   N205    1.376   .     A
C189   C352    1.424   .     S
C190   I199    2.143   .     S
C190   N206    1.376   .     A
C191   I200    2.143   .     S
C191   N205    1.376   .     A
C191   C350    1.424   .     S
C192   I201    2.139   .     S
C192   C277    1.380   1_455 S
N205   Zn215   2.023   .     S
N206   Zn216   2.023   .     S
O207   Zn215   1.989   .     S
O208   Zn216   1.989   .     S
O209   Zn215   1.989   .     S
O210   Zn216   1.989   .     S
O211   Zn215   2.012   .     S
O212   Zn216   2.012   .     S
O213   Zn215   2.012   .     S
O214   Zn216   2.012   .     S
Br217  C229    1.927   .     S
Br218  C230    1.927   .     S
Br219  C231    1.927   .     S
Br220  C233    1.927   .     S
C221   C239    1.445   .     S
C221   O264    1.296   .     A
C221   O261    1.296   .     A
C222   I256    2.139   .     S
C222   C238    1.404   .     A
C222   C278    1.380   .     S
C223   C238    1.404   .     A
C223   I257    2.139   .     S
C223   C300    1.380   .     S
C224   I258    2.139   .     S
C224   C239    1.404   .     A
C225   C236    1.404   .     A
C225   H247    1.076   .     S
C225   C229    1.382   .     A
C226   H248    1.076   .     S
C226   C237    1.404   .     A
C226   C230    1.382   .     A
C227   C231    1.382   .     A
C227   H249    1.076   .     S
C227   C237    1.404   .     A
C228   C233    1.382   .     A
C228   C236    1.404   .     A
C228   H250    1.076   .     S
C229   C234    1.414   .     A
C230   C235    1.414   .     A
C231   C235    1.414   .     A
C232   O263    1.296   .     A
C232   O262    1.296   .     A
C232   C238    1.445   .     S
C233   C234    1.414   .     A
C234   C240    1.464   .     S
C235   C241    1.464   .     S
C236   C723    1.483   1_554 S
C237   C722    1.483   .     S
C239   C246    1.404   .     A
C240   O268    1.299   .     A
C240   O265    1.299   .     A
C241   O267    1.299   .     A
C241   O266    1.299   .     A
C242   N260    1.376   .     A
C242   I251    2.143   .     S
C243   I252    2.143   .     S
C243   N259    1.376   .     A
C243   C406    1.424   .     S
C244   I253    2.143   .     S
C244   N260    1.376   .     A
C245   I254    2.143   .     S
C245   N259    1.376   .     A
C245   C404    1.424   .     S
C246   I255    2.139   .     S
N259   Zn269   2.023   .     S
N260   Zn270   2.023   .     S
O261   Zn269   1.989   .     S
O262   Zn270   1.989   .     S
O263   Zn269   1.989   .     S
O264   Zn270   1.989   .     S
O265   Zn269   2.012   .     S
O266   Zn270   2.012   .     S
O267   Zn269   2.012   .     S
O268   Zn270   2.012   .     S
Br271  C283    1.927   .     S
Br272  C284    1.927   .     S
Br273  C285    1.927   .     S
Br274  C287    1.927   .     S
C275   C293    1.445   .     S
C275   O318    1.296   .     A
C275   O315    1.296   .     A
C276   I310    2.139   .     S
C276   C292    1.404   .     A
C276   C170    1.380   1_655 S
C277   C292    1.404   .     A
C277   I311    2.139   .     S
C277   C192    1.380   1_655 S
C278   I312    2.139   .     S
C278   C293    1.404   .     A
C279   C290    1.404   .     A
C279   H301    1.076   .     S
C279   C283    1.382   .     A
C280   H302    1.076   .     S
C280   C291    1.404   .     A
C280   C284    1.382   .     A
C281   C285    1.382   .     A
C281   H303    1.076   .     S
C281   C291    1.404   .     A
C282   C287    1.382   .     A
C282   C290    1.404   .     A
C282   H304    1.076   .     S
C283   C288    1.414   .     A
C284   C289    1.414   .     A
C285   C289    1.414   .     A
C286   O317    1.296   .     A
C286   O316    1.296   .     A
C286   C292    1.445   .     S
C287   C288    1.414   .     A
C288   C294    1.464   .     S
C289   C295    1.464   .     S
C290   C777    1.483   1_554 S
C291   C776    1.483   .     S
C293   C300    1.404   .     A
C294   O322    1.299   .     A
C294   O319    1.299   .     A
C295   O321    1.299   .     A
C295   O320    1.299   .     A
C296   N314    1.376   .     A
C296   I305    2.143   .     S
C297   I306    2.143   .     S
C297   N313    1.376   .     A
C297   C460    1.424   .     S
C298   I307    2.143   .     S
C298   N314    1.376   .     A
C299   I308    2.143   .     S
C299   N313    1.376   .     A
C299   C458    1.424   .     S
C300   I309    2.139   .     S
N313   Zn323   2.023   .     S
N314   Zn324   2.023   .     S
O315   Zn323   1.989   .     S
O316   Zn324   1.989   .     S
O317   Zn323   1.989   .     S
O318   Zn324   1.989   .     S
O319   Zn323   2.012   .     S
O320   Zn324   2.012   .     S
O321   Zn323   2.012   .     S
O322   Zn324   2.012   .     S
Br325  C337    1.927   .     S
Br326  C338    1.927   .     S
Br327  C339    1.927   .     S
Br328  C341    1.927   .     S
C329   C347    1.445   .     S
C329   O372    1.296   .     A
C329   O369    1.296   .     A
C330   I364    2.139   .     S
C330   C346    1.404   .     A
C330   C386    1.380   .     S
C331   C346    1.404   .     A
C331   I365    2.139   .     S
C331   C408    1.380   .     S
C332   I366    2.139   .     S
C332   C347    1.404   .     A
C332   C438    1.380   1_455 S
C333   C344    1.404   .     A
C333   H355    1.076   .     S
C333   C337    1.382   .     A
C334   H356    1.076   .     S
C334   C345    1.404   .     A
C334   C338    1.382   .     A
C335   C339    1.382   .     A
C335   H357    1.076   .     S
C335   C345    1.404   .     A
C336   C341    1.382   .     A
C336   C344    1.404   .     A
C336   H358    1.076   .     S
C337   C342    1.414   .     A
C338   C343    1.414   .     A
C339   C343    1.414   .     A
C340   O371    1.296   .     A
C340   O370    1.296   .     A
C340   C346    1.445   .     S
C341   C342    1.414   .     A
C342   C348    1.464   .     S
C343   C349    1.464   .     S
C344   C831    1.483   1_554 S
C345   C830    1.483   .     S
C347   C354    1.404   .     A
C348   O376    1.299   .     A
C348   O373    1.299   .     A
C349   O375    1.299   .     A
C349   O374    1.299   .     A
C350   N368    1.376   .     A
C350   I359    2.143   .     S
C351   I360    2.143   .     S
C351   N367    1.376   .     A
C351   C28     1.424   1_565 S
C352   I361    2.143   .     S
C352   N368    1.376   .     A
C353   I362    2.143   .     S
C353   N367    1.376   .     A
C353   C26     1.424   1_565 S
C354   I363    2.139   .     S
C354   C439    1.380   1_455 S
N367   Zn377   2.023   .     S
N368   Zn378   2.023   .     S
O369   Zn377   1.989   .     S
O370   Zn378   1.989   .     S
O371   Zn377   1.989   .     S
O372   Zn378   1.989   .     S
O373   Zn377   2.012   .     S
O374   Zn378   2.012   .     S
O375   Zn377   2.012   .     S
O376   Zn378   2.012   .     S
Br379  C391    1.927   .     S
Br380  C392    1.927   .     S
Br381  C393    1.927   .     S
Br382  C395    1.927   .     S
C383   C401    1.445   .     S
C383   O426    1.296   .     A
C383   O423    1.296   .     A
C384   I418    2.139   .     S
C384   C400    1.404   .     A
C384   C440    1.380   .     S
C385   C400    1.404   .     A
C385   I419    2.139   .     S
C385   C462    1.380   .     S
C386   I420    2.139   .     S
C386   C401    1.404   .     A
C387   C398    1.404   .     A
C387   H409    1.076   .     S
C387   C391    1.382   .     A
C388   H410    1.076   .     S
C388   C399    1.404   .     A
C388   C392    1.382   .     A
C389   C393    1.382   .     A
C389   H411    1.076   .     S
C389   C399    1.404   .     A
C390   C395    1.382   .     A
C390   C398    1.404   .     A
C390   H412    1.076   .     S
C391   C396    1.414   .     A
C392   C397    1.414   .     A
C393   C397    1.414   .     A
C394   O425    1.296   .     A
C394   O424    1.296   .     A
C394   C400    1.445   .     S
C395   C396    1.414   .     A
C396   C402    1.464   .     S
C397   C403    1.464   .     S
C398   C885    1.483   1_554 S
C399   C884    1.483   .     S
C401   C408    1.404   .     A
C402   O430    1.299   .     A
C402   O427    1.299   .     A
C403   O429    1.299   .     A
C403   O428    1.299   .     A
C404   N422    1.376   .     A
C404   I413    2.143   .     S
C405   I414    2.143   .     S
C405   N421    1.376   .     A
C405   C82     1.424   1_565 S
C406   I415    2.143   .     S
C406   N422    1.376   .     A
C407   I416    2.143   .     S
C407   N421    1.376   .     A
C407   C80     1.424   1_565 S
C408   I417    2.139   .     S
N421   Zn431   2.023   .     S
N422   Zn432   2.023   .     S
O423   Zn431   1.989   .     S
O424   Zn432   1.989   .     S
O425   Zn431   1.989   .     S
O426   Zn432   1.989   .     S
O427   Zn431   2.012   .     S
O428   Zn432   2.012   .     S
O429   Zn431   2.012   .     S
O430   Zn432   2.012   .     S
Br433  C445    1.927   .     S
Br434  C446    1.927   .     S
Br435  C447    1.927   .     S
Br436  C449    1.927   .     S
C437   C455    1.445   .     S
C437   O480    1.296   .     A
C437   O477    1.296   .     A
C438   I472    2.139   .     S
C438   C454    1.404   .     A
C438   C332    1.380   1_655 S
C439   C454    1.404   .     A
C439   I473    2.139   .     S
C439   C354    1.380   1_655 S
C440   I474    2.139   .     S
C440   C455    1.404   .     A
C441   C452    1.404   .     A
C441   H463    1.076   .     S
C441   C445    1.382   .     A
C442   H464    1.076   .     S
C442   C453    1.404   .     A
C442   C446    1.382   .     A
C443   C447    1.382   .     A
C443   H465    1.076   .     S
C443   C453    1.404   .     A
C444   C449    1.382   .     A
C444   C452    1.404   .     A
C444   H466    1.076   .     S
C445   C450    1.414   .     A
C446   C451    1.414   .     A
C447   C451    1.414   .     A
C448   O479    1.296   .     A
C448   O478    1.296   .     A
C448   C454    1.445   .     S
C449   C450    1.414   .     A
C450   C456    1.464   .     S
C451   C457    1.464   .     S
C452   C939    1.483   1_554 S
C453   C938    1.483   .     S
C455   C462    1.404   .     A
C456   O484    1.299   .     A
C456   O481    1.299   .     A
C457   O483    1.299   .     A
C457   O482    1.299   .     A
C458   N476    1.376   .     A
C458   I467    2.143   .     S
C459   I468    2.143   .     S
C459   N475    1.376   .     A
C459   C136    1.424   1_565 S
C460   I469    2.143   .     S
C460   N476    1.376   .     A
C461   I470    2.143   .     S
C461   N475    1.376   .     A
C461   C134    1.424   1_565 S
C462   I471    2.139   .     S
N475   Zn485   2.023   .     S
N476   Zn486   2.023   .     S
O477   Zn485   1.989   .     S
O478   Zn486   1.989   .     S
O479   Zn485   1.989   .     S
O480   Zn486   1.989   .     S
O481   Zn485   2.012   .     S
O482   Zn486   2.012   .     S
O483   Zn485   2.012   .     S
O484   Zn486   2.012   .     S
Br487  C499    1.927   .     S
Br488  C500    1.927   .     S
Br489  C501    1.927   .     S
Br490  C503    1.927   .     S
C491   C509    1.445   .     S
C491   O534    1.296   .     A
C491   O531    1.296   .     A
C492   I526    2.139   .     S
C492   C508    1.404   .     A
C492   C548    1.380   .     S
C493   C508    1.404   .     A
C493   I527    2.139   .     S
C493   C570    1.380   .     S
C494   I528    2.139   .     S
C494   C509    1.404   .     A
C494   C600    1.380   1_455 S
C495   C506    1.404   .     A
C495   H517    1.076   .     S
C495   C499    1.382   .     A
C496   H518    1.076   .     S
C496   C507    1.404   .     A
C496   C500    1.382   .     A
C497   C501    1.382   .     A
C497   H519    1.076   .     S
C497   C507    1.404   .     A
C498   C503    1.382   .     A
C498   C506    1.404   .     A
C498   H520    1.076   .     S
C499   C504    1.414   .     A
C500   C505    1.414   .     A
C501   C505    1.414   .     A
C502   O533    1.296   .     A
C502   O532    1.296   .     A
C502   C508    1.445   .     S
C503   C504    1.414   .     A
C504   C510    1.464   .     S
C505   C511    1.464   .     S
C507   C20     1.483   1_556 S
C509   C516    1.404   .     A
C510   O538    1.299   .     A
C510   O535    1.299   .     A
C511   O537    1.299   .     A
C511   O536    1.299   .     A
C512   N530    1.376   .     A
C512   I521    2.143   .     S
C512   C839    1.424   1_545 S
C513   I522    2.143   .     S
C513   N529    1.376   .     A
C513   C676    1.424   .     S
C514   I523    2.143   .     S
C514   N530    1.376   .     A
C514   C837    1.424   1_545 S
C515   I524    2.143   .     S
C515   N529    1.376   .     A
C515   C674    1.424   .     S
C516   I525    2.139   .     S
C516   C601    1.380   1_455 S
N529   Zn539   2.023   .     S
N530   Zn540   2.023   .     S
O531   Zn539   1.989   .     S
O532   Zn540   1.989   .     S
O533   Zn539   1.989   .     S
O534   Zn540   1.989   .     S
O535   Zn539   2.012   .     S
O536   Zn540   2.012   .     S
O537   Zn539   2.012   .     S
O538   Zn540   2.012   .     S
Br541  C553    1.927   .     S
Br542  C554    1.927   .     S
Br543  C555    1.927   .     S
Br544  C557    1.927   .     S
C545   C563    1.445   .     S
C545   O588    1.296   .     A
C545   O585    1.296   .     A
C546   I580    2.139   .     S
C546   C562    1.404   .     A
C546   C602    1.380   .     S
C547   C562    1.404   .     A
C547   I581    2.139   .     S
C547   C624    1.380   .     S
C548   I582    2.139   .     S
C548   C563    1.404   .     A
C549   C560    1.404   .     A
C549   H571    1.076   .     S
C549   C553    1.382   .     A
C550   H572    1.076   .     S
C550   C561    1.404   .     A
C550   C554    1.382   .     A
C551   C555    1.382   .     A
C551   H573    1.076   .     S
C551   C561    1.404   .     A
C552   C557    1.382   .     A
C552   C560    1.404   .     A
C552   H574    1.076   .     S
C553   C558    1.414   .     A
C554   C559    1.414   .     A
C555   C559    1.414   .     A
C556   O587    1.296   .     A
C556   O586    1.296   .     A
C556   C562    1.445   .     S
C557   C558    1.414   .     A
C558   C564    1.464   .     S
C559   C565    1.464   .     S
C561   C74     1.483   1_556 S
C563   C570    1.404   .     A
C564   O592    1.299   .     A
C564   O589    1.299   .     A
C565   O591    1.299   .     A
C565   O590    1.299   .     A
C566   N584    1.376   .     A
C566   I575    2.143   .     S
C566   C893    1.424   1_545 S
C567   I576    2.143   .     S
C567   N583    1.376   .     A
C567   C730    1.424   .     S
C568   I577    2.143   .     S
C568   N584    1.376   .     A
C568   C891    1.424   1_545 S
C569   I578    2.143   .     S
C569   N583    1.376   .     A
C569   C728    1.424   .     S
C570   I579    2.139   .     S
N583   Zn593   2.023   .     S
N584   Zn594   2.023   .     S
O585   Zn593   1.989   .     S
O586   Zn594   1.989   .     S
O587   Zn593   1.989   .     S
O588   Zn594   1.989   .     S
O589   Zn593   2.012   .     S
O590   Zn594   2.012   .     S
O591   Zn593   2.012   .     S
O592   Zn594   2.012   .     S
Br595  C607    1.927   .     S
Br596  C608    1.927   .     S
Br597  C609    1.927   .     S
Br598  C611    1.927   .     S
C599   C617    1.445   .     S
C599   O642    1.296   .     A
C599   O639    1.296   .     A
C600   I634    2.139   .     S
C600   C616    1.404   .     A
C600   C494    1.380   1_655 S
C601   C616    1.404   .     A
C601   I635    2.139   .     S
C601   C516    1.380   1_655 S
C602   I636    2.139   .     S
C602   C617    1.404   .     A
C603   C614    1.404   .     A
C603   H625    1.076   .     S
C603   C607    1.382   .     A
C604   H626    1.076   .     S
C604   C615    1.404   .     A
C604   C608    1.382   .     A
C605   C609    1.382   .     A
C605   H627    1.076   .     S
C605   C615    1.404   .     A
C606   C611    1.382   .     A
C606   C614    1.404   .     A
C606   H628    1.076   .     S
C607   C612    1.414   .     A
C608   C613    1.414   .     A
C609   C613    1.414   .     A
C610   O641    1.296   .     A
C610   O640    1.296   .     A
C610   C616    1.445   .     S
C611   C612    1.414   .     A
C612   C618    1.464   .     S
C613   C619    1.464   .     S
C615   C128    1.483   1_556 S
C617   C624    1.404   .     A
C618   O646    1.299   .     A
C618   O643    1.299   .     A
C619   O645    1.299   .     A
C619   O644    1.299   .     A
C620   N638    1.376   .     A
C620   I629    2.143   .     S
C620   C947    1.424   1_545 S
C621   I630    2.143   .     S
C621   N637    1.376   .     A
C621   C784    1.424   .     S
C622   I631    2.143   .     S
C622   N638    1.376   .     A
C622   C945    1.424   1_545 S
C623   I632    2.143   .     S
C623   N637    1.376   .     A
C623   C782    1.424   .     S
C624   I633    2.139   .     S
N637   Zn647   2.023   .     S
N638   Zn648   2.023   .     S
O639   Zn647   1.989   .     S
O640   Zn648   1.989   .     S
O641   Zn647   1.989   .     S
O642   Zn648   1.989   .     S
O643   Zn647   2.012   .     S
O644   Zn648   2.012   .     S
O645   Zn647   2.012   .     S
O646   Zn648   2.012   .     S
Br649  C661    1.927   .     S
Br650  C662    1.927   .     S
Br651  C663    1.927   .     S
Br652  C665    1.927   .     S
C653   C671    1.445   .     S
C653   O696    1.296   .     A
C653   O693    1.296   .     A
C654   I688    2.139   .     S
C654   C670    1.404   .     A
C654   C710    1.380   .     S
C655   C670    1.404   .     A
C655   I689    2.139   .     S
C655   C732    1.380   .     S
C656   I690    2.139   .     S
C656   C671    1.404   .     A
C656   C762    1.380   1_455 S
C657   C668    1.404   .     A
C657   H679    1.076   .     S
C657   C661    1.382   .     A
C658   H680    1.076   .     S
C658   C669    1.404   .     A
C658   C662    1.382   .     A
C659   C663    1.382   .     A
C659   H681    1.076   .     S
C659   C669    1.404   .     A
C660   C665    1.382   .     A
C660   C668    1.404   .     A
C660   H682    1.076   .     S
C661   C666    1.414   .     A
C662   C667    1.414   .     A
C663   C667    1.414   .     A
C664   O695    1.296   .     A
C664   O694    1.296   .     A
C664   C670    1.445   .     S
C665   C666    1.414   .     A
C666   C672    1.464   .     S
C667   C673    1.464   .     S
C669   C182    1.483   1_556 S
C671   C678    1.404   .     A
C672   O700    1.299   .     A
C672   O697    1.299   .     A
C673   O699    1.299   .     A
C673   O698    1.299   .     A
C674   N692    1.376   .     A
C674   I683    2.143   .     S
C675   I684    2.143   .     S
C675   N691    1.376   .     A
C675   C838    1.424   .     S
C676   I685    2.143   .     S
C676   N692    1.376   .     A
C677   I686    2.143   .     S
C677   N691    1.376   .     A
C677   C836    1.424   .     S
C678   I687    2.139   .     S
C678   C763    1.380   1_455 S
N691   Zn701   2.023   .     S
N692   Zn702   2.023   .     S
O693   Zn701   1.989   .     S
O694   Zn702   1.989   .     S
O695   Zn701   1.989   .     S
O696   Zn702   1.989   .     S
O697   Zn701   2.012   .     S
O698   Zn702   2.012   .     S
O699   Zn701   2.012   .     S
O700   Zn702   2.012   .     S
Br703  C715    1.927   .     S
Br704  C716    1.927   .     S
Br705  C717    1.927   .     S
Br706  C719    1.927   .     S
C707   C725    1.445   .     S
C707   O750    1.296   .     A
C707   O747    1.296   .     A
C708   I742    2.139   .     S
C708   C724    1.404   .     A
C708   C764    1.380   .     S
C709   C724    1.404   .     A
C709   I743    2.139   .     S
C709   C786    1.380   .     S
C710   I744    2.139   .     S
C710   C725    1.404   .     A
C711   C722    1.404   .     A
C711   H733    1.076   .     S
C711   C715    1.382   .     A
C712   H734    1.076   .     S
C712   C723    1.404   .     A
C712   C716    1.382   .     A
C713   C717    1.382   .     A
C713   H735    1.076   .     S
C713   C723    1.404   .     A
C714   C719    1.382   .     A
C714   C722    1.404   .     A
C714   H736    1.076   .     S
C715   C720    1.414   .     A
C716   C721    1.414   .     A
C717   C721    1.414   .     A
C718   O749    1.296   .     A
C718   O748    1.296   .     A
C718   C724    1.445   .     S
C719   C720    1.414   .     A
C720   C726    1.464   .     S
C721   C727    1.464   .     S
C723   C236    1.483   1_556 S
C725   C732    1.404   .     A
C726   O754    1.299   .     A
C726   O751    1.299   .     A
C727   O753    1.299   .     A
C727   O752    1.299   .     A
C728   N746    1.376   .     A
C728   I737    2.143   .     S
C729   I738    2.143   .     S
C729   N745    1.376   .     A
C729   C892    1.424   .     S
C730   I739    2.143   .     S
C730   N746    1.376   .     A
C731   I740    2.143   .     S
C731   N745    1.376   .     A
C731   C890    1.424   .     S
C732   I741    2.139   .     S
N745   Zn755   2.023   .     S
N746   Zn756   2.023   .     S
O747   Zn755   1.989   .     S
O748   Zn756   1.989   .     S
O749   Zn755   1.989   .     S
O750   Zn756   1.989   .     S
O751   Zn755   2.012   .     S
O752   Zn756   2.012   .     S
O753   Zn755   2.012   .     S
O754   Zn756   2.012   .     S
Br757  C769    1.927   .     S
Br758  C770    1.927   .     S
Br759  C771    1.927   .     S
Br760  C773    1.927   .     S
C761   C779    1.445   .     S
C761   O804    1.296   .     A
C761   O801    1.296   .     A
C762   I796    2.139   .     S
C762   C778    1.404   .     A
C762   C656    1.380   1_655 S
C763   C778    1.404   .     A
C763   I797    2.139   .     S
C763   C678    1.380   1_655 S
C764   I798    2.139   .     S
C764   C779    1.404   .     A
C765   C776    1.404   .     A
C765   H787    1.076   .     S
C765   C769    1.382   .     A
C766   H788    1.076   .     S
C766   C777    1.404   .     A
C766   C770    1.382   .     A
C767   C771    1.382   .     A
C767   H789    1.076   .     S
C767   C777    1.404   .     A
C768   C773    1.382   .     A
C768   C776    1.404   .     A
C768   H790    1.076   .     S
C769   C774    1.414   .     A
C770   C775    1.414   .     A
C771   C775    1.414   .     A
C772   O803    1.296   .     A
C772   O802    1.296   .     A
C772   C778    1.445   .     S
C773   C774    1.414   .     A
C774   C780    1.464   .     S
C775   C781    1.464   .     S
C777   C290    1.483   1_556 S
C779   C786    1.404   .     A
C780   O808    1.299   .     A
C780   O805    1.299   .     A
C781   O807    1.299   .     A
C781   O806    1.299   .     A
C782   N800    1.376   .     A
C782   I791    2.143   .     S
C783   I792    2.143   .     S
C783   N799    1.376   .     A
C783   C946    1.424   .     S
C784   I793    2.143   .     S
C784   N800    1.376   .     A
C785   I794    2.143   .     S
C785   N799    1.376   .     A
C785   C944    1.424   .     S
C786   I795    2.139   .     S
N799   Zn809   2.023   .     S
N800   Zn810   2.023   .     S
O801   Zn809   1.989   .     S
O802   Zn810   1.989   .     S
O803   Zn809   1.989   .     S
O804   Zn810   1.989   .     S
O805   Zn809   2.012   .     S
O806   Zn810   2.012   .     S
O807   Zn809   2.012   .     S
O808   Zn810   2.012   .     S
Br811  C823    1.927   .     S
Br812  C824    1.927   .     S
Br813  C825    1.927   .     S
Br814  C827    1.927   .     S
C815   C833    1.445   .     S
C815   O858    1.296   .     A
C815   O855    1.296   .     A
C816   I850    2.139   .     S
C816   C832    1.404   .     A
C816   C872    1.380   .     S
C817   C832    1.404   .     A
C817   I851    2.139   .     S
C817   C894    1.380   .     S
C818   I852    2.139   .     S
C818   C833    1.404   .     A
C818   C924    1.380   1_455 S
C819   C830    1.404   .     A
C819   H841    1.076   .     S
C819   C823    1.382   .     A
C820   H842    1.076   .     S
C820   C831    1.404   .     A
C820   C824    1.382   .     A
C821   C825    1.382   .     A
C821   H843    1.076   .     S
C821   C831    1.404   .     A
C822   C827    1.382   .     A
C822   C830    1.404   .     A
C822   H844    1.076   .     S
C823   C828    1.414   .     A
C824   C829    1.414   .     A
C825   C829    1.414   .     A
C826   O857    1.296   .     A
C826   O856    1.296   .     A
C826   C832    1.445   .     S
C827   C828    1.414   .     A
C828   C834    1.464   .     S
C829   C835    1.464   .     S
C831   C344    1.483   1_556 S
C833   C840    1.404   .     A
C834   O862    1.299   .     A
C834   O859    1.299   .     A
C835   O861    1.299   .     A
C835   O860    1.299   .     A
C836   N854    1.376   .     A
C836   I845    2.143   .     S
C837   I846    2.143   .     S
C837   N853    1.376   .     A
C837   C514    1.424   1_565 S
C838   I847    2.143   .     S
C838   N854    1.376   .     A
C839   I848    2.143   .     S
C839   N853    1.376   .     A
C839   C512    1.424   1_565 S
C840   I849    2.139   .     S
C840   C925    1.380   1_455 S
N853   Zn863   2.023   .     S
N854   Zn864   2.023   .     S
O855   Zn863   1.989   .     S
O856   Zn864   1.989   .     S
O857   Zn863   1.989   .     S
O858   Zn864   1.989   .     S
O859   Zn863   2.012   .     S
O860   Zn864   2.012   .     S
O861   Zn863   2.012   .     S
O862   Zn864   2.012   .     S
Br865  C877    1.927   .     S
Br866  C878    1.927   .     S
Br867  C879    1.927   .     S
Br868  C881    1.927   .     S
C869   C887    1.445   .     S
C869   O912    1.296   .     A
C869   O909    1.296   .     A
C870   I904    2.139   .     S
C870   C886    1.404   .     A
C870   C926    1.380   .     S
C871   C886    1.404   .     A
C871   I905    2.139   .     S
C871   C948    1.380   .     S
C872   I906    2.139   .     S
C872   C887    1.404   .     A
C873   C884    1.404   .     A
C873   H895    1.076   .     S
C873   C877    1.382   .     A
C874   H896    1.076   .     S
C874   C885    1.404   .     A
C874   C878    1.382   .     A
C875   C879    1.382   .     A
C875   H897    1.076   .     S
C875   C885    1.404   .     A
C876   C881    1.382   .     A
C876   C884    1.404   .     A
C876   H898    1.076   .     S
C877   C882    1.414   .     A
C878   C883    1.414   .     A
C879   C883    1.414   .     A
C880   O911    1.296   .     A
C880   O910    1.296   .     A
C880   C886    1.445   .     S
C881   C882    1.414   .     A
C882   C888    1.464   .     S
C883   C889    1.464   .     S
C885   C398    1.483   1_556 S
C887   C894    1.404   .     A
C888   O916    1.299   .     A
C888   O913    1.299   .     A
C889   O915    1.299   .     A
C889   O914    1.299   .     A
C890   N908    1.376   .     A
C890   I899    2.143   .     S
C891   I900    2.143   .     S
C891   N907    1.376   .     A
C891   C568    1.424   1_565 S
C892   I901    2.143   .     S
C892   N908    1.376   .     A
C893   I902    2.143   .     S
C893   N907    1.376   .     A
C893   C566    1.424   1_565 S
C894   I903    2.139   .     S
N907   Zn917   2.023   .     S
N908   Zn918   2.023   .     S
O909   Zn917   1.989   .     S
O910   Zn918   1.989   .     S
O911   Zn917   1.989   .     S
O912   Zn918   1.989   .     S
O913   Zn917   2.012   .     S
O914   Zn918   2.012   .     S
O915   Zn917   2.012   .     S
O916   Zn918   2.012   .     S
Br919  C931    1.927   .     S
Br920  C932    1.927   .     S
Br921  C933    1.927   .     S
Br922  C935    1.927   .     S
C923   C941    1.445   .     S
C923   O966    1.296   .     A
C923   O963    1.296   .     A
C924   I958    2.139   .     S
C924   C940    1.404   .     A
C924   C818    1.380   1_655 S
C925   C940    1.404   .     A
C925   I959    2.139   .     S
C925   C840    1.380   1_655 S
C926   I960    2.139   .     S
C926   C941    1.404   .     A
C927   C938    1.404   .     A
C927   H949    1.076   .     S
C927   C931    1.382   .     A
C928   H950    1.076   .     S
C928   C939    1.404   .     A
C928   C932    1.382   .     A
C929   C933    1.382   .     A
C929   H951    1.076   .     S
C929   C939    1.404   .     A
C930   C935    1.382   .     A
C930   C938    1.404   .     A
C930   H952    1.076   .     S
C931   C936    1.414   .     A
C932   C937    1.414   .     A
C933   C937    1.414   .     A
C934   O965    1.296   .     A
C934   O964    1.296   .     A
C934   C940    1.445   .     S
C935   C936    1.414   .     A
C936   C942    1.464   .     S
C937   C943    1.464   .     S
C939   C452    1.483   1_556 S
C941   C948    1.404   .     A
C942   O970    1.299   .     A
C942   O967    1.299   .     A
C943   O969    1.299   .     A
C943   O968    1.299   .     A
C944   N962    1.376   .     A
C944   I953    2.143   .     S
C945   I954    2.143   .     S
C945   N961    1.376   .     A
C945   C622    1.424   1_565 S
C946   I955    2.143   .     S
C946   N962    1.376   .     A
C947   I956    2.143   .     S
C947   N961    1.376   .     A
C947   C620    1.424   1_565 S
C948   I957    2.139   .     S
N961   Zn971   2.023   .     S
N962   Zn972   2.023   .     S
O963   Zn971   1.989   .     S
O964   Zn972   1.989   .     S
O965   Zn971   1.989   .     S
O966   Zn972   1.989   .     S
O967   Zn971   2.012   .     S
O968   Zn972   2.012   .     S
O969   Zn971   2.012   .     S
O970   Zn972   2.012   .     S
