data_str_m3_o1_o17_pcu_sym.117
_audit_creation_date              2020-01-03
_audit_creation_method            'Materials Studio'
_symmetry_space_group_name_H-M    'P1'
_symmetry_Int_Tables_number       1
_symmetry_cell_setting            triclinic
loop_
_symmetry_equiv_pos_as_xyz
  x,y,z
_cell_length_a                    32.1573
_cell_length_b                    29.4690
_cell_length_c                    30.0411
_cell_angle_alpha                 90.1824
_cell_angle_beta                  90.1157
_cell_angle_gamma                 90.0072
loop_
_atom_site_label
_atom_site_type_symbol
_atom_site_fract_x
_atom_site_fract_y
_atom_site_fract_z
_atom_site_U_iso_or_equiv
_atom_site_adp_type
_atom_site_occupancy
C1     C     0.08661   0.16666   0.24997   0.00000  Uiso   1.00
C2     C     0.24673   0.16667   0.25003   0.00000  Uiso   1.00
C3     C     0.17742   0.24841   0.02417   0.00000  Uiso   1.00
C4     C     0.15591   0.08492   0.47583   0.00000  Uiso   1.00
C5     C     0.02131   0.12615   0.25822   0.00000  Uiso   1.00
C6     C     0.31202   0.20718   0.24178   0.00000  Uiso   1.00
C7     C     0.31205   0.12616   0.25827   0.00000  Uiso   1.00
C8     C     0.02129   0.20717   0.24173   0.00000  Uiso   1.00
C9     C     0.29087   0.16667   0.25004   0.00000  Uiso   1.00
C10    C     0.04247   0.16666   0.24996   0.00000  Uiso   1.00
C11    C     0.19159   0.02410   0.27868   0.00000  Uiso   1.00
C12    C     0.14174   0.30923   0.22132   0.00000  Uiso   1.00
C13    C     0.14174   0.02391   0.22132   0.00000  Uiso   1.00
C14    C     0.19159   0.30942   0.27868   0.00000  Uiso   1.00
C15    C     0.16675   0.16658   0.16326   0.00000  Uiso   1.00
C16    C     0.16659   0.16675   0.33674   0.00000  Uiso   1.00
C17    C     0.15989   0.12637   0.40735   0.00000  Uiso   1.00
C18    C     0.17345   0.20697   0.09265   0.00000  Uiso   1.00
C19    C     0.16598   0.16699   0.38466   0.00000  Uiso   1.00
C20    C     0.16736   0.16634   0.11534   0.00000  Uiso   1.00
C21    C     0.17153   0.20786   0.40760   0.00000  Uiso   1.00
C22    C     0.16180   0.12547   0.09240   0.00000  Uiso   1.00
C23    C     0.17048   0.20880   0.45390   0.00000  Uiso   1.00
C24    C     0.16285   0.12453   0.04610   0.00000  Uiso   1.00
C25    C     0.16601   0.16707   0.47682   0.00000  Uiso   1.00
C26    C     0.16732   0.16627   0.02318   0.00000  Uiso   1.00
C27    C     0.16033   0.12601   0.45332   0.00000  Uiso   1.00
C28    C     0.17301   0.20732   0.04668   0.00000  Uiso   1.00
C29    C     0.17515   0.24991   0.47805   0.00000  Uiso   1.00
C30    C     0.15819   0.08342   0.02195   0.00000  Uiso   1.00
H31    H     0.15539   0.09481   0.38927   0.00000  Uiso   1.00
H32    H     0.17794   0.23852   0.11073   0.00000  Uiso   1.00
H33    H     0.17763   0.23846   0.38895   0.00000  Uiso   1.00
H34    H     0.15570   0.09488   0.11105   0.00000  Uiso   1.00
H35    H     0.18146   0.27984   0.04255   0.00000  Uiso   1.00
H36    H     0.15187   0.05349   0.45745   0.00000  Uiso   1.00
H37    H     0.03754   0.09467   0.26489   0.00000  Uiso   1.00
H38    H     0.29579   0.23867   0.23511   0.00000  Uiso   1.00
H39    H     0.29583   0.09468   0.26498   0.00000  Uiso   1.00
H40    H     0.03750   0.23865   0.23502   0.00000  Uiso   1.00
H41    H     0.21151   0.04241   0.30157   0.00000  Uiso   1.00
H42    H     0.12182   0.29092   0.19843   0.00000  Uiso   1.00
H43    H     0.12184   0.04207   0.19841   0.00000  Uiso   1.00
H44    H     0.21150   0.29126   0.30159   0.00000  Uiso   1.00
N45    N     0.16667   0.28573   0.25000   0.00000  Uiso   1.00
N46    N     0.16667   0.04760   0.25000   0.00000  Uiso   1.00
O47    O     0.10559   0.20487   0.25000   0.00000  Uiso   1.00
O48    O     0.22774   0.12846   0.25001   0.00000  Uiso   1.00
O49    O     0.22774   0.20487   0.25001   0.00000  Uiso   1.00
O50    O     0.10559   0.12846   0.25000   0.00000  Uiso   1.00
O51    O     0.16666   0.20489   0.18393   0.00000  Uiso   1.00
O52    O     0.16667   0.12844   0.31608   0.00000  Uiso   1.00
O53    O     0.16667   0.20489   0.31608   0.00000  Uiso   1.00
O54    O     0.16666   0.12844   0.18393   0.00000  Uiso   1.00
Zn55   Zn    0.16667   0.21771   0.25000   0.00000  Uiso   1.00
Zn56   Zn    0.16667   0.11563   0.25000   0.00000  Uiso   1.00
O57    O     0.17758   0.29201   0.45827   0.00000  Uiso   1.00
H58    H     0.15890   0.29229   0.43207   0.00000  Uiso   1.00
O59    O     0.15575   0.04133   0.04173   0.00000  Uiso   1.00
H60    H     0.17443   0.04104   0.06793   0.00000  Uiso   1.00
C61    C     0.41994   0.16666   0.24997   0.00000  Uiso   1.00
C62    C     0.58006   0.16667   0.25003   0.00000  Uiso   1.00
C63    C     0.51075   0.24841   0.02417   0.00000  Uiso   1.00
C64    C     0.48924   0.08492   0.47583   0.00000  Uiso   1.00
C65    C     0.35464   0.12615   0.25822   0.00000  Uiso   1.00
C66    C     0.64536   0.20718   0.24178   0.00000  Uiso   1.00
C67    C     0.64538   0.12616   0.25827   0.00000  Uiso   1.00
C68    C     0.35462   0.20717   0.24173   0.00000  Uiso   1.00
C69    C     0.62420   0.16667   0.25004   0.00000  Uiso   1.00
C70    C     0.37580   0.16666   0.24996   0.00000  Uiso   1.00
C71    C     0.52493   0.02410   0.27868   0.00000  Uiso   1.00
C72    C     0.47507   0.30923   0.22132   0.00000  Uiso   1.00
C73    C     0.47508   0.02391   0.22132   0.00000  Uiso   1.00
C74    C     0.52492   0.30942   0.27868   0.00000  Uiso   1.00
C75    C     0.50008   0.16658   0.16326   0.00000  Uiso   1.00
C76    C     0.49992   0.16675   0.33674   0.00000  Uiso   1.00
C77    C     0.49322   0.12637   0.40735   0.00000  Uiso   1.00
C78    C     0.50678   0.20697   0.09265   0.00000  Uiso   1.00
C79    C     0.49931   0.16699   0.38466   0.00000  Uiso   1.00
C80    C     0.50069   0.16634   0.11534   0.00000  Uiso   1.00
C81    C     0.50487   0.20786   0.40760   0.00000  Uiso   1.00
C82    C     0.49513   0.12547   0.09240   0.00000  Uiso   1.00
C83    C     0.50382   0.20880   0.45390   0.00000  Uiso   1.00
C84    C     0.49618   0.12453   0.04610   0.00000  Uiso   1.00
C85    C     0.49934   0.16707   0.47682   0.00000  Uiso   1.00
C86    C     0.50066   0.16627   0.02318   0.00000  Uiso   1.00
C87    C     0.49366   0.12601   0.45332   0.00000  Uiso   1.00
C88    C     0.50634   0.20732   0.04668   0.00000  Uiso   1.00
C89    C     0.50848   0.24991   0.47805   0.00000  Uiso   1.00
C90    C     0.49152   0.08342   0.02195   0.00000  Uiso   1.00
H91    H     0.48872   0.09481   0.38927   0.00000  Uiso   1.00
H92    H     0.51128   0.23852   0.11073   0.00000  Uiso   1.00
H93    H     0.51097   0.23846   0.38895   0.00000  Uiso   1.00
H94    H     0.48903   0.09488   0.11105   0.00000  Uiso   1.00
H95    H     0.51480   0.27984   0.04255   0.00000  Uiso   1.00
H96    H     0.48520   0.05349   0.45745   0.00000  Uiso   1.00
H97    H     0.37087   0.09467   0.26489   0.00000  Uiso   1.00
H98    H     0.62913   0.23867   0.23511   0.00000  Uiso   1.00
H99    H     0.62917   0.09468   0.26498   0.00000  Uiso   1.00
H100   H     0.37083   0.23865   0.23502   0.00000  Uiso   1.00
H101   H     0.54484   0.04241   0.30157   0.00000  Uiso   1.00
H102   H     0.45515   0.29092   0.19843   0.00000  Uiso   1.00
H103   H     0.45517   0.04207   0.19841   0.00000  Uiso   1.00
H104   H     0.54483   0.29126   0.30159   0.00000  Uiso   1.00
N105   N     0.50000   0.28573   0.25000   0.00000  Uiso   1.00
N106   N     0.50000   0.04760   0.25000   0.00000  Uiso   1.00
O107   O     0.43892   0.20487   0.25000   0.00000  Uiso   1.00
O108   O     0.56108   0.12846   0.25001   0.00000  Uiso   1.00
O109   O     0.56108   0.20487   0.25001   0.00000  Uiso   1.00
O110   O     0.43892   0.12846   0.25000   0.00000  Uiso   1.00
O111   O     0.49999   0.20489   0.18393   0.00000  Uiso   1.00
O112   O     0.50001   0.12844   0.31608   0.00000  Uiso   1.00
O113   O     0.50001   0.20489   0.31608   0.00000  Uiso   1.00
O114   O     0.49999   0.12844   0.18393   0.00000  Uiso   1.00
Zn115  Zn    0.50000   0.21771   0.25000   0.00000  Uiso   1.00
Zn116  Zn    0.50000   0.11563   0.25000   0.00000  Uiso   1.00
O117   O     0.51091   0.29201   0.45827   0.00000  Uiso   1.00
H118   H     0.49224   0.29229   0.43207   0.00000  Uiso   1.00
O119   O     0.48908   0.04133   0.04173   0.00000  Uiso   1.00
H120   H     0.50776   0.04104   0.06793   0.00000  Uiso   1.00
C121   C     0.75327   0.16666   0.24997   0.00000  Uiso   1.00
C122   C     0.91339   0.16667   0.25003   0.00000  Uiso   1.00
C123   C     0.84409   0.24841   0.02417   0.00000  Uiso   1.00
C124   C     0.82258   0.08492   0.47583   0.00000  Uiso   1.00
C125   C     0.68798   0.12615   0.25822   0.00000  Uiso   1.00
C126   C     0.97869   0.20718   0.24178   0.00000  Uiso   1.00
C127   C     0.97871   0.12616   0.25827   0.00000  Uiso   1.00
C128   C     0.68795   0.20717   0.24173   0.00000  Uiso   1.00
C129   C     0.95753   0.16667   0.25004   0.00000  Uiso   1.00
C130   C     0.70913   0.16666   0.24996   0.00000  Uiso   1.00
C131   C     0.85826   0.02410   0.27868   0.00000  Uiso   1.00
C132   C     0.80841   0.30923   0.22132   0.00000  Uiso   1.00
C133   C     0.80841   0.02391   0.22132   0.00000  Uiso   1.00
C134   C     0.85826   0.30942   0.27868   0.00000  Uiso   1.00
C135   C     0.83341   0.16658   0.16326   0.00000  Uiso   1.00
C136   C     0.83325   0.16675   0.33674   0.00000  Uiso   1.00
C137   C     0.82655   0.12637   0.40735   0.00000  Uiso   1.00
C138   C     0.84011   0.20697   0.09265   0.00000  Uiso   1.00
C139   C     0.83264   0.16699   0.38466   0.00000  Uiso   1.00
C140   C     0.83402   0.16634   0.11534   0.00000  Uiso   1.00
C141   C     0.83820   0.20786   0.40760   0.00000  Uiso   1.00
C142   C     0.82847   0.12547   0.09240   0.00000  Uiso   1.00
C143   C     0.83715   0.20880   0.45390   0.00000  Uiso   1.00
C144   C     0.82951   0.12453   0.04610   0.00000  Uiso   1.00
C145   C     0.83268   0.16707   0.47682   0.00000  Uiso   1.00
C146   C     0.83399   0.16627   0.02318   0.00000  Uiso   1.00
C147   C     0.82699   0.12601   0.45332   0.00000  Uiso   1.00
C148   C     0.83967   0.20732   0.04668   0.00000  Uiso   1.00
C149   C     0.84181   0.24991   0.47805   0.00000  Uiso   1.00
C150   C     0.82485   0.08342   0.02195   0.00000  Uiso   1.00
H151   H     0.82206   0.09481   0.38927   0.00000  Uiso   1.00
H152   H     0.84461   0.23852   0.11073   0.00000  Uiso   1.00
H153   H     0.84430   0.23846   0.38895   0.00000  Uiso   1.00
H154   H     0.82237   0.09488   0.11105   0.00000  Uiso   1.00
H155   H     0.84813   0.27984   0.04255   0.00000  Uiso   1.00
H156   H     0.81854   0.05349   0.45745   0.00000  Uiso   1.00
H157   H     0.70421   0.09467   0.26489   0.00000  Uiso   1.00
H158   H     0.96246   0.23867   0.23511   0.00000  Uiso   1.00
H159   H     0.96250   0.09468   0.26498   0.00000  Uiso   1.00
H160   H     0.70417   0.23865   0.23502   0.00000  Uiso   1.00
H161   H     0.87818   0.04241   0.30157   0.00000  Uiso   1.00
H162   H     0.78849   0.29092   0.19843   0.00000  Uiso   1.00
H163   H     0.78850   0.04207   0.19841   0.00000  Uiso   1.00
H164   H     0.87816   0.29126   0.30159   0.00000  Uiso   1.00
N165   N     0.83333   0.28573   0.25000   0.00000  Uiso   1.00
N166   N     0.83333   0.04760   0.25000   0.00000  Uiso   1.00
O167   O     0.77226   0.20487   0.25000   0.00000  Uiso   1.00
O168   O     0.89441   0.12846   0.25001   0.00000  Uiso   1.00
O169   O     0.89441   0.20487   0.25001   0.00000  Uiso   1.00
O170   O     0.77226   0.12846   0.25000   0.00000  Uiso   1.00
O171   O     0.83333   0.20489   0.18393   0.00000  Uiso   1.00
O172   O     0.83334   0.12844   0.31608   0.00000  Uiso   1.00
O173   O     0.83334   0.20489   0.31608   0.00000  Uiso   1.00
O174   O     0.83333   0.12844   0.18393   0.00000  Uiso   1.00
Zn175  Zn    0.83333   0.21771   0.25000   0.00000  Uiso   1.00
Zn176  Zn    0.83333   0.11563   0.25000   0.00000  Uiso   1.00
O177   O     0.84425   0.29201   0.45827   0.00000  Uiso   1.00
H178   H     0.82557   0.29229   0.43207   0.00000  Uiso   1.00
O179   O     0.82242   0.04133   0.04173   0.00000  Uiso   1.00
H180   H     0.84110   0.04104   0.06793   0.00000  Uiso   1.00
C181   C     0.08661   0.50000   0.24997   0.00000  Uiso   1.00
C182   C     0.24673   0.50000   0.25003   0.00000  Uiso   1.00
C183   C     0.17742   0.58175   0.02417   0.00000  Uiso   1.00
C184   C     0.15591   0.41825   0.47583   0.00000  Uiso   1.00
C185   C     0.02131   0.45948   0.25822   0.00000  Uiso   1.00
C186   C     0.31202   0.54051   0.24178   0.00000  Uiso   1.00
C187   C     0.31205   0.45949   0.25827   0.00000  Uiso   1.00
C188   C     0.02129   0.54051   0.24173   0.00000  Uiso   1.00
C189   C     0.29087   0.50001   0.25004   0.00000  Uiso   1.00
C190   C     0.04247   0.49999   0.24996   0.00000  Uiso   1.00
C191   C     0.19159   0.35743   0.27868   0.00000  Uiso   1.00
C192   C     0.14174   0.64257   0.22132   0.00000  Uiso   1.00
C193   C     0.14174   0.35724   0.22132   0.00000  Uiso   1.00
C194   C     0.19159   0.64276   0.27868   0.00000  Uiso   1.00
C195   C     0.16675   0.49992   0.16326   0.00000  Uiso   1.00
C196   C     0.16659   0.50008   0.33674   0.00000  Uiso   1.00
C197   C     0.15989   0.45970   0.40735   0.00000  Uiso   1.00
C198   C     0.17345   0.54030   0.09265   0.00000  Uiso   1.00
C199   C     0.16598   0.50033   0.38466   0.00000  Uiso   1.00
C200   C     0.16736   0.49967   0.11534   0.00000  Uiso   1.00
C201   C     0.17153   0.54120   0.40760   0.00000  Uiso   1.00
C202   C     0.16180   0.45880   0.09240   0.00000  Uiso   1.00
C203   C     0.17048   0.54214   0.45390   0.00000  Uiso   1.00
C204   C     0.16285   0.45786   0.04610   0.00000  Uiso   1.00
C205   C     0.16601   0.50040   0.47682   0.00000  Uiso   1.00
C206   C     0.16732   0.49960   0.02318   0.00000  Uiso   1.00
C207   C     0.16033   0.45934   0.45332   0.00000  Uiso   1.00
C208   C     0.17301   0.54066   0.04668   0.00000  Uiso   1.00
C209   C     0.17515   0.58324   0.47805   0.00000  Uiso   1.00
C210   C     0.15819   0.41676   0.02195   0.00000  Uiso   1.00
H211   H     0.15539   0.42815   0.38927   0.00000  Uiso   1.00
H212   H     0.17794   0.57185   0.11073   0.00000  Uiso   1.00
H213   H     0.17763   0.57179   0.38895   0.00000  Uiso   1.00
H214   H     0.15570   0.42821   0.11105   0.00000  Uiso   1.00
H215   H     0.18146   0.61318   0.04255   0.00000  Uiso   1.00
H216   H     0.15187   0.38682   0.45745   0.00000  Uiso   1.00
H217   H     0.03754   0.42800   0.26489   0.00000  Uiso   1.00
H218   H     0.29579   0.57200   0.23511   0.00000  Uiso   1.00
H219   H     0.29583   0.42802   0.26498   0.00000  Uiso   1.00
H220   H     0.03750   0.57198   0.23502   0.00000  Uiso   1.00
H221   H     0.21151   0.37575   0.30157   0.00000  Uiso   1.00
H222   H     0.12182   0.62425   0.19843   0.00000  Uiso   1.00
H223   H     0.12184   0.37540   0.19841   0.00000  Uiso   1.00
H224   H     0.21150   0.62460   0.30159   0.00000  Uiso   1.00
N225   N     0.16667   0.61907   0.25000   0.00000  Uiso   1.00
N226   N     0.16667   0.38093   0.25000   0.00000  Uiso   1.00
O227   O     0.10559   0.53821   0.25000   0.00000  Uiso   1.00
O228   O     0.22774   0.46179   0.25001   0.00000  Uiso   1.00
O229   O     0.22774   0.53821   0.25001   0.00000  Uiso   1.00
O230   O     0.10559   0.46179   0.25000   0.00000  Uiso   1.00
O231   O     0.16666   0.53823   0.18393   0.00000  Uiso   1.00
O232   O     0.16667   0.46177   0.31608   0.00000  Uiso   1.00
O233   O     0.16667   0.53823   0.31608   0.00000  Uiso   1.00
O234   O     0.16666   0.46177   0.18393   0.00000  Uiso   1.00
Zn235  Zn    0.16667   0.55104   0.25000   0.00000  Uiso   1.00
Zn236  Zn    0.16667   0.44896   0.25000   0.00000  Uiso   1.00
O237   O     0.17758   0.62534   0.45827   0.00000  Uiso   1.00
H238   H     0.15890   0.62562   0.43207   0.00000  Uiso   1.00
O239   O     0.15575   0.37466   0.04173   0.00000  Uiso   1.00
H240   H     0.17443   0.37438   0.06793   0.00000  Uiso   1.00
C241   C     0.41994   0.50000   0.24997   0.00000  Uiso   1.00
C242   C     0.58006   0.50000   0.25003   0.00000  Uiso   1.00
C243   C     0.51075   0.58175   0.02417   0.00000  Uiso   1.00
C244   C     0.48924   0.41825   0.47583   0.00000  Uiso   1.00
C245   C     0.35464   0.45948   0.25822   0.00000  Uiso   1.00
C246   C     0.64536   0.54051   0.24178   0.00000  Uiso   1.00
C247   C     0.64538   0.45949   0.25827   0.00000  Uiso   1.00
C248   C     0.35462   0.54051   0.24173   0.00000  Uiso   1.00
C249   C     0.62420   0.50001   0.25004   0.00000  Uiso   1.00
C250   C     0.37580   0.49999   0.24996   0.00000  Uiso   1.00
C251   C     0.52493   0.35743   0.27868   0.00000  Uiso   1.00
C252   C     0.47507   0.64257   0.22132   0.00000  Uiso   1.00
C253   C     0.47508   0.35724   0.22132   0.00000  Uiso   1.00
C254   C     0.52492   0.64276   0.27868   0.00000  Uiso   1.00
C255   C     0.50008   0.49992   0.16326   0.00000  Uiso   1.00
C256   C     0.49992   0.50008   0.33674   0.00000  Uiso   1.00
C257   C     0.49322   0.45970   0.40735   0.00000  Uiso   1.00
C258   C     0.50678   0.54030   0.09265   0.00000  Uiso   1.00
C259   C     0.49931   0.50033   0.38466   0.00000  Uiso   1.00
C260   C     0.50069   0.49967   0.11534   0.00000  Uiso   1.00
C261   C     0.50487   0.54120   0.40760   0.00000  Uiso   1.00
C262   C     0.49513   0.45880   0.09240   0.00000  Uiso   1.00
C263   C     0.50382   0.54214   0.45390   0.00000  Uiso   1.00
C264   C     0.49618   0.45786   0.04610   0.00000  Uiso   1.00
C265   C     0.49934   0.50040   0.47682   0.00000  Uiso   1.00
C266   C     0.50066   0.49960   0.02318   0.00000  Uiso   1.00
C267   C     0.49366   0.45934   0.45332   0.00000  Uiso   1.00
C268   C     0.50634   0.54066   0.04668   0.00000  Uiso   1.00
C269   C     0.50848   0.58324   0.47805   0.00000  Uiso   1.00
C270   C     0.49152   0.41676   0.02195   0.00000  Uiso   1.00
H271   H     0.48872   0.42815   0.38927   0.00000  Uiso   1.00
H272   H     0.51128   0.57185   0.11073   0.00000  Uiso   1.00
H273   H     0.51097   0.57179   0.38895   0.00000  Uiso   1.00
H274   H     0.48903   0.42821   0.11105   0.00000  Uiso   1.00
H275   H     0.51480   0.61318   0.04255   0.00000  Uiso   1.00
H276   H     0.48520   0.38682   0.45745   0.00000  Uiso   1.00
H277   H     0.37087   0.42800   0.26489   0.00000  Uiso   1.00
H278   H     0.62913   0.57200   0.23511   0.00000  Uiso   1.00
H279   H     0.62917   0.42802   0.26498   0.00000  Uiso   1.00
H280   H     0.37083   0.57198   0.23502   0.00000  Uiso   1.00
H281   H     0.54484   0.37575   0.30157   0.00000  Uiso   1.00
H282   H     0.45515   0.62425   0.19843   0.00000  Uiso   1.00
H283   H     0.45517   0.37540   0.19841   0.00000  Uiso   1.00
H284   H     0.54483   0.62460   0.30159   0.00000  Uiso   1.00
N285   N     0.50000   0.61907   0.25000   0.00000  Uiso   1.00
N286   N     0.50000   0.38093   0.25000   0.00000  Uiso   1.00
O287   O     0.43892   0.53821   0.25000   0.00000  Uiso   1.00
O288   O     0.56108   0.46179   0.25001   0.00000  Uiso   1.00
O289   O     0.56108   0.53821   0.25001   0.00000  Uiso   1.00
O290   O     0.43892   0.46179   0.25000   0.00000  Uiso   1.00
O291   O     0.49999   0.53823   0.18393   0.00000  Uiso   1.00
O292   O     0.50001   0.46177   0.31608   0.00000  Uiso   1.00
O293   O     0.50001   0.53823   0.31608   0.00000  Uiso   1.00
O294   O     0.49999   0.46177   0.18393   0.00000  Uiso   1.00
Zn295  Zn    0.50000   0.55104   0.25000   0.00000  Uiso   1.00
Zn296  Zn    0.50000   0.44896   0.25000   0.00000  Uiso   1.00
O297   O     0.51091   0.62534   0.45827   0.00000  Uiso   1.00
H298   H     0.49224   0.62562   0.43207   0.00000  Uiso   1.00
O299   O     0.48908   0.37466   0.04173   0.00000  Uiso   1.00
H300   H     0.50776   0.37438   0.06793   0.00000  Uiso   1.00
C301   C     0.75327   0.50000   0.24997   0.00000  Uiso   1.00
C302   C     0.91339   0.50000   0.25003   0.00000  Uiso   1.00
C303   C     0.84409   0.58175   0.02417   0.00000  Uiso   1.00
C304   C     0.82258   0.41825   0.47583   0.00000  Uiso   1.00
C305   C     0.68798   0.45948   0.25822   0.00000  Uiso   1.00
C306   C     0.97869   0.54051   0.24178   0.00000  Uiso   1.00
C307   C     0.97871   0.45949   0.25827   0.00000  Uiso   1.00
C308   C     0.68795   0.54051   0.24173   0.00000  Uiso   1.00
C309   C     0.95753   0.50001   0.25004   0.00000  Uiso   1.00
C310   C     0.70913   0.49999   0.24996   0.00000  Uiso   1.00
C311   C     0.85826   0.35743   0.27868   0.00000  Uiso   1.00
C312   C     0.80841   0.64257   0.22132   0.00000  Uiso   1.00
C313   C     0.80841   0.35724   0.22132   0.00000  Uiso   1.00
C314   C     0.85826   0.64276   0.27868   0.00000  Uiso   1.00
C315   C     0.83341   0.49992   0.16326   0.00000  Uiso   1.00
C316   C     0.83325   0.50008   0.33674   0.00000  Uiso   1.00
C317   C     0.82655   0.45970   0.40735   0.00000  Uiso   1.00
C318   C     0.84011   0.54030   0.09265   0.00000  Uiso   1.00
C319   C     0.83264   0.50033   0.38466   0.00000  Uiso   1.00
C320   C     0.83402   0.49967   0.11534   0.00000  Uiso   1.00
C321   C     0.83820   0.54120   0.40760   0.00000  Uiso   1.00
C322   C     0.82847   0.45880   0.09240   0.00000  Uiso   1.00
C323   C     0.83715   0.54214   0.45390   0.00000  Uiso   1.00
C324   C     0.82951   0.45786   0.04610   0.00000  Uiso   1.00
C325   C     0.83268   0.50040   0.47682   0.00000  Uiso   1.00
C326   C     0.83399   0.49960   0.02318   0.00000  Uiso   1.00
C327   C     0.82699   0.45934   0.45332   0.00000  Uiso   1.00
C328   C     0.83967   0.54066   0.04668   0.00000  Uiso   1.00
C329   C     0.84181   0.58324   0.47805   0.00000  Uiso   1.00
C330   C     0.82485   0.41676   0.02195   0.00000  Uiso   1.00
H331   H     0.82206   0.42815   0.38927   0.00000  Uiso   1.00
H332   H     0.84461   0.57185   0.11073   0.00000  Uiso   1.00
H333   H     0.84430   0.57179   0.38895   0.00000  Uiso   1.00
H334   H     0.82237   0.42821   0.11105   0.00000  Uiso   1.00
H335   H     0.84813   0.61318   0.04255   0.00000  Uiso   1.00
H336   H     0.81854   0.38682   0.45745   0.00000  Uiso   1.00
H337   H     0.70421   0.42800   0.26489   0.00000  Uiso   1.00
H338   H     0.96246   0.57200   0.23511   0.00000  Uiso   1.00
H339   H     0.96250   0.42802   0.26498   0.00000  Uiso   1.00
H340   H     0.70417   0.57198   0.23502   0.00000  Uiso   1.00
H341   H     0.87818   0.37575   0.30157   0.00000  Uiso   1.00
H342   H     0.78849   0.62425   0.19843   0.00000  Uiso   1.00
H343   H     0.78850   0.37540   0.19841   0.00000  Uiso   1.00
H344   H     0.87816   0.62460   0.30159   0.00000  Uiso   1.00
N345   N     0.83333   0.61907   0.25000   0.00000  Uiso   1.00
N346   N     0.83333   0.38093   0.25000   0.00000  Uiso   1.00
O347   O     0.77226   0.53821   0.25000   0.00000  Uiso   1.00
O348   O     0.89441   0.46179   0.25001   0.00000  Uiso   1.00
O349   O     0.89441   0.53821   0.25001   0.00000  Uiso   1.00
O350   O     0.77226   0.46179   0.25000   0.00000  Uiso   1.00
O351   O     0.83333   0.53823   0.18393   0.00000  Uiso   1.00
O352   O     0.83334   0.46177   0.31608   0.00000  Uiso   1.00
O353   O     0.83334   0.53823   0.31608   0.00000  Uiso   1.00
O354   O     0.83333   0.46177   0.18393   0.00000  Uiso   1.00
Zn355  Zn    0.83333   0.55104   0.25000   0.00000  Uiso   1.00
Zn356  Zn    0.83333   0.44896   0.25000   0.00000  Uiso   1.00
O357   O     0.84425   0.62534   0.45827   0.00000  Uiso   1.00
H358   H     0.82557   0.62562   0.43207   0.00000  Uiso   1.00
O359   O     0.82242   0.37466   0.04173   0.00000  Uiso   1.00
H360   H     0.84110   0.37438   0.06793   0.00000  Uiso   1.00
C361   C     0.08661   0.83333   0.24997   0.00000  Uiso   1.00
C362   C     0.24673   0.83334   0.25003   0.00000  Uiso   1.00
C363   C     0.17742   0.91508   0.02417   0.00000  Uiso   1.00
C364   C     0.15591   0.75159   0.47583   0.00000  Uiso   1.00
C365   C     0.02131   0.79282   0.25822   0.00000  Uiso   1.00
C366   C     0.31202   0.87385   0.24178   0.00000  Uiso   1.00
C367   C     0.31205   0.79283   0.25827   0.00000  Uiso   1.00
C368   C     0.02129   0.87384   0.24173   0.00000  Uiso   1.00
C369   C     0.29087   0.83334   0.25004   0.00000  Uiso   1.00
C370   C     0.04247   0.83333   0.24996   0.00000  Uiso   1.00
C371   C     0.19159   0.69077   0.27868   0.00000  Uiso   1.00
C372   C     0.14174   0.97590   0.22132   0.00000  Uiso   1.00
C373   C     0.14174   0.69058   0.22132   0.00000  Uiso   1.00
C374   C     0.19159   0.97609   0.27868   0.00000  Uiso   1.00
C375   C     0.16675   0.83325   0.16326   0.00000  Uiso   1.00
C376   C     0.16659   0.83342   0.33674   0.00000  Uiso   1.00
C377   C     0.15989   0.79303   0.40735   0.00000  Uiso   1.00
C378   C     0.17345   0.87363   0.09265   0.00000  Uiso   1.00
C379   C     0.16598   0.83366   0.38466   0.00000  Uiso   1.00
C380   C     0.16736   0.83301   0.11534   0.00000  Uiso   1.00
C381   C     0.17153   0.87453   0.40760   0.00000  Uiso   1.00
C382   C     0.16180   0.79214   0.09240   0.00000  Uiso   1.00
C383   C     0.17048   0.87547   0.45390   0.00000  Uiso   1.00
C384   C     0.16285   0.79120   0.04610   0.00000  Uiso   1.00
C385   C     0.16601   0.83373   0.47682   0.00000  Uiso   1.00
C386   C     0.16732   0.83293   0.02318   0.00000  Uiso   1.00
C387   C     0.16033   0.79268   0.45332   0.00000  Uiso   1.00
C388   C     0.17301   0.87399   0.04668   0.00000  Uiso   1.00
C389   C     0.17515   0.91658   0.47805   0.00000  Uiso   1.00
C390   C     0.15819   0.75009   0.02195   0.00000  Uiso   1.00
H391   H     0.15539   0.76148   0.38927   0.00000  Uiso   1.00
H392   H     0.17794   0.90519   0.11073   0.00000  Uiso   1.00
H393   H     0.17763   0.90512   0.38895   0.00000  Uiso   1.00
H394   H     0.15570   0.76154   0.11105   0.00000  Uiso   1.00
H395   H     0.18146   0.94651   0.04255   0.00000  Uiso   1.00
H396   H     0.15187   0.72016   0.45745   0.00000  Uiso   1.00
H397   H     0.03754   0.76133   0.26489   0.00000  Uiso   1.00
H398   H     0.29579   0.90533   0.23511   0.00000  Uiso   1.00
H399   H     0.29583   0.76135   0.26498   0.00000  Uiso   1.00
H400   H     0.03750   0.90532   0.23502   0.00000  Uiso   1.00
H401   H     0.21151   0.70908   0.30157   0.00000  Uiso   1.00
H402   H     0.12182   0.95759   0.19843   0.00000  Uiso   1.00
H403   H     0.12184   0.70874   0.19841   0.00000  Uiso   1.00
H404   H     0.21150   0.95793   0.30159   0.00000  Uiso   1.00
N405   N     0.16667   0.95240   0.25000   0.00000  Uiso   1.00
N406   N     0.16667   0.71427   0.25000   0.00000  Uiso   1.00
O407   O     0.10559   0.87154   0.25000   0.00000  Uiso   1.00
O408   O     0.22774   0.79513   0.25001   0.00000  Uiso   1.00
O409   O     0.22774   0.87154   0.25001   0.00000  Uiso   1.00
O410   O     0.10559   0.79513   0.25000   0.00000  Uiso   1.00
O411   O     0.16666   0.87156   0.18393   0.00000  Uiso   1.00
O412   O     0.16667   0.79511   0.31608   0.00000  Uiso   1.00
O413   O     0.16667   0.87156   0.31608   0.00000  Uiso   1.00
O414   O     0.16666   0.79511   0.18393   0.00000  Uiso   1.00
Zn415  Zn    0.16667   0.88437   0.25000   0.00000  Uiso   1.00
Zn416  Zn    0.16667   0.78229   0.25000   0.00000  Uiso   1.00
O417   O     0.17758   0.95867   0.45827   0.00000  Uiso   1.00
H418   H     0.15890   0.95896   0.43207   0.00000  Uiso   1.00
O419   O     0.15575   0.70799   0.04173   0.00000  Uiso   1.00
H420   H     0.17443   0.70771   0.06793   0.00000  Uiso   1.00
C421   C     0.41994   0.83333   0.24997   0.00000  Uiso   1.00
C422   C     0.58006   0.83334   0.25003   0.00000  Uiso   1.00
C423   C     0.51075   0.91508   0.02417   0.00000  Uiso   1.00
C424   C     0.48924   0.75159   0.47583   0.00000  Uiso   1.00
C425   C     0.35464   0.79282   0.25822   0.00000  Uiso   1.00
C426   C     0.64536   0.87385   0.24178   0.00000  Uiso   1.00
C427   C     0.64538   0.79283   0.25827   0.00000  Uiso   1.00
C428   C     0.35462   0.87384   0.24173   0.00000  Uiso   1.00
C429   C     0.62420   0.83334   0.25004   0.00000  Uiso   1.00
C430   C     0.37580   0.83333   0.24996   0.00000  Uiso   1.00
C431   C     0.52493   0.69077   0.27868   0.00000  Uiso   1.00
C432   C     0.47507   0.97590   0.22132   0.00000  Uiso   1.00
C433   C     0.47508   0.69058   0.22132   0.00000  Uiso   1.00
C434   C     0.52492   0.97609   0.27868   0.00000  Uiso   1.00
C435   C     0.50008   0.83325   0.16326   0.00000  Uiso   1.00
C436   C     0.49992   0.83342   0.33674   0.00000  Uiso   1.00
C437   C     0.49322   0.79303   0.40735   0.00000  Uiso   1.00
C438   C     0.50678   0.87363   0.09265   0.00000  Uiso   1.00
C439   C     0.49931   0.83366   0.38466   0.00000  Uiso   1.00
C440   C     0.50069   0.83301   0.11534   0.00000  Uiso   1.00
C441   C     0.50487   0.87453   0.40760   0.00000  Uiso   1.00
C442   C     0.49513   0.79214   0.09240   0.00000  Uiso   1.00
C443   C     0.50382   0.87547   0.45390   0.00000  Uiso   1.00
C444   C     0.49618   0.79120   0.04610   0.00000  Uiso   1.00
C445   C     0.49934   0.83373   0.47682   0.00000  Uiso   1.00
C446   C     0.50066   0.83293   0.02318   0.00000  Uiso   1.00
C447   C     0.49366   0.79268   0.45332   0.00000  Uiso   1.00
C448   C     0.50634   0.87399   0.04668   0.00000  Uiso   1.00
C449   C     0.50848   0.91658   0.47805   0.00000  Uiso   1.00
C450   C     0.49152   0.75009   0.02195   0.00000  Uiso   1.00
H451   H     0.48872   0.76148   0.38927   0.00000  Uiso   1.00
H452   H     0.51128   0.90519   0.11073   0.00000  Uiso   1.00
H453   H     0.51097   0.90512   0.38895   0.00000  Uiso   1.00
H454   H     0.48903   0.76154   0.11105   0.00000  Uiso   1.00
H455   H     0.51480   0.94651   0.04255   0.00000  Uiso   1.00
H456   H     0.48520   0.72016   0.45745   0.00000  Uiso   1.00
H457   H     0.37087   0.76133   0.26489   0.00000  Uiso   1.00
H458   H     0.62913   0.90533   0.23511   0.00000  Uiso   1.00
H459   H     0.62917   0.76135   0.26498   0.00000  Uiso   1.00
H460   H     0.37083   0.90532   0.23502   0.00000  Uiso   1.00
H461   H     0.54484   0.70908   0.30157   0.00000  Uiso   1.00
H462   H     0.45515   0.95759   0.19843   0.00000  Uiso   1.00
H463   H     0.45517   0.70874   0.19841   0.00000  Uiso   1.00
H464   H     0.54483   0.95793   0.30159   0.00000  Uiso   1.00
N465   N     0.50000   0.95240   0.25000   0.00000  Uiso   1.00
N466   N     0.50000   0.71427   0.25000   0.00000  Uiso   1.00
O467   O     0.43892   0.87154   0.25000   0.00000  Uiso   1.00
O468   O     0.56108   0.79513   0.25001   0.00000  Uiso   1.00
O469   O     0.56108   0.87154   0.25001   0.00000  Uiso   1.00
O470   O     0.43892   0.79513   0.25000   0.00000  Uiso   1.00
O471   O     0.49999   0.87156   0.18393   0.00000  Uiso   1.00
O472   O     0.50001   0.79511   0.31608   0.00000  Uiso   1.00
O473   O     0.50001   0.87156   0.31608   0.00000  Uiso   1.00
O474   O     0.49999   0.79511   0.18393   0.00000  Uiso   1.00
Zn475  Zn    0.50000   0.88437   0.25000   0.00000  Uiso   1.00
Zn476  Zn    0.50000   0.78229   0.25000   0.00000  Uiso   1.00
O477   O     0.51091   0.95867   0.45827   0.00000  Uiso   1.00
H478   H     0.49224   0.95896   0.43207   0.00000  Uiso   1.00
O479   O     0.48908   0.70799   0.04173   0.00000  Uiso   1.00
H480   H     0.50776   0.70771   0.06793   0.00000  Uiso   1.00
C481   C     0.75327   0.83333   0.24997   0.00000  Uiso   1.00
C482   C     0.91339   0.83334   0.25003   0.00000  Uiso   1.00
C483   C     0.84409   0.91508   0.02417   0.00000  Uiso   1.00
C484   C     0.82258   0.75159   0.47583   0.00000  Uiso   1.00
C485   C     0.68798   0.79282   0.25822   0.00000  Uiso   1.00
C486   C     0.97869   0.87385   0.24178   0.00000  Uiso   1.00
C487   C     0.97871   0.79283   0.25827   0.00000  Uiso   1.00
C488   C     0.68795   0.87384   0.24173   0.00000  Uiso   1.00
C489   C     0.95753   0.83334   0.25004   0.00000  Uiso   1.00
C490   C     0.70913   0.83333   0.24996   0.00000  Uiso   1.00
C491   C     0.85826   0.69077   0.27868   0.00000  Uiso   1.00
C492   C     0.80841   0.97590   0.22132   0.00000  Uiso   1.00
C493   C     0.80841   0.69058   0.22132   0.00000  Uiso   1.00
C494   C     0.85826   0.97609   0.27868   0.00000  Uiso   1.00
C495   C     0.83341   0.83325   0.16326   0.00000  Uiso   1.00
C496   C     0.83325   0.83342   0.33674   0.00000  Uiso   1.00
C497   C     0.82655   0.79303   0.40735   0.00000  Uiso   1.00
C498   C     0.84011   0.87363   0.09265   0.00000  Uiso   1.00
C499   C     0.83264   0.83366   0.38466   0.00000  Uiso   1.00
C500   C     0.83402   0.83301   0.11534   0.00000  Uiso   1.00
C501   C     0.83820   0.87453   0.40760   0.00000  Uiso   1.00
C502   C     0.82847   0.79214   0.09240   0.00000  Uiso   1.00
C503   C     0.83715   0.87547   0.45390   0.00000  Uiso   1.00
C504   C     0.82951   0.79120   0.04610   0.00000  Uiso   1.00
C505   C     0.83268   0.83373   0.47682   0.00000  Uiso   1.00
C506   C     0.83399   0.83293   0.02318   0.00000  Uiso   1.00
C507   C     0.82699   0.79268   0.45332   0.00000  Uiso   1.00
C508   C     0.83967   0.87399   0.04668   0.00000  Uiso   1.00
C509   C     0.84181   0.91658   0.47805   0.00000  Uiso   1.00
C510   C     0.82485   0.75009   0.02195   0.00000  Uiso   1.00
H511   H     0.82206   0.76148   0.38927   0.00000  Uiso   1.00
H512   H     0.84461   0.90519   0.11073   0.00000  Uiso   1.00
H513   H     0.84430   0.90512   0.38895   0.00000  Uiso   1.00
H514   H     0.82237   0.76154   0.11105   0.00000  Uiso   1.00
H515   H     0.84813   0.94651   0.04255   0.00000  Uiso   1.00
H516   H     0.81854   0.72016   0.45745   0.00000  Uiso   1.00
H517   H     0.70421   0.76133   0.26489   0.00000  Uiso   1.00
H518   H     0.96246   0.90533   0.23511   0.00000  Uiso   1.00
H519   H     0.96250   0.76135   0.26498   0.00000  Uiso   1.00
H520   H     0.70417   0.90532   0.23502   0.00000  Uiso   1.00
H521   H     0.87818   0.70908   0.30157   0.00000  Uiso   1.00
H522   H     0.78849   0.95759   0.19843   0.00000  Uiso   1.00
H523   H     0.78850   0.70874   0.19841   0.00000  Uiso   1.00
H524   H     0.87816   0.95793   0.30159   0.00000  Uiso   1.00
N525   N     0.83333   0.95240   0.25000   0.00000  Uiso   1.00
N526   N     0.83333   0.71427   0.25000   0.00000  Uiso   1.00
O527   O     0.77226   0.87154   0.25000   0.00000  Uiso   1.00
O528   O     0.89441   0.79513   0.25001   0.00000  Uiso   1.00
O529   O     0.89441   0.87154   0.25001   0.00000  Uiso   1.00
O530   O     0.77226   0.79513   0.25000   0.00000  Uiso   1.00
O531   O     0.83333   0.87156   0.18393   0.00000  Uiso   1.00
O532   O     0.83334   0.79511   0.31608   0.00000  Uiso   1.00
O533   O     0.83334   0.87156   0.31608   0.00000  Uiso   1.00
O534   O     0.83333   0.79511   0.18393   0.00000  Uiso   1.00
Zn535  Zn    0.83333   0.88437   0.25000   0.00000  Uiso   1.00
Zn536  Zn    0.83333   0.78229   0.25000   0.00000  Uiso   1.00
O537   O     0.84425   0.95867   0.45827   0.00000  Uiso   1.00
H538   H     0.82557   0.95896   0.43207   0.00000  Uiso   1.00
O539   O     0.82242   0.70799   0.04173   0.00000  Uiso   1.00
H540   H     0.84110   0.70771   0.06793   0.00000  Uiso   1.00
C541   C     0.08661   0.16666   0.74997   0.00000  Uiso   1.00
C542   C     0.24673   0.16667   0.75003   0.00000  Uiso   1.00
C543   C     0.17742   0.24841   0.52417   0.00000  Uiso   1.00
C544   C     0.15591   0.08492   0.97583   0.00000  Uiso   1.00
C545   C     0.02131   0.12615   0.75822   0.00000  Uiso   1.00
C546   C     0.31202   0.20718   0.74178   0.00000  Uiso   1.00
C547   C     0.31205   0.12616   0.75827   0.00000  Uiso   1.00
C548   C     0.02129   0.20717   0.74173   0.00000  Uiso   1.00
C549   C     0.29087   0.16667   0.75004   0.00000  Uiso   1.00
C550   C     0.04247   0.16666   0.74996   0.00000  Uiso   1.00
C551   C     0.19159   0.02410   0.77868   0.00000  Uiso   1.00
C552   C     0.14174   0.30923   0.72132   0.00000  Uiso   1.00
C553   C     0.14174   0.02391   0.72132   0.00000  Uiso   1.00
C554   C     0.19159   0.30942   0.77868   0.00000  Uiso   1.00
C555   C     0.16675   0.16658   0.66326   0.00000  Uiso   1.00
C556   C     0.16659   0.16675   0.83674   0.00000  Uiso   1.00
C557   C     0.15989   0.12637   0.90735   0.00000  Uiso   1.00
C558   C     0.17345   0.20697   0.59265   0.00000  Uiso   1.00
C559   C     0.16598   0.16699   0.88466   0.00000  Uiso   1.00
C560   C     0.16736   0.16634   0.61534   0.00000  Uiso   1.00
C561   C     0.17153   0.20786   0.90760   0.00000  Uiso   1.00
C562   C     0.16180   0.12547   0.59240   0.00000  Uiso   1.00
C563   C     0.17048   0.20880   0.95390   0.00000  Uiso   1.00
C564   C     0.16285   0.12453   0.54610   0.00000  Uiso   1.00
C565   C     0.16601   0.16707   0.97682   0.00000  Uiso   1.00
C566   C     0.16732   0.16627   0.52318   0.00000  Uiso   1.00
C567   C     0.16033   0.12601   0.95332   0.00000  Uiso   1.00
C568   C     0.17301   0.20732   0.54668   0.00000  Uiso   1.00
C569   C     0.17515   0.24991   0.97805   0.00000  Uiso   1.00
C570   C     0.15819   0.08342   0.52195   0.00000  Uiso   1.00
H571   H     0.15539   0.09481   0.88927   0.00000  Uiso   1.00
H572   H     0.17794   0.23852   0.61073   0.00000  Uiso   1.00
H573   H     0.17763   0.23846   0.88895   0.00000  Uiso   1.00
H574   H     0.15570   0.09488   0.61105   0.00000  Uiso   1.00
H575   H     0.18146   0.27984   0.54255   0.00000  Uiso   1.00
H576   H     0.15187   0.05349   0.95745   0.00000  Uiso   1.00
H577   H     0.03754   0.09467   0.76489   0.00000  Uiso   1.00
H578   H     0.29579   0.23867   0.73511   0.00000  Uiso   1.00
H579   H     0.29583   0.09468   0.76498   0.00000  Uiso   1.00
H580   H     0.03750   0.23865   0.73502   0.00000  Uiso   1.00
H581   H     0.21151   0.04241   0.80157   0.00000  Uiso   1.00
H582   H     0.12182   0.29092   0.69843   0.00000  Uiso   1.00
H583   H     0.12184   0.04207   0.69841   0.00000  Uiso   1.00
H584   H     0.21150   0.29126   0.80159   0.00000  Uiso   1.00
N585   N     0.16667   0.28573   0.75000   0.00000  Uiso   1.00
N586   N     0.16667   0.04760   0.75000   0.00000  Uiso   1.00
O587   O     0.10559   0.20487   0.75000   0.00000  Uiso   1.00
O588   O     0.22774   0.12846   0.75001   0.00000  Uiso   1.00
O589   O     0.22774   0.20487   0.75001   0.00000  Uiso   1.00
O590   O     0.10559   0.12846   0.75000   0.00000  Uiso   1.00
O591   O     0.16666   0.20489   0.68393   0.00000  Uiso   1.00
O592   O     0.16667   0.12844   0.81608   0.00000  Uiso   1.00
O593   O     0.16667   0.20489   0.81608   0.00000  Uiso   1.00
O594   O     0.16666   0.12844   0.68393   0.00000  Uiso   1.00
Zn595  Zn    0.16667   0.21771   0.75000   0.00000  Uiso   1.00
Zn596  Zn    0.16667   0.11563   0.75000   0.00000  Uiso   1.00
O597   O     0.17758   0.29201   0.95827   0.00000  Uiso   1.00
H598   H     0.15890   0.29229   0.93207   0.00000  Uiso   1.00
O599   O     0.15575   0.04133   0.54173   0.00000  Uiso   1.00
H600   H     0.17443   0.04104   0.56793   0.00000  Uiso   1.00
C601   C     0.41994   0.16666   0.74997   0.00000  Uiso   1.00
C602   C     0.58006   0.16667   0.75003   0.00000  Uiso   1.00
C603   C     0.51075   0.24841   0.52417   0.00000  Uiso   1.00
C604   C     0.48924   0.08492   0.97583   0.00000  Uiso   1.00
C605   C     0.35464   0.12615   0.75822   0.00000  Uiso   1.00
C606   C     0.64536   0.20718   0.74178   0.00000  Uiso   1.00
C607   C     0.64538   0.12616   0.75827   0.00000  Uiso   1.00
C608   C     0.35462   0.20717   0.74173   0.00000  Uiso   1.00
C609   C     0.62420   0.16667   0.75004   0.00000  Uiso   1.00
C610   C     0.37580   0.16666   0.74996   0.00000  Uiso   1.00
C611   C     0.52493   0.02410   0.77868   0.00000  Uiso   1.00
C612   C     0.47507   0.30923   0.72132   0.00000  Uiso   1.00
C613   C     0.47508   0.02391   0.72132   0.00000  Uiso   1.00
C614   C     0.52492   0.30942   0.77868   0.00000  Uiso   1.00
C615   C     0.50008   0.16658   0.66326   0.00000  Uiso   1.00
C616   C     0.49992   0.16675   0.83674   0.00000  Uiso   1.00
C617   C     0.49322   0.12637   0.90735   0.00000  Uiso   1.00
C618   C     0.50678   0.20697   0.59265   0.00000  Uiso   1.00
C619   C     0.49931   0.16699   0.88466   0.00000  Uiso   1.00
C620   C     0.50069   0.16634   0.61534   0.00000  Uiso   1.00
C621   C     0.50487   0.20786   0.90760   0.00000  Uiso   1.00
C622   C     0.49513   0.12547   0.59240   0.00000  Uiso   1.00
C623   C     0.50382   0.20880   0.95390   0.00000  Uiso   1.00
C624   C     0.49618   0.12453   0.54610   0.00000  Uiso   1.00
C625   C     0.49934   0.16707   0.97682   0.00000  Uiso   1.00
C626   C     0.50066   0.16627   0.52318   0.00000  Uiso   1.00
C627   C     0.49366   0.12601   0.95332   0.00000  Uiso   1.00
C628   C     0.50634   0.20732   0.54668   0.00000  Uiso   1.00
C629   C     0.50848   0.24991   0.97805   0.00000  Uiso   1.00
C630   C     0.49152   0.08342   0.52195   0.00000  Uiso   1.00
H631   H     0.48872   0.09481   0.88927   0.00000  Uiso   1.00
H632   H     0.51128   0.23852   0.61073   0.00000  Uiso   1.00
H633   H     0.51097   0.23846   0.88895   0.00000  Uiso   1.00
H634   H     0.48903   0.09488   0.61105   0.00000  Uiso   1.00
H635   H     0.51480   0.27984   0.54255   0.00000  Uiso   1.00
H636   H     0.48520   0.05349   0.95745   0.00000  Uiso   1.00
H637   H     0.37087   0.09467   0.76489   0.00000  Uiso   1.00
H638   H     0.62913   0.23867   0.73511   0.00000  Uiso   1.00
H639   H     0.62917   0.09468   0.76498   0.00000  Uiso   1.00
H640   H     0.37083   0.23865   0.73502   0.00000  Uiso   1.00
H641   H     0.54484   0.04241   0.80157   0.00000  Uiso   1.00
H642   H     0.45515   0.29092   0.69843   0.00000  Uiso   1.00
H643   H     0.45517   0.04207   0.69841   0.00000  Uiso   1.00
H644   H     0.54483   0.29126   0.80159   0.00000  Uiso   1.00
N645   N     0.50000   0.28573   0.75000   0.00000  Uiso   1.00
N646   N     0.50000   0.04760   0.75000   0.00000  Uiso   1.00
O647   O     0.43892   0.20487   0.75000   0.00000  Uiso   1.00
O648   O     0.56108   0.12846   0.75001   0.00000  Uiso   1.00
O649   O     0.56108   0.20487   0.75001   0.00000  Uiso   1.00
O650   O     0.43892   0.12846   0.75000   0.00000  Uiso   1.00
O651   O     0.49999   0.20489   0.68393   0.00000  Uiso   1.00
O652   O     0.50001   0.12844   0.81608   0.00000  Uiso   1.00
O653   O     0.50001   0.20489   0.81608   0.00000  Uiso   1.00
O654   O     0.49999   0.12844   0.68393   0.00000  Uiso   1.00
Zn655  Zn    0.50000   0.21771   0.75000   0.00000  Uiso   1.00
Zn656  Zn    0.50000   0.11563   0.75000   0.00000  Uiso   1.00
O657   O     0.51091   0.29201   0.95827   0.00000  Uiso   1.00
H658   H     0.49224   0.29229   0.93207   0.00000  Uiso   1.00
O659   O     0.48908   0.04133   0.54173   0.00000  Uiso   1.00
H660   H     0.50776   0.04104   0.56793   0.00000  Uiso   1.00
C661   C     0.75327   0.16666   0.74997   0.00000  Uiso   1.00
C662   C     0.91339   0.16667   0.75003   0.00000  Uiso   1.00
C663   C     0.84409   0.24841   0.52417   0.00000  Uiso   1.00
C664   C     0.82258   0.08492   0.97583   0.00000  Uiso   1.00
C665   C     0.68798   0.12615   0.75822   0.00000  Uiso   1.00
C666   C     0.97869   0.20718   0.74178   0.00000  Uiso   1.00
C667   C     0.97871   0.12616   0.75827   0.00000  Uiso   1.00
C668   C     0.68795   0.20717   0.74173   0.00000  Uiso   1.00
C669   C     0.95753   0.16667   0.75004   0.00000  Uiso   1.00
C670   C     0.70913   0.16666   0.74996   0.00000  Uiso   1.00
C671   C     0.85826   0.02410   0.77868   0.00000  Uiso   1.00
C672   C     0.80841   0.30923   0.72132   0.00000  Uiso   1.00
C673   C     0.80841   0.02391   0.72132   0.00000  Uiso   1.00
C674   C     0.85826   0.30942   0.77868   0.00000  Uiso   1.00
C675   C     0.83341   0.16658   0.66326   0.00000  Uiso   1.00
C676   C     0.83325   0.16675   0.83674   0.00000  Uiso   1.00
C677   C     0.82655   0.12637   0.90735   0.00000  Uiso   1.00
C678   C     0.84011   0.20697   0.59265   0.00000  Uiso   1.00
C679   C     0.83264   0.16699   0.88466   0.00000  Uiso   1.00
C680   C     0.83402   0.16634   0.61534   0.00000  Uiso   1.00
C681   C     0.83820   0.20786   0.90760   0.00000  Uiso   1.00
C682   C     0.82847   0.12547   0.59240   0.00000  Uiso   1.00
C683   C     0.83715   0.20880   0.95390   0.00000  Uiso   1.00
C684   C     0.82951   0.12453   0.54610   0.00000  Uiso   1.00
C685   C     0.83268   0.16707   0.97682   0.00000  Uiso   1.00
C686   C     0.83399   0.16627   0.52318   0.00000  Uiso   1.00
C687   C     0.82699   0.12601   0.95332   0.00000  Uiso   1.00
C688   C     0.83967   0.20732   0.54668   0.00000  Uiso   1.00
C689   C     0.84181   0.24991   0.97805   0.00000  Uiso   1.00
C690   C     0.82485   0.08342   0.52195   0.00000  Uiso   1.00
H691   H     0.82206   0.09481   0.88927   0.00000  Uiso   1.00
H692   H     0.84461   0.23852   0.61073   0.00000  Uiso   1.00
H693   H     0.84430   0.23846   0.88895   0.00000  Uiso   1.00
H694   H     0.82237   0.09488   0.61105   0.00000  Uiso   1.00
H695   H     0.84813   0.27984   0.54255   0.00000  Uiso   1.00
H696   H     0.81854   0.05349   0.95745   0.00000  Uiso   1.00
H697   H     0.70421   0.09467   0.76489   0.00000  Uiso   1.00
H698   H     0.96246   0.23867   0.73511   0.00000  Uiso   1.00
H699   H     0.96250   0.09468   0.76498   0.00000  Uiso   1.00
H700   H     0.70417   0.23865   0.73502   0.00000  Uiso   1.00
H701   H     0.87818   0.04241   0.80157   0.00000  Uiso   1.00
H702   H     0.78849   0.29092   0.69843   0.00000  Uiso   1.00
H703   H     0.78850   0.04207   0.69841   0.00000  Uiso   1.00
H704   H     0.87816   0.29126   0.80159   0.00000  Uiso   1.00
N705   N     0.83333   0.28573   0.75000   0.00000  Uiso   1.00
N706   N     0.83333   0.04760   0.75000   0.00000  Uiso   1.00
O707   O     0.77226   0.20487   0.75000   0.00000  Uiso   1.00
O708   O     0.89441   0.12846   0.75001   0.00000  Uiso   1.00
O709   O     0.89441   0.20487   0.75001   0.00000  Uiso   1.00
O710   O     0.77226   0.12846   0.75000   0.00000  Uiso   1.00
O711   O     0.83333   0.20489   0.68393   0.00000  Uiso   1.00
O712   O     0.83334   0.12844   0.81608   0.00000  Uiso   1.00
O713   O     0.83334   0.20489   0.81608   0.00000  Uiso   1.00
O714   O     0.83333   0.12844   0.68393   0.00000  Uiso   1.00
Zn715  Zn    0.83333   0.21771   0.75000   0.00000  Uiso   1.00
Zn716  Zn    0.83333   0.11563   0.75000   0.00000  Uiso   1.00
O717   O     0.84425   0.29201   0.95827   0.00000  Uiso   1.00
H718   H     0.82557   0.29229   0.93207   0.00000  Uiso   1.00
O719   O     0.82242   0.04133   0.54173   0.00000  Uiso   1.00
H720   H     0.84110   0.04104   0.56793   0.00000  Uiso   1.00
C721   C     0.08661   0.50000   0.74997   0.00000  Uiso   1.00
C722   C     0.24673   0.50000   0.75003   0.00000  Uiso   1.00
C723   C     0.17742   0.58175   0.52417   0.00000  Uiso   1.00
C724   C     0.15591   0.41825   0.97583   0.00000  Uiso   1.00
C725   C     0.02131   0.45948   0.75822   0.00000  Uiso   1.00
C726   C     0.31202   0.54051   0.74178   0.00000  Uiso   1.00
C727   C     0.31205   0.45949   0.75827   0.00000  Uiso   1.00
C728   C     0.02129   0.54051   0.74173   0.00000  Uiso   1.00
C729   C     0.29087   0.50001   0.75004   0.00000  Uiso   1.00
C730   C     0.04247   0.49999   0.74996   0.00000  Uiso   1.00
C731   C     0.19159   0.35743   0.77868   0.00000  Uiso   1.00
C732   C     0.14174   0.64257   0.72132   0.00000  Uiso   1.00
C733   C     0.14174   0.35724   0.72132   0.00000  Uiso   1.00
C734   C     0.19159   0.64276   0.77868   0.00000  Uiso   1.00
C735   C     0.16675   0.49992   0.66326   0.00000  Uiso   1.00
C736   C     0.16659   0.50008   0.83674   0.00000  Uiso   1.00
C737   C     0.15989   0.45970   0.90735   0.00000  Uiso   1.00
C738   C     0.17345   0.54030   0.59265   0.00000  Uiso   1.00
C739   C     0.16598   0.50033   0.88466   0.00000  Uiso   1.00
C740   C     0.16736   0.49967   0.61534   0.00000  Uiso   1.00
C741   C     0.17153   0.54120   0.90760   0.00000  Uiso   1.00
C742   C     0.16180   0.45880   0.59240   0.00000  Uiso   1.00
C743   C     0.17048   0.54214   0.95390   0.00000  Uiso   1.00
C744   C     0.16285   0.45786   0.54610   0.00000  Uiso   1.00
C745   C     0.16601   0.50040   0.97682   0.00000  Uiso   1.00
C746   C     0.16732   0.49960   0.52318   0.00000  Uiso   1.00
C747   C     0.16033   0.45934   0.95332   0.00000  Uiso   1.00
C748   C     0.17301   0.54066   0.54668   0.00000  Uiso   1.00
C749   C     0.17515   0.58324   0.97805   0.00000  Uiso   1.00
C750   C     0.15819   0.41676   0.52195   0.00000  Uiso   1.00
H751   H     0.15539   0.42815   0.88927   0.00000  Uiso   1.00
H752   H     0.17794   0.57185   0.61073   0.00000  Uiso   1.00
H753   H     0.17763   0.57179   0.88895   0.00000  Uiso   1.00
H754   H     0.15570   0.42821   0.61105   0.00000  Uiso   1.00
H755   H     0.18146   0.61318   0.54255   0.00000  Uiso   1.00
H756   H     0.15187   0.38682   0.95745   0.00000  Uiso   1.00
H757   H     0.03754   0.42800   0.76489   0.00000  Uiso   1.00
H758   H     0.29579   0.57200   0.73511   0.00000  Uiso   1.00
H759   H     0.29583   0.42802   0.76498   0.00000  Uiso   1.00
H760   H     0.03750   0.57198   0.73502   0.00000  Uiso   1.00
H761   H     0.21151   0.37575   0.80157   0.00000  Uiso   1.00
H762   H     0.12182   0.62425   0.69843   0.00000  Uiso   1.00
H763   H     0.12184   0.37540   0.69841   0.00000  Uiso   1.00
H764   H     0.21150   0.62460   0.80159   0.00000  Uiso   1.00
N765   N     0.16667   0.61907   0.75000   0.00000  Uiso   1.00
N766   N     0.16667   0.38093   0.75000   0.00000  Uiso   1.00
O767   O     0.10559   0.53821   0.75000   0.00000  Uiso   1.00
O768   O     0.22774   0.46179   0.75001   0.00000  Uiso   1.00
O769   O     0.22774   0.53821   0.75001   0.00000  Uiso   1.00
O770   O     0.10559   0.46179   0.75000   0.00000  Uiso   1.00
O771   O     0.16666   0.53823   0.68393   0.00000  Uiso   1.00
O772   O     0.16667   0.46177   0.81608   0.00000  Uiso   1.00
O773   O     0.16667   0.53823   0.81608   0.00000  Uiso   1.00
O774   O     0.16666   0.46177   0.68393   0.00000  Uiso   1.00
Zn775  Zn    0.16667   0.55104   0.75000   0.00000  Uiso   1.00
Zn776  Zn    0.16667   0.44896   0.75000   0.00000  Uiso   1.00
O777   O     0.17758   0.62534   0.95827   0.00000  Uiso   1.00
H778   H     0.15890   0.62562   0.93207   0.00000  Uiso   1.00
O779   O     0.15575   0.37466   0.54173   0.00000  Uiso   1.00
H780   H     0.17443   0.37438   0.56793   0.00000  Uiso   1.00
C781   C     0.41994   0.50000   0.74997   0.00000  Uiso   1.00
C782   C     0.58006   0.50000   0.75003   0.00000  Uiso   1.00
C783   C     0.51075   0.58175   0.52417   0.00000  Uiso   1.00
C784   C     0.48924   0.41825   0.97583   0.00000  Uiso   1.00
C785   C     0.35464   0.45948   0.75822   0.00000  Uiso   1.00
C786   C     0.64536   0.54051   0.74178   0.00000  Uiso   1.00
C787   C     0.64538   0.45949   0.75827   0.00000  Uiso   1.00
C788   C     0.35462   0.54051   0.74173   0.00000  Uiso   1.00
C789   C     0.62420   0.50001   0.75004   0.00000  Uiso   1.00
C790   C     0.37580   0.49999   0.74996   0.00000  Uiso   1.00
C791   C     0.52493   0.35743   0.77868   0.00000  Uiso   1.00
C792   C     0.47507   0.64257   0.72132   0.00000  Uiso   1.00
C793   C     0.47508   0.35724   0.72132   0.00000  Uiso   1.00
C794   C     0.52492   0.64276   0.77868   0.00000  Uiso   1.00
C795   C     0.50008   0.49992   0.66326   0.00000  Uiso   1.00
C796   C     0.49992   0.50008   0.83674   0.00000  Uiso   1.00
C797   C     0.49322   0.45970   0.90735   0.00000  Uiso   1.00
C798   C     0.50678   0.54030   0.59265   0.00000  Uiso   1.00
C799   C     0.49931   0.50033   0.88466   0.00000  Uiso   1.00
C800   C     0.50069   0.49967   0.61534   0.00000  Uiso   1.00
C801   C     0.50487   0.54120   0.90760   0.00000  Uiso   1.00
C802   C     0.49513   0.45880   0.59240   0.00000  Uiso   1.00
C803   C     0.50382   0.54214   0.95390   0.00000  Uiso   1.00
C804   C     0.49618   0.45786   0.54610   0.00000  Uiso   1.00
C805   C     0.49934   0.50040   0.97682   0.00000  Uiso   1.00
C806   C     0.50066   0.49960   0.52318   0.00000  Uiso   1.00
C807   C     0.49366   0.45934   0.95332   0.00000  Uiso   1.00
C808   C     0.50634   0.54066   0.54668   0.00000  Uiso   1.00
C809   C     0.50848   0.58324   0.97805   0.00000  Uiso   1.00
C810   C     0.49152   0.41676   0.52195   0.00000  Uiso   1.00
H811   H     0.48872   0.42815   0.88927   0.00000  Uiso   1.00
H812   H     0.51128   0.57185   0.61073   0.00000  Uiso   1.00
H813   H     0.51097   0.57179   0.88895   0.00000  Uiso   1.00
H814   H     0.48903   0.42821   0.61105   0.00000  Uiso   1.00
H815   H     0.51480   0.61318   0.54255   0.00000  Uiso   1.00
H816   H     0.48520   0.38682   0.95745   0.00000  Uiso   1.00
H817   H     0.37087   0.42800   0.76489   0.00000  Uiso   1.00
H818   H     0.62913   0.57200   0.73511   0.00000  Uiso   1.00
H819   H     0.62917   0.42802   0.76498   0.00000  Uiso   1.00
H820   H     0.37083   0.57198   0.73502   0.00000  Uiso   1.00
H821   H     0.54484   0.37575   0.80157   0.00000  Uiso   1.00
H822   H     0.45515   0.62425   0.69843   0.00000  Uiso   1.00
H823   H     0.45517   0.37540   0.69841   0.00000  Uiso   1.00
H824   H     0.54483   0.62460   0.80159   0.00000  Uiso   1.00
N825   N     0.50000   0.61907   0.75000   0.00000  Uiso   1.00
N826   N     0.50000   0.38093   0.75000   0.00000  Uiso   1.00
O827   O     0.43892   0.53821   0.75000   0.00000  Uiso   1.00
O828   O     0.56108   0.46179   0.75001   0.00000  Uiso   1.00
O829   O     0.56108   0.53821   0.75001   0.00000  Uiso   1.00
O830   O     0.43892   0.46179   0.75000   0.00000  Uiso   1.00
O831   O     0.49999   0.53823   0.68393   0.00000  Uiso   1.00
O832   O     0.50001   0.46177   0.81608   0.00000  Uiso   1.00
O833   O     0.50001   0.53823   0.81608   0.00000  Uiso   1.00
O834   O     0.49999   0.46177   0.68393   0.00000  Uiso   1.00
Zn835  Zn    0.50000   0.55104   0.75000   0.00000  Uiso   1.00
Zn836  Zn    0.50000   0.44896   0.75000   0.00000  Uiso   1.00
O837   O     0.51091   0.62534   0.95827   0.00000  Uiso   1.00
H838   H     0.49224   0.62562   0.93207   0.00000  Uiso   1.00
O839   O     0.48908   0.37466   0.54173   0.00000  Uiso   1.00
H840   H     0.50776   0.37438   0.56793   0.00000  Uiso   1.00
C841   C     0.75327   0.50000   0.74997   0.00000  Uiso   1.00
C842   C     0.91339   0.50000   0.75003   0.00000  Uiso   1.00
C843   C     0.84409   0.58175   0.52417   0.00000  Uiso   1.00
C844   C     0.82258   0.41825   0.97583   0.00000  Uiso   1.00
C845   C     0.68798   0.45948   0.75822   0.00000  Uiso   1.00
C846   C     0.97869   0.54051   0.74178   0.00000  Uiso   1.00
C847   C     0.97871   0.45949   0.75827   0.00000  Uiso   1.00
C848   C     0.68795   0.54051   0.74173   0.00000  Uiso   1.00
C849   C     0.95753   0.50001   0.75004   0.00000  Uiso   1.00
C850   C     0.70913   0.49999   0.74996   0.00000  Uiso   1.00
C851   C     0.85826   0.35743   0.77868   0.00000  Uiso   1.00
C852   C     0.80841   0.64257   0.72132   0.00000  Uiso   1.00
C853   C     0.80841   0.35724   0.72132   0.00000  Uiso   1.00
C854   C     0.85826   0.64276   0.77868   0.00000  Uiso   1.00
C855   C     0.83341   0.49992   0.66326   0.00000  Uiso   1.00
C856   C     0.83325   0.50008   0.83674   0.00000  Uiso   1.00
C857   C     0.82655   0.45970   0.90735   0.00000  Uiso   1.00
C858   C     0.84011   0.54030   0.59265   0.00000  Uiso   1.00
C859   C     0.83264   0.50033   0.88466   0.00000  Uiso   1.00
C860   C     0.83402   0.49967   0.61534   0.00000  Uiso   1.00
C861   C     0.83820   0.54120   0.90760   0.00000  Uiso   1.00
C862   C     0.82847   0.45880   0.59240   0.00000  Uiso   1.00
C863   C     0.83715   0.54214   0.95390   0.00000  Uiso   1.00
C864   C     0.82951   0.45786   0.54610   0.00000  Uiso   1.00
C865   C     0.83268   0.50040   0.97682   0.00000  Uiso   1.00
C866   C     0.83399   0.49960   0.52318   0.00000  Uiso   1.00
C867   C     0.82699   0.45934   0.95332   0.00000  Uiso   1.00
C868   C     0.83967   0.54066   0.54668   0.00000  Uiso   1.00
C869   C     0.84181   0.58324   0.97805   0.00000  Uiso   1.00
C870   C     0.82485   0.41676   0.52195   0.00000  Uiso   1.00
H871   H     0.82206   0.42815   0.88927   0.00000  Uiso   1.00
H872   H     0.84461   0.57185   0.61073   0.00000  Uiso   1.00
H873   H     0.84430   0.57179   0.88895   0.00000  Uiso   1.00
H874   H     0.82237   0.42821   0.61105   0.00000  Uiso   1.00
H875   H     0.84813   0.61318   0.54255   0.00000  Uiso   1.00
H876   H     0.81854   0.38682   0.95745   0.00000  Uiso   1.00
H877   H     0.70421   0.42800   0.76489   0.00000  Uiso   1.00
H878   H     0.96246   0.57200   0.73511   0.00000  Uiso   1.00
H879   H     0.96250   0.42802   0.76498   0.00000  Uiso   1.00
H880   H     0.70417   0.57198   0.73502   0.00000  Uiso   1.00
H881   H     0.87818   0.37575   0.80157   0.00000  Uiso   1.00
H882   H     0.78849   0.62425   0.69843   0.00000  Uiso   1.00
H883   H     0.78850   0.37540   0.69841   0.00000  Uiso   1.00
H884   H     0.87816   0.62460   0.80159   0.00000  Uiso   1.00
N885   N     0.83333   0.61907   0.75000   0.00000  Uiso   1.00
N886   N     0.83333   0.38093   0.75000   0.00000  Uiso   1.00
O887   O     0.77226   0.53821   0.75000   0.00000  Uiso   1.00
O888   O     0.89441   0.46179   0.75001   0.00000  Uiso   1.00
O889   O     0.89441   0.53821   0.75001   0.00000  Uiso   1.00
O890   O     0.77226   0.46179   0.75000   0.00000  Uiso   1.00
O891   O     0.83333   0.53823   0.68393   0.00000  Uiso   1.00
O892   O     0.83334   0.46177   0.81608   0.00000  Uiso   1.00
O893   O     0.83334   0.53823   0.81608   0.00000  Uiso   1.00
O894   O     0.83333   0.46177   0.68393   0.00000  Uiso   1.00
Zn895  Zn    0.83333   0.55104   0.75000   0.00000  Uiso   1.00
Zn896  Zn    0.83333   0.44896   0.75000   0.00000  Uiso   1.00
O897   O     0.84425   0.62534   0.95827   0.00000  Uiso   1.00
H898   H     0.82557   0.62562   0.93207   0.00000  Uiso   1.00
O899   O     0.82242   0.37466   0.54173   0.00000  Uiso   1.00
H900   H     0.84110   0.37438   0.56793   0.00000  Uiso   1.00
C901   C     0.08661   0.83333   0.74997   0.00000  Uiso   1.00
C902   C     0.24673   0.83334   0.75003   0.00000  Uiso   1.00
C903   C     0.17742   0.91508   0.52417   0.00000  Uiso   1.00
C904   C     0.15591   0.75159   0.97583   0.00000  Uiso   1.00
C905   C     0.02131   0.79282   0.75822   0.00000  Uiso   1.00
C906   C     0.31202   0.87385   0.74178   0.00000  Uiso   1.00
C907   C     0.31205   0.79283   0.75827   0.00000  Uiso   1.00
C908   C     0.02129   0.87384   0.74173   0.00000  Uiso   1.00
C909   C     0.29087   0.83334   0.75004   0.00000  Uiso   1.00
C910   C     0.04247   0.83333   0.74996   0.00000  Uiso   1.00
C911   C     0.19159   0.69077   0.77868   0.00000  Uiso   1.00
C912   C     0.14174   0.97590   0.72132   0.00000  Uiso   1.00
C913   C     0.14174   0.69058   0.72132   0.00000  Uiso   1.00
C914   C     0.19159   0.97609   0.77868   0.00000  Uiso   1.00
C915   C     0.16675   0.83325   0.66326   0.00000  Uiso   1.00
C916   C     0.16659   0.83342   0.83674   0.00000  Uiso   1.00
C917   C     0.15989   0.79303   0.90735   0.00000  Uiso   1.00
C918   C     0.17345   0.87363   0.59265   0.00000  Uiso   1.00
C919   C     0.16598   0.83366   0.88466   0.00000  Uiso   1.00
C920   C     0.16736   0.83301   0.61534   0.00000  Uiso   1.00
C921   C     0.17153   0.87453   0.90760   0.00000  Uiso   1.00
C922   C     0.16180   0.79214   0.59240   0.00000  Uiso   1.00
C923   C     0.17048   0.87547   0.95390   0.00000  Uiso   1.00
C924   C     0.16285   0.79120   0.54610   0.00000  Uiso   1.00
C925   C     0.16601   0.83373   0.97682   0.00000  Uiso   1.00
C926   C     0.16732   0.83293   0.52318   0.00000  Uiso   1.00
C927   C     0.16033   0.79268   0.95332   0.00000  Uiso   1.00
C928   C     0.17301   0.87399   0.54668   0.00000  Uiso   1.00
C929   C     0.17515   0.91658   0.97805   0.00000  Uiso   1.00
C930   C     0.15819   0.75009   0.52195   0.00000  Uiso   1.00
H931   H     0.15539   0.76148   0.88927   0.00000  Uiso   1.00
H932   H     0.17794   0.90519   0.61073   0.00000  Uiso   1.00
H933   H     0.17763   0.90512   0.88895   0.00000  Uiso   1.00
H934   H     0.15570   0.76154   0.61105   0.00000  Uiso   1.00
H935   H     0.18146   0.94651   0.54255   0.00000  Uiso   1.00
H936   H     0.15187   0.72016   0.95745   0.00000  Uiso   1.00
H937   H     0.03754   0.76133   0.76489   0.00000  Uiso   1.00
H938   H     0.29579   0.90533   0.73511   0.00000  Uiso   1.00
H939   H     0.29583   0.76135   0.76498   0.00000  Uiso   1.00
H940   H     0.03750   0.90532   0.73502   0.00000  Uiso   1.00
H941   H     0.21151   0.70908   0.80157   0.00000  Uiso   1.00
H942   H     0.12182   0.95759   0.69843   0.00000  Uiso   1.00
H943   H     0.12184   0.70874   0.69841   0.00000  Uiso   1.00
H944   H     0.21150   0.95793   0.80159   0.00000  Uiso   1.00
N945   N     0.16667   0.95240   0.75000   0.00000  Uiso   1.00
N946   N     0.16667   0.71427   0.75000   0.00000  Uiso   1.00
O947   O     0.10559   0.87154   0.75000   0.00000  Uiso   1.00
O948   O     0.22774   0.79513   0.75001   0.00000  Uiso   1.00
O949   O     0.22774   0.87154   0.75001   0.00000  Uiso   1.00
O950   O     0.10559   0.79513   0.75000   0.00000  Uiso   1.00
O951   O     0.16666   0.87156   0.68393   0.00000  Uiso   1.00
O952   O     0.16667   0.79511   0.81608   0.00000  Uiso   1.00
O953   O     0.16667   0.87156   0.81608   0.00000  Uiso   1.00
O954   O     0.16666   0.79511   0.68393   0.00000  Uiso   1.00
Zn955  Zn    0.16667   0.88437   0.75000   0.00000  Uiso   1.00
Zn956  Zn    0.16667   0.78229   0.75000   0.00000  Uiso   1.00
O957   O     0.17758   0.95867   0.95827   0.00000  Uiso   1.00
H958   H     0.15890   0.95896   0.93207   0.00000  Uiso   1.00
O959   O     0.15575   0.70799   0.54173   0.00000  Uiso   1.00
H960   H     0.17443   0.70771   0.56793   0.00000  Uiso   1.00
C961   C     0.41994   0.83333   0.74997   0.00000  Uiso   1.00
C962   C     0.58006   0.83334   0.75003   0.00000  Uiso   1.00
C963   C     0.51075   0.91508   0.52417   0.00000  Uiso   1.00
C964   C     0.48924   0.75159   0.97583   0.00000  Uiso   1.00
C965   C     0.35464   0.79282   0.75822   0.00000  Uiso   1.00
C966   C     0.64536   0.87385   0.74178   0.00000  Uiso   1.00
C967   C     0.64538   0.79283   0.75827   0.00000  Uiso   1.00
C968   C     0.35462   0.87384   0.74173   0.00000  Uiso   1.00
C969   C     0.62420   0.83334   0.75004   0.00000  Uiso   1.00
C970   C     0.37580   0.83333   0.74996   0.00000  Uiso   1.00
C971   C     0.52493   0.69077   0.77868   0.00000  Uiso   1.00
C972   C     0.47507   0.97590   0.72132   0.00000  Uiso   1.00
C973   C     0.47508   0.69058   0.72132   0.00000  Uiso   1.00
C974   C     0.52492   0.97609   0.77868   0.00000  Uiso   1.00
C975   C     0.50008   0.83325   0.66326   0.00000  Uiso   1.00
C976   C     0.49992   0.83342   0.83674   0.00000  Uiso   1.00
C977   C     0.49322   0.79303   0.90735   0.00000  Uiso   1.00
C978   C     0.50678   0.87363   0.59265   0.00000  Uiso   1.00
C979   C     0.49931   0.83366   0.88466   0.00000  Uiso   1.00
C980   C     0.50069   0.83301   0.61534   0.00000  Uiso   1.00
C981   C     0.50487   0.87453   0.90760   0.00000  Uiso   1.00
C982   C     0.49513   0.79214   0.59240   0.00000  Uiso   1.00
C983   C     0.50382   0.87547   0.95390   0.00000  Uiso   1.00
C984   C     0.49618   0.79120   0.54610   0.00000  Uiso   1.00
C985   C     0.49934   0.83373   0.97682   0.00000  Uiso   1.00
C986   C     0.50066   0.83293   0.52318   0.00000  Uiso   1.00
C987   C     0.49366   0.79268   0.95332   0.00000  Uiso   1.00
C988   C     0.50634   0.87399   0.54668   0.00000  Uiso   1.00
C989   C     0.50848   0.91658   0.97805   0.00000  Uiso   1.00
C990   C     0.49152   0.75009   0.52195   0.00000  Uiso   1.00
H991   H     0.48872   0.76148   0.88927   0.00000  Uiso   1.00
H992   H     0.51128   0.90519   0.61073   0.00000  Uiso   1.00
H993   H     0.51097   0.90512   0.88895   0.00000  Uiso   1.00
H994   H     0.48903   0.76154   0.61105   0.00000  Uiso   1.00
H995   H     0.51480   0.94651   0.54255   0.00000  Uiso   1.00
H996   H     0.48520   0.72016   0.95745   0.00000  Uiso   1.00
H997   H     0.37087   0.76133   0.76489   0.00000  Uiso   1.00
H998   H     0.62913   0.90533   0.73511   0.00000  Uiso   1.00
H999   H     0.62917   0.76135   0.76498   0.00000  Uiso   1.00
H1000  H     0.37083   0.90532   0.73502   0.00000  Uiso   1.00
H1001  H     0.54484   0.70908   0.80157   0.00000  Uiso   1.00
H1002  H     0.45515   0.95759   0.69843   0.00000  Uiso   1.00
H1003  H     0.45517   0.70874   0.69841   0.00000  Uiso   1.00
H1004  H     0.54483   0.95793   0.80159   0.00000  Uiso   1.00
N1005  N     0.50000   0.95240   0.75000   0.00000  Uiso   1.00
N1006  N     0.50000   0.71427   0.75000   0.00000  Uiso   1.00
O1007  O     0.43892   0.87154   0.75000   0.00000  Uiso   1.00
O1008  O     0.56108   0.79513   0.75001   0.00000  Uiso   1.00
O1009  O     0.56108   0.87154   0.75001   0.00000  Uiso   1.00
O1010  O     0.43892   0.79513   0.75000   0.00000  Uiso   1.00
O1011  O     0.49999   0.87156   0.68393   0.00000  Uiso   1.00
O1012  O     0.50001   0.79511   0.81608   0.00000  Uiso   1.00
O1013  O     0.50001   0.87156   0.81608   0.00000  Uiso   1.00
O1014  O     0.49999   0.79511   0.68393   0.00000  Uiso   1.00
Zn1015 Zn    0.50000   0.88437   0.75000   0.00000  Uiso   1.00
Zn1016 Zn    0.50000   0.78229   0.75000   0.00000  Uiso   1.00
O1017  O     0.51091   0.95867   0.95827   0.00000  Uiso   1.00
H1018  H     0.49224   0.95896   0.93207   0.00000  Uiso   1.00
O1019  O     0.48908   0.70799   0.54173   0.00000  Uiso   1.00
H1020  H     0.50776   0.70771   0.56793   0.00000  Uiso   1.00
C1021  C     0.75327   0.83333   0.74997   0.00000  Uiso   1.00
C1022  C     0.91339   0.83334   0.75003   0.00000  Uiso   1.00
C1023  C     0.84409   0.91508   0.52417   0.00000  Uiso   1.00
C1024  C     0.82258   0.75159   0.97583   0.00000  Uiso   1.00
C1025  C     0.68798   0.79282   0.75822   0.00000  Uiso   1.00
C1026  C     0.97869   0.87385   0.74178   0.00000  Uiso   1.00
C1027  C     0.97871   0.79283   0.75827   0.00000  Uiso   1.00
C1028  C     0.68795   0.87384   0.74173   0.00000  Uiso   1.00
C1029  C     0.95753   0.83334   0.75004   0.00000  Uiso   1.00
C1030  C     0.70913   0.83333   0.74996   0.00000  Uiso   1.00
C1031  C     0.85826   0.69077   0.77868   0.00000  Uiso   1.00
C1032  C     0.80841   0.97590   0.72132   0.00000  Uiso   1.00
C1033  C     0.80841   0.69058   0.72132   0.00000  Uiso   1.00
C1034  C     0.85826   0.97609   0.77868   0.00000  Uiso   1.00
C1035  C     0.83341   0.83325   0.66326   0.00000  Uiso   1.00
C1036  C     0.83325   0.83342   0.83674   0.00000  Uiso   1.00
C1037  C     0.82655   0.79303   0.90735   0.00000  Uiso   1.00
C1038  C     0.84011   0.87363   0.59265   0.00000  Uiso   1.00
C1039  C     0.83264   0.83366   0.88466   0.00000  Uiso   1.00
C1040  C     0.83402   0.83301   0.61534   0.00000  Uiso   1.00
C1041  C     0.83820   0.87453   0.90760   0.00000  Uiso   1.00
C1042  C     0.82847   0.79214   0.59240   0.00000  Uiso   1.00
C1043  C     0.83715   0.87547   0.95390   0.00000  Uiso   1.00
C1044  C     0.82951   0.79120   0.54610   0.00000  Uiso   1.00
C1045  C     0.83268   0.83373   0.97682   0.00000  Uiso   1.00
C1046  C     0.83399   0.83293   0.52318   0.00000  Uiso   1.00
C1047  C     0.82699   0.79268   0.95332   0.00000  Uiso   1.00
C1048  C     0.83967   0.87399   0.54668   0.00000  Uiso   1.00
C1049  C     0.84181   0.91658   0.97805   0.00000  Uiso   1.00
C1050  C     0.82485   0.75009   0.52195   0.00000  Uiso   1.00
H1051  H     0.82206   0.76148   0.88927   0.00000  Uiso   1.00
H1052  H     0.84461   0.90519   0.61073   0.00000  Uiso   1.00
H1053  H     0.84430   0.90512   0.88895   0.00000  Uiso   1.00
H1054  H     0.82237   0.76154   0.61105   0.00000  Uiso   1.00
H1055  H     0.84813   0.94651   0.54255   0.00000  Uiso   1.00
H1056  H     0.81854   0.72016   0.95745   0.00000  Uiso   1.00
H1057  H     0.70421   0.76133   0.76489   0.00000  Uiso   1.00
H1058  H     0.96246   0.90533   0.73511   0.00000  Uiso   1.00
H1059  H     0.96250   0.76135   0.76498   0.00000  Uiso   1.00
H1060  H     0.70417   0.90532   0.73502   0.00000  Uiso   1.00
H1061  H     0.87818   0.70908   0.80157   0.00000  Uiso   1.00
H1062  H     0.78849   0.95759   0.69843   0.00000  Uiso   1.00
H1063  H     0.78850   0.70874   0.69841   0.00000  Uiso   1.00
H1064  H     0.87816   0.95793   0.80159   0.00000  Uiso   1.00
N1065  N     0.83333   0.95240   0.75000   0.00000  Uiso   1.00
N1066  N     0.83333   0.71427   0.75000   0.00000  Uiso   1.00
O1067  O     0.77226   0.87154   0.75000   0.00000  Uiso   1.00
O1068  O     0.89441   0.79513   0.75001   0.00000  Uiso   1.00
O1069  O     0.89441   0.87154   0.75001   0.00000  Uiso   1.00
O1070  O     0.77226   0.79513   0.75000   0.00000  Uiso   1.00
O1071  O     0.83333   0.87156   0.68393   0.00000  Uiso   1.00
O1072  O     0.83334   0.79511   0.81608   0.00000  Uiso   1.00
O1073  O     0.83334   0.87156   0.81608   0.00000  Uiso   1.00
O1074  O     0.83333   0.79511   0.68393   0.00000  Uiso   1.00
Zn1075 Zn    0.83333   0.88437   0.75000   0.00000  Uiso   1.00
Zn1076 Zn    0.83333   0.78229   0.75000   0.00000  Uiso   1.00
O1077  O     0.84425   0.95867   0.95827   0.00000  Uiso   1.00
H1078  H     0.82557   0.95896   0.93207   0.00000  Uiso   1.00
O1079  O     0.82242   0.70799   0.54173   0.00000  Uiso   1.00
H1080  H     0.84110   0.70771   0.56793   0.00000  Uiso   1.00
loop_
_geom_bond_atom_site_label_1
_geom_bond_atom_site_label_2
_geom_bond_distance
_geom_bond_site_symmetry_2
_ccdc_geom_bond_type
C1     O50     1.281   .     A
C1     O47     1.281   .     A
C1     C10     1.419   .     S
C2     O49     1.281   .     A
C2     O48     1.281   .     A
C2     C9      1.419   .     S
C3     H35     1.084   .     S
C3     C28     1.396   .     A
C3     C569    1.388   1_554 S
C4     H36     1.084   .     S
C4     C27     1.396   .     A
C4     C570    1.388   .     S
C5     H37     1.084   .     S
C5     C10     1.397   .     A
C5     C127    1.370   1_455 S
C6     C9      1.397   .     A
C6     H38     1.084   .     S
C6     C68     1.370   .     S
C7     C9      1.397   .     A
C7     H39     1.084   .     S
C7     C65     1.370   .     S
C8     H40     1.084   .     S
C8     C10     1.397   .     A
C8     C126    1.370   1_455 S
C11    H41     1.082   .     S
C11    N46     1.366   .     A
C11    C374    1.415   1_545 S
C12    H42     1.082   .     S
C12    N45     1.366   .     A
C12    C193    1.415   .     S
C13    H43     1.082   .     S
C13    N46     1.366   .     A
C13    C372    1.415   1_545 S
C14    H44     1.082   .     S
C14    N45     1.366   .     A
C14    C191    1.415   .     S
C15    O51     1.287   .     A
C15    C20     1.440   .     S
C15    O54     1.286   .     A
C16    C19     1.440   .     S
C16    O52     1.287   .     A
C16    O53     1.286   .     A
C17    H31     1.085   .     S
C17    C19     1.394   .     A
C17    C27     1.381   .     A
C18    C28     1.381   .     A
C18    H32     1.085   .     S
C18    C20     1.394   .     A
C19    C21     1.397   .     A
C20    C22     1.397   .     A
C21    C23     1.391   .     A
C21    H33     1.081   .     S
C22    C24     1.392   .     A
C22    H34     1.081   .     S
C23    C29     1.418   .     A
C23    C25     1.419   .     A
C24    C26     1.419   .     A
C24    C30     1.418   .     A
C25    C27     1.411   .     A
C25    C566    1.394   .     S
C26    C28     1.411   .     A
C26    C565    1.394   1_554 S
C29    O57     1.379   .     S
C29    C543    1.388   .     S
C30    O59     1.379   .     S
C30    C544    1.388   1_554 S
N45    Zn55    2.005   .     S
N46    Zn56    2.005   .     S
O47    Zn55    2.000   .     S
O48    Zn56    2.000   .     S
O49    Zn55    2.000   .     S
O50    Zn56    2.000   .     S
O51    Zn55    2.019   .     S
O52    Zn56    2.019   .     S
O53    Zn55    2.022   .     S
O54    Zn56    2.022   .     S
O57    H58     0.989   .     S
O59    H60     0.989   .     S
C61    O110    1.281   .     A
C61    O107    1.281   .     A
C61    C70     1.419   .     S
C62    O109    1.281   .     A
C62    O108    1.281   .     A
C62    C69     1.419   .     S
C63    H95     1.084   .     S
C63    C88     1.396   .     A
C63    C629    1.388   1_554 S
C64    H96     1.084   .     S
C64    C87     1.396   .     A
C64    C630    1.388   .     S
C65    H97     1.084   .     S
C65    C70     1.397   .     A
C66    C69     1.397   .     A
C66    H98     1.084   .     S
C66    C128    1.370   .     S
C67    C69     1.397   .     A
C67    H99     1.084   .     S
C67    C125    1.370   .     S
C68    H100    1.084   .     S
C68    C70     1.397   .     A
C71    H101    1.082   .     S
C71    N106    1.366   .     A
C71    C434    1.415   1_545 S
C72    H102    1.082   .     S
C72    N105    1.366   .     A
C72    C253    1.415   .     S
C73    H103    1.082   .     S
C73    N106    1.366   .     A
C73    C432    1.415   1_545 S
C74    H104    1.082   .     S
C74    N105    1.366   .     A
C74    C251    1.415   .     S
C75    O111    1.287   .     A
C75    C80     1.440   .     S
C75    O114    1.286   .     A
C76    C79     1.440   .     S
C76    O112    1.287   .     A
C76    O113    1.286   .     A
C77    H91     1.085   .     S
C77    C79     1.394   .     A
C77    C87     1.381   .     A
C78    C88     1.381   .     A
C78    H92     1.085   .     S
C78    C80     1.394   .     A
C79    C81     1.397   .     A
C80    C82     1.397   .     A
C81    C83     1.391   .     A
C81    H93     1.081   .     S
C82    C84     1.392   .     A
C82    H94     1.081   .     S
C83    C89     1.418   .     A
C83    C85     1.419   .     A
C84    C86     1.419   .     A
C84    C90     1.418   .     A
C85    C87     1.411   .     A
C85    C626    1.394   .     S
C86    C88     1.411   .     A
C86    C625    1.394   1_554 S
C89    O117    1.379   .     S
C89    C603    1.388   .     S
C90    O119    1.379   .     S
C90    C604    1.388   1_554 S
N105   Zn115   2.005   .     S
N106   Zn116   2.005   .     S
O107   Zn115   2.000   .     S
O108   Zn116   2.000   .     S
O109   Zn115   2.000   .     S
O110   Zn116   2.000   .     S
O111   Zn115   2.019   .     S
O112   Zn116   2.019   .     S
O113   Zn115   2.022   .     S
O114   Zn116   2.022   .     S
O117   H118    0.989   .     S
O119   H120    0.989   .     S
C121   O170    1.281   .     A
C121   O167    1.281   .     A
C121   C130    1.419   .     S
C122   O169    1.281   .     A
C122   O168    1.281   .     A
C122   C129    1.419   .     S
C123   H155    1.084   .     S
C123   C148    1.396   .     A
C123   C689    1.388   1_554 S
C124   H156    1.084   .     S
C124   C147    1.396   .     A
C124   C690    1.388   .     S
C125   H157    1.084   .     S
C125   C130    1.397   .     A
C126   C129    1.397   .     A
C126   H158    1.084   .     S
C126   C8      1.370   1_655 S
C127   C129    1.397   .     A
C127   H159    1.084   .     S
C127   C5      1.370   1_655 S
C128   H160    1.084   .     S
C128   C130    1.397   .     A
C131   H161    1.082   .     S
C131   N166    1.366   .     A
C131   C494    1.415   1_545 S
C132   H162    1.082   .     S
C132   N165    1.366   .     A
C132   C313    1.415   .     S
C133   H163    1.082   .     S
C133   N166    1.366   .     A
C133   C492    1.415   1_545 S
C134   H164    1.082   .     S
C134   N165    1.366   .     A
C134   C311    1.415   .     S
C135   O171    1.287   .     A
C135   C140    1.440   .     S
C135   O174    1.286   .     A
C136   C139    1.440   .     S
C136   O172    1.287   .     A
C136   O173    1.286   .     A
C137   H151    1.085   .     S
C137   C139    1.394   .     A
C137   C147    1.381   .     A
C138   C148    1.381   .     A
C138   H152    1.085   .     S
C138   C140    1.394   .     A
C139   C141    1.397   .     A
C140   C142    1.397   .     A
C141   C143    1.391   .     A
C141   H153    1.081   .     S
C142   C144    1.392   .     A
C142   H154    1.081   .     S
C143   C149    1.418   .     A
C143   C145    1.419   .     A
C144   C146    1.419   .     A
C144   C150    1.418   .     A
C145   C147    1.411   .     A
C145   C686    1.394   .     S
C146   C148    1.411   .     A
C146   C685    1.394   1_554 S
C149   O177    1.379   .     S
C149   C663    1.388   .     S
C150   O179    1.379   .     S
C150   C664    1.388   1_554 S
N165   Zn175   2.005   .     S
N166   Zn176   2.005   .     S
O167   Zn175   2.000   .     S
O168   Zn176   2.000   .     S
O169   Zn175   2.000   .     S
O170   Zn176   2.000   .     S
O171   Zn175   2.019   .     S
O172   Zn176   2.019   .     S
O173   Zn175   2.022   .     S
O174   Zn176   2.022   .     S
O177   H178    0.989   .     S
O179   H180    0.989   .     S
C181   O230    1.281   .     A
C181   O227    1.281   .     A
C181   C190    1.419   .     S
C182   O229    1.281   .     A
C182   O228    1.281   .     A
C182   C189    1.419   .     S
C183   H215    1.084   .     S
C183   C208    1.396   .     A
C183   C749    1.388   1_554 S
C184   H216    1.084   .     S
C184   C207    1.396   .     A
C184   C750    1.388   .     S
C185   H217    1.084   .     S
C185   C190    1.397   .     A
C185   C307    1.370   1_455 S
C186   C189    1.397   .     A
C186   H218    1.084   .     S
C186   C248    1.370   .     S
C187   C189    1.397   .     A
C187   H219    1.084   .     S
C187   C245    1.370   .     S
C188   H220    1.084   .     S
C188   C190    1.397   .     A
C188   C306    1.370   1_455 S
C191   H221    1.082   .     S
C191   N226    1.366   .     A
C192   H222    1.082   .     S
C192   N225    1.366   .     A
C192   C373    1.415   .     S
C193   H223    1.082   .     S
C193   N226    1.366   .     A
C194   H224    1.082   .     S
C194   N225    1.366   .     A
C194   C371    1.415   .     S
C195   O231    1.287   .     A
C195   C200    1.440   .     S
C195   O234    1.286   .     A
C196   C199    1.440   .     S
C196   O232    1.287   .     A
C196   O233    1.286   .     A
C197   H211    1.085   .     S
C197   C199    1.394   .     A
C197   C207    1.381   .     A
C198   C208    1.381   .     A
C198   H212    1.085   .     S
C198   C200    1.394   .     A
C199   C201    1.397   .     A
C200   C202    1.397   .     A
C201   C203    1.391   .     A
C201   H213    1.081   .     S
C202   C204    1.392   .     A
C202   H214    1.081   .     S
C203   C209    1.418   .     A
C203   C205    1.419   .     A
C204   C206    1.419   .     A
C204   C210    1.418   .     A
C205   C207    1.411   .     A
C205   C746    1.394   .     S
C206   C208    1.411   .     A
C206   C745    1.394   1_554 S
C209   O237    1.379   .     S
C209   C723    1.388   .     S
C210   O239    1.379   .     S
C210   C724    1.388   1_554 S
N225   Zn235   2.005   .     S
N226   Zn236   2.005   .     S
O227   Zn235   2.000   .     S
O228   Zn236   2.000   .     S
O229   Zn235   2.000   .     S
O230   Zn236   2.000   .     S
O231   Zn235   2.019   .     S
O232   Zn236   2.019   .     S
O233   Zn235   2.022   .     S
O234   Zn236   2.022   .     S
O237   H238    0.989   .     S
O239   H240    0.989   .     S
C241   O290    1.281   .     A
C241   O287    1.281   .     A
C241   C250    1.419   .     S
C242   O289    1.281   .     A
C242   O288    1.281   .     A
C242   C249    1.419   .     S
C243   H275    1.084   .     S
C243   C268    1.396   .     A
C243   C809    1.388   1_554 S
C244   H276    1.084   .     S
C244   C267    1.396   .     A
C244   C810    1.388   .     S
C245   H277    1.084   .     S
C245   C250    1.397   .     A
C246   C249    1.397   .     A
C246   H278    1.084   .     S
C246   C308    1.370   .     S
C247   C249    1.397   .     A
C247   H279    1.084   .     S
C247   C305    1.370   .     S
C248   H280    1.084   .     S
C248   C250    1.397   .     A
C251   H281    1.082   .     S
C251   N286    1.366   .     A
C252   H282    1.082   .     S
C252   N285    1.366   .     A
C252   C433    1.415   .     S
C253   H283    1.082   .     S
C253   N286    1.366   .     A
C254   H284    1.082   .     S
C254   N285    1.366   .     A
C254   C431    1.415   .     S
C255   O291    1.287   .     A
C255   C260    1.440   .     S
C255   O294    1.286   .     A
C256   C259    1.440   .     S
C256   O292    1.287   .     A
C256   O293    1.286   .     A
C257   H271    1.085   .     S
C257   C259    1.394   .     A
C257   C267    1.381   .     A
C258   C268    1.381   .     A
C258   H272    1.085   .     S
C258   C260    1.394   .     A
C259   C261    1.397   .     A
C260   C262    1.397   .     A
C261   C263    1.391   .     A
C261   H273    1.081   .     S
C262   C264    1.392   .     A
C262   H274    1.081   .     S
C263   C269    1.418   .     A
C263   C265    1.419   .     A
C264   C266    1.419   .     A
C264   C270    1.418   .     A
C265   C267    1.411   .     A
C265   C806    1.394   .     S
C266   C268    1.411   .     A
C266   C805    1.394   1_554 S
C269   O297    1.379   .     S
C269   C783    1.388   .     S
C270   O299    1.379   .     S
C270   C784    1.388   1_554 S
N285   Zn295   2.005   .     S
N286   Zn296   2.005   .     S
O287   Zn295   2.000   .     S
O288   Zn296   2.000   .     S
O289   Zn295   2.000   .     S
O290   Zn296   2.000   .     S
O291   Zn295   2.019   .     S
O292   Zn296   2.019   .     S
O293   Zn295   2.022   .     S
O294   Zn296   2.022   .     S
O297   H298    0.989   .     S
O299   H300    0.989   .     S
C301   O350    1.281   .     A
C301   O347    1.281   .     A
C301   C310    1.419   .     S
C302   O349    1.281   .     A
C302   O348    1.281   .     A
C302   C309    1.419   .     S
C303   H335    1.084   .     S
C303   C328    1.396   .     A
C303   C869    1.388   1_554 S
C304   H336    1.084   .     S
C304   C327    1.396   .     A
C304   C870    1.388   .     S
C305   H337    1.084   .     S
C305   C310    1.397   .     A
C306   C309    1.397   .     A
C306   H338    1.084   .     S
C306   C188    1.370   1_655 S
C307   C309    1.397   .     A
C307   H339    1.084   .     S
C307   C185    1.370   1_655 S
C308   H340    1.084   .     S
C308   C310    1.397   .     A
C311   H341    1.082   .     S
C311   N346    1.366   .     A
C312   H342    1.082   .     S
C312   N345    1.366   .     A
C312   C493    1.415   .     S
C313   H343    1.082   .     S
C313   N346    1.366   .     A
C314   H344    1.082   .     S
C314   N345    1.366   .     A
C314   C491    1.415   .     S
C315   O351    1.287   .     A
C315   C320    1.440   .     S
C315   O354    1.286   .     A
C316   C319    1.440   .     S
C316   O352    1.287   .     A
C316   O353    1.286   .     A
C317   H331    1.085   .     S
C317   C319    1.394   .     A
C317   C327    1.381   .     A
C318   C328    1.381   .     A
C318   H332    1.085   .     S
C318   C320    1.394   .     A
C319   C321    1.397   .     A
C320   C322    1.397   .     A
C321   C323    1.391   .     A
C321   H333    1.081   .     S
C322   C324    1.392   .     A
C322   H334    1.081   .     S
C323   C329    1.418   .     A
C323   C325    1.419   .     A
C324   C326    1.419   .     A
C324   C330    1.418   .     A
C325   C327    1.411   .     A
C325   C866    1.394   .     S
C326   C328    1.411   .     A
C326   C865    1.394   1_554 S
C329   O357    1.379   .     S
C329   C843    1.388   .     S
C330   O359    1.379   .     S
C330   C844    1.388   1_554 S
N345   Zn355   2.005   .     S
N346   Zn356   2.005   .     S
O347   Zn355   2.000   .     S
O348   Zn356   2.000   .     S
O349   Zn355   2.000   .     S
O350   Zn356   2.000   .     S
O351   Zn355   2.019   .     S
O352   Zn356   2.019   .     S
O353   Zn355   2.022   .     S
O354   Zn356   2.022   .     S
O357   H358    0.989   .     S
O359   H360    0.989   .     S
C361   O410    1.281   .     A
C361   O407    1.281   .     A
C361   C370    1.419   .     S
C362   O409    1.281   .     A
C362   O408    1.281   .     A
C362   C369    1.419   .     S
C363   H395    1.084   .     S
C363   C388    1.396   .     A
C363   C929    1.388   1_554 S
C364   H396    1.084   .     S
C364   C387    1.396   .     A
C364   C930    1.388   .     S
C365   H397    1.084   .     S
C365   C370    1.397   .     A
C365   C487    1.370   1_455 S
C366   C369    1.397   .     A
C366   H398    1.084   .     S
C366   C428    1.370   .     S
C367   C369    1.397   .     A
C367   H399    1.084   .     S
C367   C425    1.370   .     S
C368   H400    1.084   .     S
C368   C370    1.397   .     A
C368   C486    1.370   1_455 S
C371   H401    1.082   .     S
C371   N406    1.366   .     A
C372   H402    1.082   .     S
C372   N405    1.366   .     A
C372   C13     1.415   1_565 S
C373   H403    1.082   .     S
C373   N406    1.366   .     A
C374   H404    1.082   .     S
C374   N405    1.366   .     A
C374   C11     1.415   1_565 S
C375   O411    1.287   .     A
C375   C380    1.440   .     S
C375   O414    1.286   .     A
C376   C379    1.440   .     S
C376   O412    1.287   .     A
C376   O413    1.286   .     A
C377   H391    1.085   .     S
C377   C379    1.394   .     A
C377   C387    1.381   .     A
C378   C388    1.381   .     A
C378   H392    1.085   .     S
C378   C380    1.394   .     A
C379   C381    1.397   .     A
C380   C382    1.397   .     A
C381   C383    1.391   .     A
C381   H393    1.081   .     S
C382   C384    1.392   .     A
C382   H394    1.081   .     S
C383   C389    1.418   .     A
C383   C385    1.419   .     A
C384   C386    1.419   .     A
C384   C390    1.418   .     A
C385   C387    1.411   .     A
C385   C926    1.394   .     S
C386   C388    1.411   .     A
C386   C925    1.394   1_554 S
C389   O417    1.379   .     S
C389   C903    1.388   .     S
C390   O419    1.379   .     S
C390   C904    1.388   1_554 S
N405   Zn415   2.005   .     S
N406   Zn416   2.005   .     S
O407   Zn415   2.000   .     S
O408   Zn416   2.000   .     S
O409   Zn415   2.000   .     S
O410   Zn416   2.000   .     S
O411   Zn415   2.019   .     S
O412   Zn416   2.019   .     S
O413   Zn415   2.022   .     S
O414   Zn416   2.022   .     S
O417   H418    0.989   .     S
O419   H420    0.989   .     S
C421   O470    1.281   .     A
C421   O467    1.281   .     A
C421   C430    1.419   .     S
C422   O469    1.281   .     A
C422   O468    1.281   .     A
C422   C429    1.419   .     S
C423   H455    1.084   .     S
C423   C448    1.396   .     A
C423   C989    1.388   1_554 S
C424   H456    1.084   .     S
C424   C447    1.396   .     A
C424   C990    1.388   .     S
C425   H457    1.084   .     S
C425   C430    1.397   .     A
C426   C429    1.397   .     A
C426   H458    1.084   .     S
C426   C488    1.370   .     S
C427   C429    1.397   .     A
C427   H459    1.084   .     S
C427   C485    1.370   .     S
C428   H460    1.084   .     S
C428   C430    1.397   .     A
C431   H461    1.082   .     S
C431   N466    1.366   .     A
C432   H462    1.082   .     S
C432   N465    1.366   .     A
C432   C73     1.415   1_565 S
C433   H463    1.082   .     S
C433   N466    1.366   .     A
C434   H464    1.082   .     S
C434   N465    1.366   .     A
C434   C71     1.415   1_565 S
C435   O471    1.287   .     A
C435   C440    1.440   .     S
C435   O474    1.286   .     A
C436   C439    1.440   .     S
C436   O472    1.287   .     A
C436   O473    1.286   .     A
C437   H451    1.085   .     S
C437   C439    1.394   .     A
C437   C447    1.381   .     A
C438   C448    1.381   .     A
C438   H452    1.085   .     S
C438   C440    1.394   .     A
C439   C441    1.397   .     A
C440   C442    1.397   .     A
C441   C443    1.391   .     A
C441   H453    1.081   .     S
C442   C444    1.392   .     A
C442   H454    1.081   .     S
C443   C449    1.418   .     A
C443   C445    1.419   .     A
C444   C446    1.419   .     A
C444   C450    1.418   .     A
C445   C447    1.411   .     A
C445   C986    1.394   .     S
C446   C448    1.411   .     A
C446   C985    1.394   1_554 S
C449   O477    1.379   .     S
C449   C963    1.388   .     S
C450   O479    1.379   .     S
C450   C964    1.388   1_554 S
N465   Zn475   2.005   .     S
N466   Zn476   2.005   .     S
O467   Zn475   2.000   .     S
O468   Zn476   2.000   .     S
O469   Zn475   2.000   .     S
O470   Zn476   2.000   .     S
O471   Zn475   2.019   .     S
O472   Zn476   2.019   .     S
O473   Zn475   2.022   .     S
O474   Zn476   2.022   .     S
O477   H478    0.989   .     S
O479   H480    0.989   .     S
C481   O530    1.281   .     A
C481   O527    1.281   .     A
C481   C490    1.419   .     S
C482   O529    1.281   .     A
C482   O528    1.281   .     A
C482   C489    1.419   .     S
C483   H515    1.084   .     S
C483   C508    1.396   .     A
C483   C1049   1.388   1_554 S
C484   H516    1.084   .     S
C484   C507    1.396   .     A
C484   C1050   1.388   .     S
C485   H517    1.084   .     S
C485   C490    1.397   .     A
C486   C489    1.397   .     A
C486   H518    1.084   .     S
C486   C368    1.370   1_655 S
C487   C489    1.397   .     A
C487   H519    1.084   .     S
C487   C365    1.370   1_655 S
C488   H520    1.084   .     S
C488   C490    1.397   .     A
C491   H521    1.082   .     S
C491   N526    1.366   .     A
C492   H522    1.082   .     S
C492   N525    1.366   .     A
C492   C133    1.415   1_565 S
C493   H523    1.082   .     S
C493   N526    1.366   .     A
C494   H524    1.082   .     S
C494   N525    1.366   .     A
C494   C131    1.415   1_565 S
C495   O531    1.287   .     A
C495   C500    1.440   .     S
C495   O534    1.286   .     A
C496   C499    1.440   .     S
C496   O532    1.287   .     A
C496   O533    1.286   .     A
C497   H511    1.085   .     S
C497   C499    1.394   .     A
C497   C507    1.381   .     A
C498   C508    1.381   .     A
C498   H512    1.085   .     S
C498   C500    1.394   .     A
C499   C501    1.397   .     A
C500   C502    1.397   .     A
C501   C503    1.391   .     A
C501   H513    1.081   .     S
C502   C504    1.392   .     A
C502   H514    1.081   .     S
C503   C509    1.418   .     A
C503   C505    1.419   .     A
C504   C506    1.419   .     A
C504   C510    1.418   .     A
C505   C507    1.411   .     A
C505   C1046   1.394   .     S
C506   C508    1.411   .     A
C506   C1045   1.394   1_554 S
C509   O537    1.379   .     S
C509   C1023   1.388   .     S
C510   O539    1.379   .     S
C510   C1024   1.388   1_554 S
N525   Zn535   2.005   .     S
N526   Zn536   2.005   .     S
O527   Zn535   2.000   .     S
O528   Zn536   2.000   .     S
O529   Zn535   2.000   .     S
O530   Zn536   2.000   .     S
O531   Zn535   2.019   .     S
O532   Zn536   2.019   .     S
O533   Zn535   2.022   .     S
O534   Zn536   2.022   .     S
O537   H538    0.989   .     S
O539   H540    0.989   .     S
C541   O590    1.281   .     A
C541   O587    1.281   .     A
C541   C550    1.419   .     S
C542   O589    1.281   .     A
C542   O588    1.281   .     A
C542   C549    1.419   .     S
C543   H575    1.084   .     S
C543   C568    1.396   .     A
C544   H576    1.084   .     S
C544   C567    1.396   .     A
C544   C30     1.388   1_556 S
C545   H577    1.084   .     S
C545   C550    1.397   .     A
C545   C667    1.370   1_455 S
C546   C549    1.397   .     A
C546   H578    1.084   .     S
C546   C608    1.370   .     S
C547   C549    1.397   .     A
C547   H579    1.084   .     S
C547   C605    1.370   .     S
C548   H580    1.084   .     S
C548   C550    1.397   .     A
C548   C666    1.370   1_455 S
C551   H581    1.082   .     S
C551   N586    1.366   .     A
C551   C914    1.415   1_545 S
C552   H582    1.082   .     S
C552   N585    1.366   .     A
C552   C733    1.415   .     S
C553   H583    1.082   .     S
C553   N586    1.366   .     A
C553   C912    1.415   1_545 S
C554   H584    1.082   .     S
C554   N585    1.366   .     A
C554   C731    1.415   .     S
C555   O591    1.287   .     A
C555   C560    1.440   .     S
C555   O594    1.286   .     A
C556   C559    1.440   .     S
C556   O592    1.287   .     A
C556   O593    1.286   .     A
C557   H571    1.085   .     S
C557   C559    1.394   .     A
C557   C567    1.381   .     A
C558   C568    1.381   .     A
C558   H572    1.085   .     S
C558   C560    1.394   .     A
C559   C561    1.397   .     A
C560   C562    1.397   .     A
C561   C563    1.391   .     A
C561   H573    1.081   .     S
C562   C564    1.392   .     A
C562   H574    1.081   .     S
C563   C569    1.418   .     A
C563   C565    1.419   .     A
C564   C566    1.419   .     A
C564   C570    1.418   .     A
C565   C567    1.411   .     A
C565   C26     1.394   1_556 S
C566   C568    1.411   .     A
C569   O597    1.379   .     S
C569   C3      1.388   1_556 S
C570   O599    1.379   .     S
N585   Zn595   2.005   .     S
N586   Zn596   2.005   .     S
O587   Zn595   2.000   .     S
O588   Zn596   2.000   .     S
O589   Zn595   2.000   .     S
O590   Zn596   2.000   .     S
O591   Zn595   2.019   .     S
O592   Zn596   2.019   .     S
O593   Zn595   2.022   .     S
O594   Zn596   2.022   .     S
O597   H598    0.989   .     S
O599   H600    0.989   .     S
C601   O650    1.281   .     A
C601   O647    1.281   .     A
C601   C610    1.419   .     S
C602   O649    1.281   .     A
C602   O648    1.281   .     A
C602   C609    1.419   .     S
C603   H635    1.084   .     S
C603   C628    1.396   .     A
C604   H636    1.084   .     S
C604   C627    1.396   .     A
C604   C90     1.388   1_556 S
C605   H637    1.084   .     S
C605   C610    1.397   .     A
C606   C609    1.397   .     A
C606   H638    1.084   .     S
C606   C668    1.370   .     S
C607   C609    1.397   .     A
C607   H639    1.084   .     S
C607   C665    1.370   .     S
C608   H640    1.084   .     S
C608   C610    1.397   .     A
C611   H641    1.082   .     S
C611   N646    1.366   .     A
C611   C974    1.415   1_545 S
C612   H642    1.082   .     S
C612   N645    1.366   .     A
C612   C793    1.415   .     S
C613   H643    1.082   .     S
C613   N646    1.366   .     A
C613   C972    1.415   1_545 S
C614   H644    1.082   .     S
C614   N645    1.366   .     A
C614   C791    1.415   .     S
C615   O651    1.287   .     A
C615   C620    1.440   .     S
C615   O654    1.286   .     A
C616   C619    1.440   .     S
C616   O652    1.287   .     A
C616   O653    1.286   .     A
C617   H631    1.085   .     S
C617   C619    1.394   .     A
C617   C627    1.381   .     A
C618   C628    1.381   .     A
C618   H632    1.085   .     S
C618   C620    1.394   .     A
C619   C621    1.397   .     A
C620   C622    1.397   .     A
C621   C623    1.391   .     A
C621   H633    1.081   .     S
C622   C624    1.392   .     A
C622   H634    1.081   .     S
C623   C629    1.418   .     A
C623   C625    1.419   .     A
C624   C626    1.419   .     A
C624   C630    1.418   .     A
C625   C627    1.411   .     A
C625   C86     1.394   1_556 S
C626   C628    1.411   .     A
C629   O657    1.379   .     S
C629   C63     1.388   1_556 S
C630   O659    1.379   .     S
N645   Zn655   2.005   .     S
N646   Zn656   2.005   .     S
O647   Zn655   2.000   .     S
O648   Zn656   2.000   .     S
O649   Zn655   2.000   .     S
O650   Zn656   2.000   .     S
O651   Zn655   2.019   .     S
O652   Zn656   2.019   .     S
O653   Zn655   2.022   .     S
O654   Zn656   2.022   .     S
O657   H658    0.989   .     S
O659   H660    0.989   .     S
C661   O710    1.281   .     A
C661   O707    1.281   .     A
C661   C670    1.419   .     S
C662   O709    1.281   .     A
C662   O708    1.281   .     A
C662   C669    1.419   .     S
C663   H695    1.084   .     S
C663   C688    1.396   .     A
C664   H696    1.084   .     S
C664   C687    1.396   .     A
C664   C150    1.388   1_556 S
C665   H697    1.084   .     S
C665   C670    1.397   .     A
C666   C669    1.397   .     A
C666   H698    1.084   .     S
C666   C548    1.370   1_655 S
C667   C669    1.397   .     A
C667   H699    1.084   .     S
C667   C545    1.370   1_655 S
C668   H700    1.084   .     S
C668   C670    1.397   .     A
C671   H701    1.082   .     S
C671   N706    1.366   .     A
C671   C1034   1.415   1_545 S
C672   H702    1.082   .     S
C672   N705    1.366   .     A
C672   C853    1.415   .     S
C673   H703    1.082   .     S
C673   N706    1.366   .     A
C673   C1032   1.415   1_545 S
C674   H704    1.082   .     S
C674   N705    1.366   .     A
C674   C851    1.415   .     S
C675   O711    1.287   .     A
C675   C680    1.440   .     S
C675   O714    1.286   .     A
C676   C679    1.440   .     S
C676   O712    1.287   .     A
C676   O713    1.286   .     A
C677   H691    1.085   .     S
C677   C679    1.394   .     A
C677   C687    1.381   .     A
C678   C688    1.381   .     A
C678   H692    1.085   .     S
C678   C680    1.394   .     A
C679   C681    1.397   .     A
C680   C682    1.397   .     A
C681   C683    1.391   .     A
C681   H693    1.081   .     S
C682   C684    1.392   .     A
C682   H694    1.081   .     S
C683   C689    1.418   .     A
C683   C685    1.419   .     A
C684   C686    1.419   .     A
C684   C690    1.418   .     A
C685   C687    1.411   .     A
C685   C146    1.394   1_556 S
C686   C688    1.411   .     A
C689   O717    1.379   .     S
C689   C123    1.388   1_556 S
C690   O719    1.379   .     S
N705   Zn715   2.005   .     S
N706   Zn716   2.005   .     S
O707   Zn715   2.000   .     S
O708   Zn716   2.000   .     S
O709   Zn715   2.000   .     S
O710   Zn716   2.000   .     S
O711   Zn715   2.019   .     S
O712   Zn716   2.019   .     S
O713   Zn715   2.022   .     S
O714   Zn716   2.022   .     S
O717   H718    0.989   .     S
O719   H720    0.989   .     S
C721   O770    1.281   .     A
C721   O767    1.281   .     A
C721   C730    1.419   .     S
C722   O769    1.281   .     A
C722   O768    1.281   .     A
C722   C729    1.419   .     S
C723   H755    1.084   .     S
C723   C748    1.396   .     A
C724   H756    1.084   .     S
C724   C747    1.396   .     A
C724   C210    1.388   1_556 S
C725   H757    1.084   .     S
C725   C730    1.397   .     A
C725   C847    1.370   1_455 S
C726   C729    1.397   .     A
C726   H758    1.084   .     S
C726   C788    1.370   .     S
C727   C729    1.397   .     A
C727   H759    1.084   .     S
C727   C785    1.370   .     S
C728   H760    1.084   .     S
C728   C730    1.397   .     A
C728   C846    1.370   1_455 S
C731   H761    1.082   .     S
C731   N766    1.366   .     A
C732   H762    1.082   .     S
C732   N765    1.366   .     A
C732   C913    1.415   .     S
C733   H763    1.082   .     S
C733   N766    1.366   .     A
C734   H764    1.082   .     S
C734   N765    1.366   .     A
C734   C911    1.415   .     S
C735   O771    1.287   .     A
C735   C740    1.440   .     S
C735   O774    1.286   .     A
C736   C739    1.440   .     S
C736   O772    1.287   .     A
C736   O773    1.286   .     A
C737   H751    1.085   .     S
C737   C739    1.394   .     A
C737   C747    1.381   .     A
C738   C748    1.381   .     A
C738   H752    1.085   .     S
C738   C740    1.394   .     A
C739   C741    1.397   .     A
C740   C742    1.397   .     A
C741   C743    1.391   .     A
C741   H753    1.081   .     S
C742   C744    1.392   .     A
C742   H754    1.081   .     S
C743   C749    1.418   .     A
C743   C745    1.419   .     A
C744   C746    1.419   .     A
C744   C750    1.418   .     A
C745   C747    1.411   .     A
C745   C206    1.394   1_556 S
C746   C748    1.411   .     A
C749   O777    1.379   .     S
C749   C183    1.388   1_556 S
C750   O779    1.379   .     S
N765   Zn775   2.005   .     S
N766   Zn776   2.005   .     S
O767   Zn775   2.000   .     S
O768   Zn776   2.000   .     S
O769   Zn775   2.000   .     S
O770   Zn776   2.000   .     S
O771   Zn775   2.019   .     S
O772   Zn776   2.019   .     S
O773   Zn775   2.022   .     S
O774   Zn776   2.022   .     S
O777   H778    0.989   .     S
O779   H780    0.989   .     S
C781   O830    1.281   .     A
C781   O827    1.281   .     A
C781   C790    1.419   .     S
C782   O829    1.281   .     A
C782   O828    1.281   .     A
C782   C789    1.419   .     S
C783   H815    1.084   .     S
C783   C808    1.396   .     A
C784   H816    1.084   .     S
C784   C807    1.396   .     A
C784   C270    1.388   1_556 S
C785   H817    1.084   .     S
C785   C790    1.397   .     A
C786   C789    1.397   .     A
C786   H818    1.084   .     S
C786   C848    1.370   .     S
C787   C789    1.397   .     A
C787   H819    1.084   .     S
C787   C845    1.370   .     S
C788   H820    1.084   .     S
C788   C790    1.397   .     A
C791   H821    1.082   .     S
C791   N826    1.366   .     A
C792   H822    1.082   .     S
C792   N825    1.366   .     A
C792   C973    1.415   .     S
C793   H823    1.082   .     S
C793   N826    1.366   .     A
C794   H824    1.082   .     S
C794   N825    1.366   .     A
C794   C971    1.415   .     S
C795   O831    1.287   .     A
C795   C800    1.440   .     S
C795   O834    1.286   .     A
C796   C799    1.440   .     S
C796   O832    1.287   .     A
C796   O833    1.286   .     A
C797   H811    1.085   .     S
C797   C799    1.394   .     A
C797   C807    1.381   .     A
C798   C808    1.381   .     A
C798   H812    1.085   .     S
C798   C800    1.394   .     A
C799   C801    1.397   .     A
C800   C802    1.397   .     A
C801   C803    1.391   .     A
C801   H813    1.081   .     S
C802   C804    1.392   .     A
C802   H814    1.081   .     S
C803   C809    1.418   .     A
C803   C805    1.419   .     A
C804   C806    1.419   .     A
C804   C810    1.418   .     A
C805   C807    1.411   .     A
C805   C266    1.394   1_556 S
C806   C808    1.411   .     A
C809   O837    1.379   .     S
C809   C243    1.388   1_556 S
C810   O839    1.379   .     S
N825   Zn835   2.005   .     S
N826   Zn836   2.005   .     S
O827   Zn835   2.000   .     S
O828   Zn836   2.000   .     S
O829   Zn835   2.000   .     S
O830   Zn836   2.000   .     S
O831   Zn835   2.019   .     S
O832   Zn836   2.019   .     S
O833   Zn835   2.022   .     S
O834   Zn836   2.022   .     S
O837   H838    0.989   .     S
O839   H840    0.989   .     S
C841   O890    1.281   .     A
C841   O887    1.281   .     A
C841   C850    1.419   .     S
C842   O889    1.281   .     A
C842   O888    1.281   .     A
C842   C849    1.419   .     S
C843   H875    1.084   .     S
C843   C868    1.396   .     A
C844   H876    1.084   .     S
C844   C867    1.396   .     A
C844   C330    1.388   1_556 S
C845   H877    1.084   .     S
C845   C850    1.397   .     A
C846   C849    1.397   .     A
C846   H878    1.084   .     S
C846   C728    1.370   1_655 S
C847   C849    1.397   .     A
C847   H879    1.084   .     S
C847   C725    1.370   1_655 S
C848   H880    1.084   .     S
C848   C850    1.397   .     A
C851   H881    1.082   .     S
C851   N886    1.366   .     A
C852   H882    1.082   .     S
C852   N885    1.366   .     A
C852   C1033   1.415   .     S
C853   H883    1.082   .     S
C853   N886    1.366   .     A
C854   H884    1.082   .     S
C854   N885    1.366   .     A
C854   C1031   1.415   .     S
C855   O891    1.287   .     A
C855   C860    1.440   .     S
C855   O894    1.286   .     A
C856   C859    1.440   .     S
C856   O892    1.287   .     A
C856   O893    1.286   .     A
C857   H871    1.085   .     S
C857   C859    1.394   .     A
C857   C867    1.381   .     A
C858   C868    1.381   .     A
C858   H872    1.085   .     S
C858   C860    1.394   .     A
C859   C861    1.397   .     A
C860   C862    1.397   .     A
C861   C863    1.391   .     A
C861   H873    1.081   .     S
C862   C864    1.392   .     A
C862   H874    1.081   .     S
C863   C869    1.418   .     A
C863   C865    1.419   .     A
C864   C866    1.419   .     A
C864   C870    1.418   .     A
C865   C867    1.411   .     A
C865   C326    1.394   1_556 S
C866   C868    1.411   .     A
C869   O897    1.379   .     S
C869   C303    1.388   1_556 S
C870   O899    1.379   .     S
N885   Zn895   2.005   .     S
N886   Zn896   2.005   .     S
O887   Zn895   2.000   .     S
O888   Zn896   2.000   .     S
O889   Zn895   2.000   .     S
O890   Zn896   2.000   .     S
O891   Zn895   2.019   .     S
O892   Zn896   2.019   .     S
O893   Zn895   2.022   .     S
O894   Zn896   2.022   .     S
O897   H898    0.989   .     S
O899   H900    0.989   .     S
C901   O950    1.281   .     A
C901   O947    1.281   .     A
C901   C910    1.419   .     S
C902   O949    1.281   .     A
C902   O948    1.281   .     A
C902   C909    1.419   .     S
C903   H935    1.084   .     S
C903   C928    1.396   .     A
C904   H936    1.084   .     S
C904   C927    1.396   .     A
C904   C390    1.388   1_556 S
C905   H937    1.084   .     S
C905   C910    1.397   .     A
C905   C1027   1.370   1_455 S
C906   C909    1.397   .     A
C906   H938    1.084   .     S
C906   C968    1.370   .     S
C907   C909    1.397   .     A
C907   H939    1.084   .     S
C907   C965    1.370   .     S
C908   H940    1.084   .     S
C908   C910    1.397   .     A
C908   C1026   1.370   1_455 S
C911   H941    1.082   .     S
C911   N946    1.366   .     A
C912   H942    1.082   .     S
C912   N945    1.366   .     A
C912   C553    1.415   1_565 S
C913   H943    1.082   .     S
C913   N946    1.366   .     A
C914   H944    1.082   .     S
C914   N945    1.366   .     A
C914   C551    1.415   1_565 S
C915   O951    1.287   .     A
C915   C920    1.440   .     S
C915   O954    1.286   .     A
C916   C919    1.440   .     S
C916   O952    1.287   .     A
C916   O953    1.286   .     A
C917   H931    1.085   .     S
C917   C919    1.394   .     A
C917   C927    1.381   .     A
C918   C928    1.381   .     A
C918   H932    1.085   .     S
C918   C920    1.394   .     A
C919   C921    1.397   .     A
C920   C922    1.397   .     A
C921   C923    1.391   .     A
C921   H933    1.081   .     S
C922   C924    1.392   .     A
C922   H934    1.081   .     S
C923   C929    1.418   .     A
C923   C925    1.419   .     A
C924   C926    1.419   .     A
C924   C930    1.418   .     A
C925   C927    1.411   .     A
C925   C386    1.394   1_556 S
C926   C928    1.411   .     A
C929   O957    1.379   .     S
C929   C363    1.388   1_556 S
C930   O959    1.379   .     S
N945   Zn955   2.005   .     S
N946   Zn956   2.005   .     S
O947   Zn955   2.000   .     S
O948   Zn956   2.000   .     S
O949   Zn955   2.000   .     S
O950   Zn956   2.000   .     S
O951   Zn955   2.019   .     S
O952   Zn956   2.019   .     S
O953   Zn955   2.022   .     S
O954   Zn956   2.022   .     S
O957   H958    0.989   .     S
O959   H960    0.989   .     S
C961   O1010   1.281   .     A
C961   O1007   1.281   .     A
C961   C970    1.419   .     S
C962   O1009   1.281   .     A
C962   O1008   1.281   .     A
C962   C969    1.419   .     S
C963   H995    1.084   .     S
C963   C988    1.396   .     A
C964   H996    1.084   .     S
C964   C987    1.396   .     A
C964   C450    1.388   1_556 S
C965   H997    1.084   .     S
C965   C970    1.397   .     A
C966   C969    1.397   .     A
C966   H998    1.084   .     S
C966   C1028   1.370   .     S
C967   C969    1.397   .     A
C967   H999    1.084   .     S
C967   C1025   1.370   .     S
C968   H1000   1.084   .     S
C968   C970    1.397   .     A
C971   H1001   1.082   .     S
C971   N1006   1.366   .     A
C972   H1002   1.082   .     S
C972   N1005   1.366   .     A
C972   C613    1.415   1_565 S
C973   H1003   1.082   .     S
C973   N1006   1.366   .     A
C974   H1004   1.082   .     S
C974   N1005   1.366   .     A
C974   C611    1.415   1_565 S
C975   O1011   1.287   .     A
C975   C980    1.440   .     S
C975   O1014   1.286   .     A
C976   C979    1.440   .     S
C976   O1012   1.287   .     A
C976   O1013   1.286   .     A
C977   H991    1.085   .     S
C977   C979    1.394   .     A
C977   C987    1.381   .     A
C978   C988    1.381   .     A
C978   H992    1.085   .     S
C978   C980    1.394   .     A
C979   C981    1.397   .     A
C980   C982    1.397   .     A
C981   C983    1.391   .     A
C981   H993    1.081   .     S
C982   C984    1.392   .     A
C982   H994    1.081   .     S
C983   C989    1.418   .     A
C983   C985    1.419   .     A
C984   C986    1.419   .     A
C984   C990    1.418   .     A
C985   C987    1.411   .     A
C985   C446    1.394   1_556 S
C986   C988    1.411   .     A
C989   O1017   1.379   .     S
C989   C423    1.388   1_556 S
C990   O1019   1.379   .     S
N1005  Zn1015  2.005   .     S
N1006  Zn1016  2.005   .     S
O1007  Zn1015  2.000   .     S
O1008  Zn1016  2.000   .     S
O1009  Zn1015  2.000   .     S
O1010  Zn1016  2.000   .     S
O1011  Zn1015  2.019   .     S
O1012  Zn1016  2.019   .     S
O1013  Zn1015  2.022   .     S
O1014  Zn1016  2.022   .     S
O1017  H1018   0.989   .     S
O1019  H1020   0.989   .     S
C1021  O1070   1.281   .     A
C1021  O1067   1.281   .     A
C1021  C1030   1.419   .     S
C1022  O1069   1.281   .     A
C1022  O1068   1.281   .     A
C1022  C1029   1.419   .     S
C1023  H1055   1.084   .     S
C1023  C1048   1.396   .     A
C1024  H1056   1.084   .     S
C1024  C1047   1.396   .     A
C1024  C510    1.388   1_556 S
C1025  H1057   1.084   .     S
C1025  C1030   1.397   .     A
C1026  C1029   1.397   .     A
C1026  H1058   1.084   .     S
C1026  C908    1.370   1_655 S
C1027  C1029   1.397   .     A
C1027  H1059   1.084   .     S
C1027  C905    1.370   1_655 S
C1028  H1060   1.084   .     S
C1028  C1030   1.397   .     A
C1031  H1061   1.082   .     S
C1031  N1066   1.366   .     A
C1032  H1062   1.082   .     S
C1032  N1065   1.366   .     A
C1032  C673    1.415   1_565 S
C1033  H1063   1.082   .     S
C1033  N1066   1.366   .     A
C1034  H1064   1.082   .     S
C1034  N1065   1.366   .     A
C1034  C671    1.415   1_565 S
C1035  O1071   1.287   .     A
C1035  C1040   1.440   .     S
C1035  O1074   1.286   .     A
C1036  C1039   1.440   .     S
C1036  O1072   1.287   .     A
C1036  O1073   1.286   .     A
C1037  H1051   1.085   .     S
C1037  C1039   1.394   .     A
C1037  C1047   1.381   .     A
C1038  C1048   1.381   .     A
C1038  H1052   1.085   .     S
C1038  C1040   1.394   .     A
C1039  C1041   1.397   .     A
C1040  C1042   1.397   .     A
C1041  C1043   1.391   .     A
C1041  H1053   1.081   .     S
C1042  C1044   1.392   .     A
C1042  H1054   1.081   .     S
C1043  C1049   1.418   .     A
C1043  C1045   1.419   .     A
C1044  C1046   1.419   .     A
C1044  C1050   1.418   .     A
C1045  C1047   1.411   .     A
C1045  C506    1.394   1_556 S
C1046  C1048   1.411   .     A
C1049  O1077   1.379   .     S
C1049  C483    1.388   1_556 S
C1050  O1079   1.379   .     S
N1065  Zn1075  2.005   .     S
N1066  Zn1076  2.005   .     S
O1067  Zn1075  2.000   .     S
O1068  Zn1076  2.000   .     S
O1069  Zn1075  2.000   .     S
O1070  Zn1076  2.000   .     S
O1071  Zn1075  2.019   .     S
O1072  Zn1076  2.019   .     S
O1073  Zn1075  2.022   .     S
O1074  Zn1076  2.022   .     S
O1077  H1078   0.989   .     S
O1079  H1080   0.989   .     S
