data_str_m3_o1_o16_pcu_sym.27
_audit_creation_date              2020-01-03
_audit_creation_method            'Materials Studio'
_symmetry_space_group_name_H-M    'P1'
_symmetry_Int_Tables_number       1
_symmetry_cell_setting            triclinic
loop_
_symmetry_equiv_pos_as_xyz
  x,y,z
_cell_length_a                    29.5969
_cell_length_b                    31.9963
_cell_length_c                    26.2330
_cell_angle_alpha                 90.4328
_cell_angle_beta                  70.1777
_cell_angle_gamma                 90.0828
loop_
_atom_site_label
_atom_site_type_symbol
_atom_site_fract_x
_atom_site_fract_y
_atom_site_fract_z
_atom_site_U_iso_or_equiv
_atom_site_adp_type
_atom_site_occupancy
Br1    Br    0.07642   0.10086   0.16912   0.00000  Uiso   1.00
Br2    Br    0.28852   0.08480   0.38968   0.00000  Uiso   1.00
C3     C     0.16666   0.24662   0.25010   0.00000  Uiso   1.00
C4     C     0.12291   0.15864   0.41066   0.00000  Uiso   1.00
C5     C     0.20824   0.31213   0.22400   0.00000  Uiso   1.00
C6     C     0.14011   0.16393   0.35195   0.00000  Uiso   1.00
C7     C     0.20777   0.02159   0.22519   0.00000  Uiso   1.00
C8     C     0.16553   0.04257   0.25481   0.00000  Uiso   1.00
C9     C     0.12351   0.02087   0.28500   0.00000  Uiso   1.00
C10    C     0.12394   0.31130   0.28150   0.00000  Uiso   1.00
C11    C     0.16620   0.29071   0.25151   0.00000  Uiso   1.00
C12    C     0.31891   0.14017   0.21699   0.00000  Uiso   1.00
C13    C     0.03335   0.13996   0.21688   0.00000  Uiso   1.00
C14    C     0.14379   0.15390   0.49201   0.00000  Uiso   1.00
C15    C     0.01405   0.19312   0.28326   0.00000  Uiso   1.00
C16    C     0.29947   0.19309   0.28326   0.00000  Uiso   1.00
C17    C     0.16610   0.08673   0.25184   0.00000  Uiso   1.00
C18    C     0.19329   0.16638   0.14784   0.00000  Uiso   1.00
C19    C     0.26087   0.12583   0.00848   0.00000  Uiso   1.00
C20    C     0.20930   0.16008   0.08956   0.00000  Uiso   1.00
C21    C     0.07668   0.17261   0.44130   0.00000  Uiso   1.00
C22    C     0.06307   0.17523   0.49733   0.00000  Uiso   1.00
C23    C     0.09652   0.16711   0.02262   0.00000  Uiso   1.00
C24    C     0.15437   0.14424   0.43691   0.00000  Uiso   1.00
C25    C     0.18094   0.15020   0.01417   0.00000  Uiso   1.00
C26    C     0.22498   0.13001   0.48466   0.00000  Uiso   1.00
C27    C     0.23155   0.11426   0.43256   0.00000  Uiso   1.00
C28    C     0.19638   0.12118   0.40939   0.00000  Uiso   1.00
C29    C     0.17581   0.16767   0.06445   0.00000  Uiso   1.00
C30    C     0.25258   0.14002   0.06127   0.00000  Uiso   1.00
H31    H     0.27896   0.13388   0.08055   0.00000  Uiso   1.00
H32    H     0.08418   0.17035   0.06617   0.00000  Uiso   1.00
H33    H     0.02715   0.18542   0.02104   0.00000  Uiso   1.00
H34    H     0.20214   0.10783   0.36969   0.00000  Uiso   1.00
H35    H     0.24088   0.29581   0.20072   0.00000  Uiso   1.00
H36    H     0.09110   0.06679   0.33196   0.00000  Uiso   1.00
H37    H     0.24005   0.03830   0.20213   0.00000  Uiso   1.00
H38    H     0.09192   0.29398   0.30392   0.00000  Uiso   1.00
H39    H     0.30832   0.11905   0.19065   0.00000  Uiso   1.00
H40    H     0.02421   0.21429   0.30986   0.00000  Uiso   1.00
H41    H     0.27343   0.21426   0.30989   0.00000  Uiso   1.00
H42    H     0.29467   0.11046   0.48751   0.00000  Uiso   1.00
H43    H     0.14492   0.18656   0.08586   0.00000  Uiso   1.00
H44    H     0.05155   0.18254   0.42189   0.00000  Uiso   1.00
N45    N     0.04760   0.16668   0.25001   0.00000  Uiso   1.00
N46    N     0.28573   0.16665   0.25000   0.00000  Uiso   1.00
O47    O     0.12846   0.22775   0.25000   0.00000  Uiso   1.00
O48    O     0.20490   0.22774   0.25000   0.00000  Uiso   1.00
O49    O     0.10947   0.16666   0.32681   0.00000  Uiso   1.00
O50    O     0.18591   0.16665   0.32681   0.00000  Uiso   1.00
O51    O     0.12843   0.10559   0.24999   0.00000  Uiso   1.00
O52    O     0.20488   0.10558   0.24999   0.00000  Uiso   1.00
O53    O     0.14742   0.16668   0.17319   0.00000  Uiso   1.00
O54    O     0.22387   0.16667   0.17319   0.00000  Uiso   1.00
O55    O     0.08229   0.04000   0.31868   0.00000  Uiso   1.00
Zn56   Zn    0.11562   0.16667   0.25000   0.00000  Uiso   1.00
Zn57   Zn    0.21771   0.16666   0.25000   0.00000  Uiso   1.00
Br58   Br    0.40975   0.10086   0.16912   0.00000  Uiso   1.00
Br59   Br    0.62186   0.08480   0.38968   0.00000  Uiso   1.00
C60    C     0.49999   0.24662   0.25010   0.00000  Uiso   1.00
C61    C     0.45624   0.15864   0.41066   0.00000  Uiso   1.00
C62    C     0.54158   0.31213   0.22400   0.00000  Uiso   1.00
C63    C     0.47344   0.16393   0.35195   0.00000  Uiso   1.00
C64    C     0.54111   0.02159   0.22519   0.00000  Uiso   1.00
C65    C     0.49887   0.04257   0.25481   0.00000  Uiso   1.00
C66    C     0.45684   0.02087   0.28500   0.00000  Uiso   1.00
C67    C     0.45727   0.31130   0.28150   0.00000  Uiso   1.00
C68    C     0.49954   0.29071   0.25151   0.00000  Uiso   1.00
C69    C     0.65224   0.14017   0.21699   0.00000  Uiso   1.00
C70    C     0.36668   0.13996   0.21688   0.00000  Uiso   1.00
C71    C     0.47712   0.15390   0.49201   0.00000  Uiso   1.00
C72    C     0.34739   0.19312   0.28326   0.00000  Uiso   1.00
C73    C     0.63280   0.19309   0.28326   0.00000  Uiso   1.00
C74    C     0.49944   0.08673   0.25184   0.00000  Uiso   1.00
C75    C     0.52662   0.16638   0.14784   0.00000  Uiso   1.00
C76    C     0.59420   0.12583   0.00848   0.00000  Uiso   1.00
C77    C     0.54263   0.16008   0.08956   0.00000  Uiso   1.00
C78    C     0.41002   0.17261   0.44130   0.00000  Uiso   1.00
C79    C     0.39640   0.17523   0.49733   0.00000  Uiso   1.00
C80    C     0.42986   0.16711   0.02262   0.00000  Uiso   1.00
C81    C     0.48771   0.14424   0.43691   0.00000  Uiso   1.00
C82    C     0.51427   0.15020   0.01417   0.00000  Uiso   1.00
C83    C     0.55831   0.13001   0.48466   0.00000  Uiso   1.00
C84    C     0.56488   0.11426   0.43256   0.00000  Uiso   1.00
C85    C     0.52971   0.12118   0.40939   0.00000  Uiso   1.00
C86    C     0.50914   0.16767   0.06445   0.00000  Uiso   1.00
C87    C     0.58591   0.14002   0.06127   0.00000  Uiso   1.00
H88    H     0.61229   0.13388   0.08055   0.00000  Uiso   1.00
H89    H     0.41752   0.17035   0.06617   0.00000  Uiso   1.00
H90    H     0.36049   0.18542   0.02104   0.00000  Uiso   1.00
H91    H     0.53547   0.10783   0.36969   0.00000  Uiso   1.00
H92    H     0.57421   0.29581   0.20072   0.00000  Uiso   1.00
H93    H     0.42443   0.06679   0.33196   0.00000  Uiso   1.00
H94    H     0.57339   0.03830   0.20213   0.00000  Uiso   1.00
H95    H     0.42526   0.29398   0.30392   0.00000  Uiso   1.00
H96    H     0.64166   0.11905   0.19065   0.00000  Uiso   1.00
H97    H     0.35754   0.21429   0.30986   0.00000  Uiso   1.00
H98    H     0.60676   0.21426   0.30989   0.00000  Uiso   1.00
H99    H     0.62800   0.11046   0.48751   0.00000  Uiso   1.00
H100   H     0.47825   0.18656   0.08586   0.00000  Uiso   1.00
H101   H     0.38488   0.18254   0.42189   0.00000  Uiso   1.00
N102   N     0.38093   0.16668   0.25001   0.00000  Uiso   1.00
N103   N     0.61906   0.16665   0.25000   0.00000  Uiso   1.00
O104   O     0.46179   0.22775   0.25000   0.00000  Uiso   1.00
O105   O     0.53823   0.22774   0.25000   0.00000  Uiso   1.00
O106   O     0.44280   0.16666   0.32681   0.00000  Uiso   1.00
O107   O     0.51924   0.16665   0.32681   0.00000  Uiso   1.00
O108   O     0.46177   0.10559   0.24999   0.00000  Uiso   1.00
O109   O     0.53821   0.10558   0.24999   0.00000  Uiso   1.00
O110   O     0.48076   0.16668   0.17319   0.00000  Uiso   1.00
O111   O     0.55720   0.16667   0.17319   0.00000  Uiso   1.00
O112   O     0.41562   0.04000   0.31868   0.00000  Uiso   1.00
Zn113  Zn    0.44896   0.16667   0.25000   0.00000  Uiso   1.00
Zn114  Zn    0.55104   0.16666   0.25000   0.00000  Uiso   1.00
Br115  Br    0.74309   0.10086   0.16912   0.00000  Uiso   1.00
Br116  Br    0.95519   0.08480   0.38968   0.00000  Uiso   1.00
C117   C     0.83332   0.24662   0.25010   0.00000  Uiso   1.00
C118   C     0.78957   0.15864   0.41066   0.00000  Uiso   1.00
C119   C     0.87491   0.31213   0.22400   0.00000  Uiso   1.00
C120   C     0.80678   0.16393   0.35195   0.00000  Uiso   1.00
C121   C     0.87444   0.02159   0.22519   0.00000  Uiso   1.00
C122   C     0.83220   0.04257   0.25481   0.00000  Uiso   1.00
C123   C     0.79018   0.02087   0.28500   0.00000  Uiso   1.00
C124   C     0.79061   0.31130   0.28150   0.00000  Uiso   1.00
C125   C     0.83287   0.29071   0.25151   0.00000  Uiso   1.00
C126   C     0.98557   0.14017   0.21699   0.00000  Uiso   1.00
C127   C     0.70002   0.13996   0.21688   0.00000  Uiso   1.00
C128   C     0.81045   0.15390   0.49201   0.00000  Uiso   1.00
C129   C     0.68072   0.19312   0.28326   0.00000  Uiso   1.00
C130   C     0.96614   0.19309   0.28326   0.00000  Uiso   1.00
C131   C     0.83277   0.08673   0.25184   0.00000  Uiso   1.00
C132   C     0.85996   0.16638   0.14784   0.00000  Uiso   1.00
C133   C     0.92753   0.12583   0.00848   0.00000  Uiso   1.00
C134   C     0.87597   0.16008   0.08956   0.00000  Uiso   1.00
C135   C     0.74335   0.17261   0.44130   0.00000  Uiso   1.00
C136   C     0.72973   0.17523   0.49733   0.00000  Uiso   1.00
C137   C     0.76319   0.16711   0.02262   0.00000  Uiso   1.00
C138   C     0.82104   0.14424   0.43691   0.00000  Uiso   1.00
C139   C     0.84761   0.15020   0.01417   0.00000  Uiso   1.00
C140   C     0.89164   0.13001   0.48466   0.00000  Uiso   1.00
C141   C     0.89822   0.11426   0.43256   0.00000  Uiso   1.00
C142   C     0.86305   0.12118   0.40939   0.00000  Uiso   1.00
C143   C     0.84247   0.16767   0.06445   0.00000  Uiso   1.00
C144   C     0.91924   0.14002   0.06127   0.00000  Uiso   1.00
H145   H     0.94562   0.13388   0.08055   0.00000  Uiso   1.00
H146   H     0.75085   0.17035   0.06617   0.00000  Uiso   1.00
H147   H     0.69382   0.18542   0.02104   0.00000  Uiso   1.00
H148   H     0.86880   0.10783   0.36969   0.00000  Uiso   1.00
H149   H     0.90755   0.29581   0.20072   0.00000  Uiso   1.00
H150   H     0.75776   0.06679   0.33196   0.00000  Uiso   1.00
H151   H     0.90672   0.03830   0.20213   0.00000  Uiso   1.00
H152   H     0.75859   0.29398   0.30392   0.00000  Uiso   1.00
H153   H     0.97499   0.11905   0.19065   0.00000  Uiso   1.00
H154   H     0.69088   0.21429   0.30986   0.00000  Uiso   1.00
H155   H     0.94009   0.21426   0.30989   0.00000  Uiso   1.00
H156   H     0.96134   0.11046   0.48751   0.00000  Uiso   1.00
H157   H     0.81158   0.18656   0.08586   0.00000  Uiso   1.00
H158   H     0.71821   0.18254   0.42189   0.00000  Uiso   1.00
N159   N     0.71426   0.16668   0.25001   0.00000  Uiso   1.00
N160   N     0.95239   0.16665   0.25000   0.00000  Uiso   1.00
O161   O     0.79512   0.22775   0.25000   0.00000  Uiso   1.00
O162   O     0.87157   0.22774   0.25000   0.00000  Uiso   1.00
O163   O     0.77613   0.16666   0.32681   0.00000  Uiso   1.00
O164   O     0.85258   0.16665   0.32681   0.00000  Uiso   1.00
O165   O     0.79510   0.10559   0.24999   0.00000  Uiso   1.00
O166   O     0.87154   0.10558   0.24999   0.00000  Uiso   1.00
O167   O     0.81409   0.16668   0.17319   0.00000  Uiso   1.00
O168   O     0.89053   0.16667   0.17319   0.00000  Uiso   1.00
O169   O     0.74896   0.04000   0.31868   0.00000  Uiso   1.00
Zn170  Zn    0.78229   0.16667   0.25000   0.00000  Uiso   1.00
Zn171  Zn    0.88438   0.16666   0.25000   0.00000  Uiso   1.00
Br172  Br    0.07642   0.43419   0.16912   0.00000  Uiso   1.00
Br173  Br    0.28852   0.41813   0.38968   0.00000  Uiso   1.00
C174   C     0.16666   0.57995   0.25010   0.00000  Uiso   1.00
C175   C     0.12291   0.49197   0.41066   0.00000  Uiso   1.00
C176   C     0.20824   0.64547   0.22400   0.00000  Uiso   1.00
C177   C     0.14011   0.49726   0.35195   0.00000  Uiso   1.00
C178   C     0.20777   0.35492   0.22519   0.00000  Uiso   1.00
C179   C     0.16553   0.37591   0.25481   0.00000  Uiso   1.00
C180   C     0.12351   0.35421   0.28500   0.00000  Uiso   1.00
C181   C     0.12394   0.64463   0.28150   0.00000  Uiso   1.00
C182   C     0.16620   0.62404   0.25151   0.00000  Uiso   1.00
C183   C     0.31891   0.47350   0.21699   0.00000  Uiso   1.00
C184   C     0.03335   0.47330   0.21688   0.00000  Uiso   1.00
C185   C     0.14379   0.48723   0.49201   0.00000  Uiso   1.00
C186   C     0.01405   0.52646   0.28326   0.00000  Uiso   1.00
C187   C     0.29947   0.52643   0.28326   0.00000  Uiso   1.00
C188   C     0.16610   0.42007   0.25184   0.00000  Uiso   1.00
C189   C     0.19329   0.49971   0.14784   0.00000  Uiso   1.00
C190   C     0.26087   0.45916   0.00848   0.00000  Uiso   1.00
C191   C     0.20930   0.49341   0.08956   0.00000  Uiso   1.00
C192   C     0.07668   0.50594   0.44130   0.00000  Uiso   1.00
C193   C     0.06307   0.50857   0.49733   0.00000  Uiso   1.00
C194   C     0.09652   0.50045   0.02262   0.00000  Uiso   1.00
C195   C     0.15437   0.47757   0.43691   0.00000  Uiso   1.00
C196   C     0.18094   0.48354   0.01417   0.00000  Uiso   1.00
C197   C     0.22498   0.46334   0.48466   0.00000  Uiso   1.00
C198   C     0.23155   0.44760   0.43256   0.00000  Uiso   1.00
C199   C     0.19638   0.45452   0.40939   0.00000  Uiso   1.00
C200   C     0.17581   0.50100   0.06445   0.00000  Uiso   1.00
C201   C     0.25258   0.47335   0.06127   0.00000  Uiso   1.00
H202   H     0.27896   0.46722   0.08055   0.00000  Uiso   1.00
H203   H     0.08418   0.50369   0.06617   0.00000  Uiso   1.00
H204   H     0.02715   0.51875   0.02104   0.00000  Uiso   1.00
H205   H     0.20214   0.44116   0.36969   0.00000  Uiso   1.00
H206   H     0.24088   0.62915   0.20072   0.00000  Uiso   1.00
H207   H     0.09110   0.40012   0.33196   0.00000  Uiso   1.00
H208   H     0.24005   0.37163   0.20213   0.00000  Uiso   1.00
H209   H     0.09192   0.62731   0.30392   0.00000  Uiso   1.00
H210   H     0.30832   0.45238   0.19065   0.00000  Uiso   1.00
H211   H     0.02421   0.54762   0.30986   0.00000  Uiso   1.00
H212   H     0.27343   0.54760   0.30989   0.00000  Uiso   1.00
H213   H     0.29467   0.44379   0.48751   0.00000  Uiso   1.00
H214   H     0.14492   0.51989   0.08586   0.00000  Uiso   1.00
H215   H     0.05155   0.51587   0.42189   0.00000  Uiso   1.00
N216   N     0.04760   0.50001   0.25001   0.00000  Uiso   1.00
N217   N     0.28573   0.49998   0.25000   0.00000  Uiso   1.00
O218   O     0.12846   0.56108   0.25000   0.00000  Uiso   1.00
O219   O     0.20490   0.56107   0.25000   0.00000  Uiso   1.00
O220   O     0.10947   0.50000   0.32681   0.00000  Uiso   1.00
O221   O     0.18591   0.49999   0.32681   0.00000  Uiso   1.00
O222   O     0.12843   0.43893   0.24999   0.00000  Uiso   1.00
O223   O     0.20488   0.43892   0.24999   0.00000  Uiso   1.00
O224   O     0.14742   0.50001   0.17319   0.00000  Uiso   1.00
O225   O     0.22387   0.50000   0.17319   0.00000  Uiso   1.00
O226   O     0.08229   0.37334   0.31868   0.00000  Uiso   1.00
Zn227  Zn    0.11562   0.50001   0.25000   0.00000  Uiso   1.00
Zn228  Zn    0.21771   0.49999   0.25000   0.00000  Uiso   1.00
Br229  Br    0.40975   0.43419   0.16912   0.00000  Uiso   1.00
Br230  Br    0.62186   0.41813   0.38968   0.00000  Uiso   1.00
C231   C     0.49999   0.57995   0.25010   0.00000  Uiso   1.00
C232   C     0.45624   0.49197   0.41066   0.00000  Uiso   1.00
C233   C     0.54158   0.64547   0.22400   0.00000  Uiso   1.00
C234   C     0.47344   0.49726   0.35195   0.00000  Uiso   1.00
C235   C     0.54111   0.35492   0.22519   0.00000  Uiso   1.00
C236   C     0.49887   0.37591   0.25481   0.00000  Uiso   1.00
C237   C     0.45684   0.35421   0.28500   0.00000  Uiso   1.00
C238   C     0.45727   0.64463   0.28150   0.00000  Uiso   1.00
C239   C     0.49954   0.62404   0.25151   0.00000  Uiso   1.00
C240   C     0.65224   0.47350   0.21699   0.00000  Uiso   1.00
C241   C     0.36668   0.47330   0.21688   0.00000  Uiso   1.00
C242   C     0.47712   0.48723   0.49201   0.00000  Uiso   1.00
C243   C     0.34739   0.52646   0.28326   0.00000  Uiso   1.00
C244   C     0.63280   0.52643   0.28326   0.00000  Uiso   1.00
C245   C     0.49944   0.42007   0.25184   0.00000  Uiso   1.00
C246   C     0.52662   0.49971   0.14784   0.00000  Uiso   1.00
C247   C     0.59420   0.45916   0.00848   0.00000  Uiso   1.00
C248   C     0.54263   0.49341   0.08956   0.00000  Uiso   1.00
C249   C     0.41002   0.50594   0.44130   0.00000  Uiso   1.00
C250   C     0.39640   0.50857   0.49733   0.00000  Uiso   1.00
C251   C     0.42986   0.50045   0.02262   0.00000  Uiso   1.00
C252   C     0.48771   0.47757   0.43691   0.00000  Uiso   1.00
C253   C     0.51427   0.48354   0.01417   0.00000  Uiso   1.00
C254   C     0.55831   0.46334   0.48466   0.00000  Uiso   1.00
C255   C     0.56488   0.44760   0.43256   0.00000  Uiso   1.00
C256   C     0.52971   0.45452   0.40939   0.00000  Uiso   1.00
C257   C     0.50914   0.50100   0.06445   0.00000  Uiso   1.00
C258   C     0.58591   0.47335   0.06127   0.00000  Uiso   1.00
H259   H     0.61229   0.46722   0.08055   0.00000  Uiso   1.00
H260   H     0.41752   0.50369   0.06617   0.00000  Uiso   1.00
H261   H     0.36049   0.51875   0.02104   0.00000  Uiso   1.00
H262   H     0.53547   0.44116   0.36969   0.00000  Uiso   1.00
H263   H     0.57421   0.62915   0.20072   0.00000  Uiso   1.00
H264   H     0.42443   0.40012   0.33196   0.00000  Uiso   1.00
H265   H     0.57339   0.37163   0.20213   0.00000  Uiso   1.00
H266   H     0.42526   0.62731   0.30392   0.00000  Uiso   1.00
H267   H     0.64166   0.45238   0.19065   0.00000  Uiso   1.00
H268   H     0.35754   0.54762   0.30986   0.00000  Uiso   1.00
H269   H     0.60676   0.54760   0.30989   0.00000  Uiso   1.00
H270   H     0.62800   0.44379   0.48751   0.00000  Uiso   1.00
H271   H     0.47825   0.51989   0.08586   0.00000  Uiso   1.00
H272   H     0.38488   0.51587   0.42189   0.00000  Uiso   1.00
N273   N     0.38093   0.50001   0.25001   0.00000  Uiso   1.00
N274   N     0.61906   0.49998   0.25000   0.00000  Uiso   1.00
O275   O     0.46179   0.56108   0.25000   0.00000  Uiso   1.00
O276   O     0.53823   0.56107   0.25000   0.00000  Uiso   1.00
O277   O     0.44280   0.50000   0.32681   0.00000  Uiso   1.00
O278   O     0.51924   0.49999   0.32681   0.00000  Uiso   1.00
O279   O     0.46177   0.43893   0.24999   0.00000  Uiso   1.00
O280   O     0.53821   0.43892   0.24999   0.00000  Uiso   1.00
O281   O     0.48076   0.50001   0.17319   0.00000  Uiso   1.00
O282   O     0.55720   0.50000   0.17319   0.00000  Uiso   1.00
O283   O     0.41562   0.37334   0.31868   0.00000  Uiso   1.00
Zn284  Zn    0.44896   0.50001   0.25000   0.00000  Uiso   1.00
Zn285  Zn    0.55104   0.49999   0.25000   0.00000  Uiso   1.00
Br286  Br    0.74309   0.43419   0.16912   0.00000  Uiso   1.00
Br287  Br    0.95519   0.41813   0.38968   0.00000  Uiso   1.00
C288   C     0.83332   0.57995   0.25010   0.00000  Uiso   1.00
C289   C     0.78957   0.49197   0.41066   0.00000  Uiso   1.00
C290   C     0.87491   0.64547   0.22400   0.00000  Uiso   1.00
C291   C     0.80678   0.49726   0.35195   0.00000  Uiso   1.00
C292   C     0.87444   0.35492   0.22519   0.00000  Uiso   1.00
C293   C     0.83220   0.37591   0.25481   0.00000  Uiso   1.00
C294   C     0.79018   0.35421   0.28500   0.00000  Uiso   1.00
C295   C     0.79061   0.64463   0.28150   0.00000  Uiso   1.00
C296   C     0.83287   0.62404   0.25151   0.00000  Uiso   1.00
C297   C     0.98557   0.47350   0.21699   0.00000  Uiso   1.00
C298   C     0.70002   0.47330   0.21688   0.00000  Uiso   1.00
C299   C     0.81045   0.48723   0.49201   0.00000  Uiso   1.00
C300   C     0.68072   0.52646   0.28326   0.00000  Uiso   1.00
C301   C     0.96614   0.52643   0.28326   0.00000  Uiso   1.00
C302   C     0.83277   0.42007   0.25184   0.00000  Uiso   1.00
C303   C     0.85996   0.49971   0.14784   0.00000  Uiso   1.00
C304   C     0.92753   0.45916   0.00848   0.00000  Uiso   1.00
C305   C     0.87597   0.49341   0.08956   0.00000  Uiso   1.00
C306   C     0.74335   0.50594   0.44130   0.00000  Uiso   1.00
C307   C     0.72973   0.50857   0.49733   0.00000  Uiso   1.00
C308   C     0.76319   0.50045   0.02262   0.00000  Uiso   1.00
C309   C     0.82104   0.47757   0.43691   0.00000  Uiso   1.00
C310   C     0.84761   0.48354   0.01417   0.00000  Uiso   1.00
C311   C     0.89164   0.46334   0.48466   0.00000  Uiso   1.00
C312   C     0.89822   0.44760   0.43256   0.00000  Uiso   1.00
C313   C     0.86305   0.45452   0.40939   0.00000  Uiso   1.00
C314   C     0.84247   0.50100   0.06445   0.00000  Uiso   1.00
C315   C     0.91924   0.47335   0.06127   0.00000  Uiso   1.00
H316   H     0.94562   0.46722   0.08055   0.00000  Uiso   1.00
H317   H     0.75085   0.50369   0.06617   0.00000  Uiso   1.00
H318   H     0.69382   0.51875   0.02104   0.00000  Uiso   1.00
H319   H     0.86880   0.44116   0.36969   0.00000  Uiso   1.00
H320   H     0.90755   0.62915   0.20072   0.00000  Uiso   1.00
H321   H     0.75776   0.40012   0.33196   0.00000  Uiso   1.00
H322   H     0.90672   0.37163   0.20213   0.00000  Uiso   1.00
H323   H     0.75859   0.62731   0.30392   0.00000  Uiso   1.00
H324   H     0.97499   0.45238   0.19065   0.00000  Uiso   1.00
H325   H     0.69088   0.54762   0.30986   0.00000  Uiso   1.00
H326   H     0.94009   0.54760   0.30989   0.00000  Uiso   1.00
H327   H     0.96134   0.44379   0.48751   0.00000  Uiso   1.00
H328   H     0.81158   0.51989   0.08586   0.00000  Uiso   1.00
H329   H     0.71821   0.51587   0.42189   0.00000  Uiso   1.00
N330   N     0.71426   0.50001   0.25001   0.00000  Uiso   1.00
N331   N     0.95239   0.49998   0.25000   0.00000  Uiso   1.00
O332   O     0.79512   0.56108   0.25000   0.00000  Uiso   1.00
O333   O     0.87157   0.56107   0.25000   0.00000  Uiso   1.00
O334   O     0.77613   0.50000   0.32681   0.00000  Uiso   1.00
O335   O     0.85258   0.49999   0.32681   0.00000  Uiso   1.00
O336   O     0.79510   0.43893   0.24999   0.00000  Uiso   1.00
O337   O     0.87154   0.43892   0.24999   0.00000  Uiso   1.00
O338   O     0.81409   0.50001   0.17319   0.00000  Uiso   1.00
O339   O     0.89053   0.50000   0.17319   0.00000  Uiso   1.00
O340   O     0.74896   0.37334   0.31868   0.00000  Uiso   1.00
Zn341  Zn    0.78229   0.50001   0.25000   0.00000  Uiso   1.00
Zn342  Zn    0.88438   0.49999   0.25000   0.00000  Uiso   1.00
Br343  Br    0.07642   0.76752   0.16912   0.00000  Uiso   1.00
Br344  Br    0.28852   0.75146   0.38968   0.00000  Uiso   1.00
C345   C     0.16666   0.91329   0.25010   0.00000  Uiso   1.00
C346   C     0.12291   0.82531   0.41066   0.00000  Uiso   1.00
C347   C     0.20824   0.97880   0.22400   0.00000  Uiso   1.00
C348   C     0.14011   0.83059   0.35195   0.00000  Uiso   1.00
C349   C     0.20777   0.68825   0.22519   0.00000  Uiso   1.00
C350   C     0.16553   0.70924   0.25481   0.00000  Uiso   1.00
C351   C     0.12351   0.68754   0.28500   0.00000  Uiso   1.00
C352   C     0.12394   0.97797   0.28150   0.00000  Uiso   1.00
C353   C     0.16620   0.95738   0.25151   0.00000  Uiso   1.00
C354   C     0.31891   0.80684   0.21699   0.00000  Uiso   1.00
C355   C     0.03335   0.80663   0.21688   0.00000  Uiso   1.00
C356   C     0.14379   0.82057   0.49201   0.00000  Uiso   1.00
C357   C     0.01405   0.85979   0.28326   0.00000  Uiso   1.00
C358   C     0.29947   0.85976   0.28326   0.00000  Uiso   1.00
C359   C     0.16610   0.75340   0.25184   0.00000  Uiso   1.00
C360   C     0.19329   0.83305   0.14784   0.00000  Uiso   1.00
C361   C     0.26087   0.79249   0.00848   0.00000  Uiso   1.00
C362   C     0.20930   0.82675   0.08956   0.00000  Uiso   1.00
C363   C     0.07668   0.83928   0.44130   0.00000  Uiso   1.00
C364   C     0.06307   0.84190   0.49733   0.00000  Uiso   1.00
C365   C     0.09652   0.83378   0.02262   0.00000  Uiso   1.00
C366   C     0.15437   0.81091   0.43691   0.00000  Uiso   1.00
C367   C     0.18094   0.81687   0.01417   0.00000  Uiso   1.00
C368   C     0.22498   0.79667   0.48466   0.00000  Uiso   1.00
C369   C     0.23155   0.78093   0.43256   0.00000  Uiso   1.00
C370   C     0.19638   0.78785   0.40939   0.00000  Uiso   1.00
C371   C     0.17581   0.83433   0.06445   0.00000  Uiso   1.00
C372   C     0.25258   0.80669   0.06127   0.00000  Uiso   1.00
H373   H     0.27896   0.80055   0.08055   0.00000  Uiso   1.00
H374   H     0.08418   0.83702   0.06617   0.00000  Uiso   1.00
H375   H     0.02715   0.85208   0.02104   0.00000  Uiso   1.00
H376   H     0.20214   0.77449   0.36969   0.00000  Uiso   1.00
H377   H     0.24088   0.96248   0.20072   0.00000  Uiso   1.00
H378   H     0.09110   0.73345   0.33196   0.00000  Uiso   1.00
H379   H     0.24005   0.70496   0.20213   0.00000  Uiso   1.00
H380   H     0.09192   0.96064   0.30392   0.00000  Uiso   1.00
H381   H     0.30832   0.78571   0.19065   0.00000  Uiso   1.00
H382   H     0.02421   0.88095   0.30986   0.00000  Uiso   1.00
H383   H     0.27343   0.88093   0.30989   0.00000  Uiso   1.00
H384   H     0.29467   0.77713   0.48751   0.00000  Uiso   1.00
H385   H     0.14492   0.85323   0.08586   0.00000  Uiso   1.00
H386   H     0.05155   0.84920   0.42189   0.00000  Uiso   1.00
N387   N     0.04760   0.83334   0.25001   0.00000  Uiso   1.00
N388   N     0.28573   0.83331   0.25000   0.00000  Uiso   1.00
O389   O     0.12846   0.89442   0.25000   0.00000  Uiso   1.00
O390   O     0.20490   0.89441   0.25000   0.00000  Uiso   1.00
O391   O     0.10947   0.83333   0.32681   0.00000  Uiso   1.00
O392   O     0.18591   0.83332   0.32681   0.00000  Uiso   1.00
O393   O     0.12843   0.77226   0.24999   0.00000  Uiso   1.00
O394   O     0.20488   0.77225   0.24999   0.00000  Uiso   1.00
O395   O     0.14742   0.83335   0.17319   0.00000  Uiso   1.00
O396   O     0.22387   0.83334   0.17319   0.00000  Uiso   1.00
O397   O     0.08229   0.70667   0.31868   0.00000  Uiso   1.00
Zn398  Zn    0.11562   0.83334   0.25000   0.00000  Uiso   1.00
Zn399  Zn    0.21771   0.83333   0.25000   0.00000  Uiso   1.00
Br400  Br    0.40975   0.76752   0.16912   0.00000  Uiso   1.00
Br401  Br    0.62186   0.75146   0.38968   0.00000  Uiso   1.00
C402   C     0.49999   0.91329   0.25010   0.00000  Uiso   1.00
C403   C     0.45624   0.82531   0.41066   0.00000  Uiso   1.00
C404   C     0.54158   0.97880   0.22400   0.00000  Uiso   1.00
C405   C     0.47344   0.83059   0.35195   0.00000  Uiso   1.00
C406   C     0.54111   0.68825   0.22519   0.00000  Uiso   1.00
C407   C     0.49887   0.70924   0.25481   0.00000  Uiso   1.00
C408   C     0.45684   0.68754   0.28500   0.00000  Uiso   1.00
C409   C     0.45727   0.97797   0.28150   0.00000  Uiso   1.00
C410   C     0.49954   0.95738   0.25151   0.00000  Uiso   1.00
C411   C     0.65224   0.80684   0.21699   0.00000  Uiso   1.00
C412   C     0.36668   0.80663   0.21688   0.00000  Uiso   1.00
C413   C     0.47712   0.82057   0.49201   0.00000  Uiso   1.00
C414   C     0.34739   0.85979   0.28326   0.00000  Uiso   1.00
C415   C     0.63280   0.85976   0.28326   0.00000  Uiso   1.00
C416   C     0.49944   0.75340   0.25184   0.00000  Uiso   1.00
C417   C     0.52662   0.83305   0.14784   0.00000  Uiso   1.00
C418   C     0.59420   0.79249   0.00848   0.00000  Uiso   1.00
C419   C     0.54263   0.82675   0.08956   0.00000  Uiso   1.00
C420   C     0.41002   0.83928   0.44130   0.00000  Uiso   1.00
C421   C     0.39640   0.84190   0.49733   0.00000  Uiso   1.00
C422   C     0.42986   0.83378   0.02262   0.00000  Uiso   1.00
C423   C     0.48771   0.81091   0.43691   0.00000  Uiso   1.00
C424   C     0.51427   0.81687   0.01417   0.00000  Uiso   1.00
C425   C     0.55831   0.79667   0.48466   0.00000  Uiso   1.00
C426   C     0.56488   0.78093   0.43256   0.00000  Uiso   1.00
C427   C     0.52971   0.78785   0.40939   0.00000  Uiso   1.00
C428   C     0.50914   0.83433   0.06445   0.00000  Uiso   1.00
C429   C     0.58591   0.80669   0.06127   0.00000  Uiso   1.00
H430   H     0.61229   0.80055   0.08055   0.00000  Uiso   1.00
H431   H     0.41752   0.83702   0.06617   0.00000  Uiso   1.00
H432   H     0.36049   0.85208   0.02104   0.00000  Uiso   1.00
H433   H     0.53547   0.77449   0.36969   0.00000  Uiso   1.00
H434   H     0.57421   0.96248   0.20072   0.00000  Uiso   1.00
H435   H     0.42443   0.73345   0.33196   0.00000  Uiso   1.00
H436   H     0.57339   0.70496   0.20213   0.00000  Uiso   1.00
H437   H     0.42526   0.96064   0.30392   0.00000  Uiso   1.00
H438   H     0.64166   0.78571   0.19065   0.00000  Uiso   1.00
H439   H     0.35754   0.88095   0.30986   0.00000  Uiso   1.00
H440   H     0.60676   0.88093   0.30989   0.00000  Uiso   1.00
H441   H     0.62800   0.77713   0.48751   0.00000  Uiso   1.00
H442   H     0.47825   0.85323   0.08586   0.00000  Uiso   1.00
H443   H     0.38488   0.84920   0.42189   0.00000  Uiso   1.00
N444   N     0.38093   0.83334   0.25001   0.00000  Uiso   1.00
N445   N     0.61906   0.83331   0.25000   0.00000  Uiso   1.00
O446   O     0.46179   0.89442   0.25000   0.00000  Uiso   1.00
O447   O     0.53823   0.89441   0.25000   0.00000  Uiso   1.00
O448   O     0.44280   0.83333   0.32681   0.00000  Uiso   1.00
O449   O     0.51924   0.83332   0.32681   0.00000  Uiso   1.00
O450   O     0.46177   0.77226   0.24999   0.00000  Uiso   1.00
O451   O     0.53821   0.77225   0.24999   0.00000  Uiso   1.00
O452   O     0.48076   0.83335   0.17319   0.00000  Uiso   1.00
O453   O     0.55720   0.83334   0.17319   0.00000  Uiso   1.00
O454   O     0.41562   0.70667   0.31868   0.00000  Uiso   1.00
Zn455  Zn    0.44896   0.83334   0.25000   0.00000  Uiso   1.00
Zn456  Zn    0.55104   0.83333   0.25000   0.00000  Uiso   1.00
Br457  Br    0.74309   0.76752   0.16912   0.00000  Uiso   1.00
Br458  Br    0.95519   0.75146   0.38968   0.00000  Uiso   1.00
C459   C     0.83332   0.91329   0.25010   0.00000  Uiso   1.00
C460   C     0.78957   0.82531   0.41066   0.00000  Uiso   1.00
C461   C     0.87491   0.97880   0.22400   0.00000  Uiso   1.00
C462   C     0.80678   0.83059   0.35195   0.00000  Uiso   1.00
C463   C     0.87444   0.68825   0.22519   0.00000  Uiso   1.00
C464   C     0.83220   0.70924   0.25481   0.00000  Uiso   1.00
C465   C     0.79018   0.68754   0.28500   0.00000  Uiso   1.00
C466   C     0.79061   0.97797   0.28150   0.00000  Uiso   1.00
C467   C     0.83287   0.95738   0.25151   0.00000  Uiso   1.00
C468   C     0.98557   0.80684   0.21699   0.00000  Uiso   1.00
C469   C     0.70002   0.80663   0.21688   0.00000  Uiso   1.00
C470   C     0.81045   0.82057   0.49201   0.00000  Uiso   1.00
C471   C     0.68072   0.85979   0.28326   0.00000  Uiso   1.00
C472   C     0.96614   0.85976   0.28326   0.00000  Uiso   1.00
C473   C     0.83277   0.75340   0.25184   0.00000  Uiso   1.00
C474   C     0.85996   0.83305   0.14784   0.00000  Uiso   1.00
C475   C     0.92753   0.79249   0.00848   0.00000  Uiso   1.00
C476   C     0.87597   0.82675   0.08956   0.00000  Uiso   1.00
C477   C     0.74335   0.83928   0.44130   0.00000  Uiso   1.00
C478   C     0.72973   0.84190   0.49733   0.00000  Uiso   1.00
C479   C     0.76319   0.83378   0.02262   0.00000  Uiso   1.00
C480   C     0.82104   0.81091   0.43691   0.00000  Uiso   1.00
C481   C     0.84761   0.81687   0.01417   0.00000  Uiso   1.00
C482   C     0.89164   0.79667   0.48466   0.00000  Uiso   1.00
C483   C     0.89822   0.78093   0.43256   0.00000  Uiso   1.00
C484   C     0.86305   0.78785   0.40939   0.00000  Uiso   1.00
C485   C     0.84247   0.83433   0.06445   0.00000  Uiso   1.00
C486   C     0.91924   0.80669   0.06127   0.00000  Uiso   1.00
H487   H     0.94562   0.80055   0.08055   0.00000  Uiso   1.00
H488   H     0.75085   0.83702   0.06617   0.00000  Uiso   1.00
H489   H     0.69382   0.85208   0.02104   0.00000  Uiso   1.00
H490   H     0.86880   0.77449   0.36969   0.00000  Uiso   1.00
H491   H     0.90755   0.96248   0.20072   0.00000  Uiso   1.00
H492   H     0.75776   0.73345   0.33196   0.00000  Uiso   1.00
H493   H     0.90672   0.70496   0.20213   0.00000  Uiso   1.00
H494   H     0.75859   0.96064   0.30392   0.00000  Uiso   1.00
H495   H     0.97499   0.78571   0.19065   0.00000  Uiso   1.00
H496   H     0.69088   0.88095   0.30986   0.00000  Uiso   1.00
H497   H     0.94009   0.88093   0.30989   0.00000  Uiso   1.00
H498   H     0.96134   0.77713   0.48751   0.00000  Uiso   1.00
H499   H     0.81158   0.85323   0.08586   0.00000  Uiso   1.00
H500   H     0.71821   0.84920   0.42189   0.00000  Uiso   1.00
N501   N     0.71426   0.83334   0.25001   0.00000  Uiso   1.00
N502   N     0.95239   0.83331   0.25000   0.00000  Uiso   1.00
O503   O     0.79512   0.89442   0.25000   0.00000  Uiso   1.00
O504   O     0.87157   0.89441   0.25000   0.00000  Uiso   1.00
O505   O     0.77613   0.83333   0.32681   0.00000  Uiso   1.00
O506   O     0.85258   0.83332   0.32681   0.00000  Uiso   1.00
O507   O     0.79510   0.77226   0.24999   0.00000  Uiso   1.00
O508   O     0.87154   0.77225   0.24999   0.00000  Uiso   1.00
O509   O     0.81409   0.83335   0.17319   0.00000  Uiso   1.00
O510   O     0.89053   0.83334   0.17319   0.00000  Uiso   1.00
O511   O     0.74896   0.70667   0.31868   0.00000  Uiso   1.00
Zn512  Zn    0.78229   0.83334   0.25000   0.00000  Uiso   1.00
Zn513  Zn    0.88438   0.83333   0.25000   0.00000  Uiso   1.00
Br514  Br    0.07642   0.10086   0.66912   0.00000  Uiso   1.00
Br515  Br    0.28852   0.08480   0.88968   0.00000  Uiso   1.00
C516   C     0.16666   0.24662   0.75010   0.00000  Uiso   1.00
C517   C     0.12291   0.15864   0.91066   0.00000  Uiso   1.00
C518   C     0.20824   0.31213   0.72400   0.00000  Uiso   1.00
C519   C     0.14011   0.16393   0.85195   0.00000  Uiso   1.00
C520   C     0.20777   0.02159   0.72519   0.00000  Uiso   1.00
C521   C     0.16553   0.04257   0.75481   0.00000  Uiso   1.00
C522   C     0.12351   0.02087   0.78500   0.00000  Uiso   1.00
C523   C     0.12394   0.31130   0.78150   0.00000  Uiso   1.00
C524   C     0.16620   0.29071   0.75151   0.00000  Uiso   1.00
C525   C     0.31891   0.14017   0.71699   0.00000  Uiso   1.00
C526   C     0.03335   0.13996   0.71688   0.00000  Uiso   1.00
C527   C     0.14379   0.15390   0.99201   0.00000  Uiso   1.00
C528   C     0.01405   0.19312   0.78326   0.00000  Uiso   1.00
C529   C     0.29947   0.19309   0.78326   0.00000  Uiso   1.00
C530   C     0.16610   0.08673   0.75184   0.00000  Uiso   1.00
C531   C     0.19329   0.16638   0.64784   0.00000  Uiso   1.00
C532   C     0.26087   0.12583   0.50848   0.00000  Uiso   1.00
C533   C     0.20930   0.16008   0.58956   0.00000  Uiso   1.00
C534   C     0.07668   0.17261   0.94130   0.00000  Uiso   1.00
C535   C     0.06307   0.17523   0.99733   0.00000  Uiso   1.00
C536   C     0.09652   0.16711   0.52262   0.00000  Uiso   1.00
C537   C     0.15437   0.14424   0.93691   0.00000  Uiso   1.00
C538   C     0.18094   0.15020   0.51417   0.00000  Uiso   1.00
C539   C     0.22498   0.13001   0.98466   0.00000  Uiso   1.00
C540   C     0.23155   0.11426   0.93256   0.00000  Uiso   1.00
C541   C     0.19638   0.12118   0.90939   0.00000  Uiso   1.00
C542   C     0.17581   0.16767   0.56445   0.00000  Uiso   1.00
C543   C     0.25258   0.14002   0.56127   0.00000  Uiso   1.00
H544   H     0.27896   0.13388   0.58055   0.00000  Uiso   1.00
H545   H     0.08418   0.17035   0.56617   0.00000  Uiso   1.00
H546   H     0.02715   0.18542   0.52104   0.00000  Uiso   1.00
H547   H     0.20214   0.10783   0.86969   0.00000  Uiso   1.00
H548   H     0.24088   0.29581   0.70072   0.00000  Uiso   1.00
H549   H     0.09110   0.06679   0.83196   0.00000  Uiso   1.00
H550   H     0.24005   0.03830   0.70213   0.00000  Uiso   1.00
H551   H     0.09192   0.29398   0.80392   0.00000  Uiso   1.00
H552   H     0.30832   0.11905   0.69065   0.00000  Uiso   1.00
H553   H     0.02421   0.21429   0.80986   0.00000  Uiso   1.00
H554   H     0.27343   0.21426   0.80989   0.00000  Uiso   1.00
H555   H     0.29467   0.11046   0.98751   0.00000  Uiso   1.00
H556   H     0.14492   0.18656   0.58586   0.00000  Uiso   1.00
H557   H     0.05155   0.18254   0.92189   0.00000  Uiso   1.00
N558   N     0.04760   0.16668   0.75001   0.00000  Uiso   1.00
N559   N     0.28573   0.16665   0.75000   0.00000  Uiso   1.00
O560   O     0.12846   0.22775   0.75000   0.00000  Uiso   1.00
O561   O     0.20490   0.22774   0.75000   0.00000  Uiso   1.00
O562   O     0.10947   0.16666   0.82681   0.00000  Uiso   1.00
O563   O     0.18591   0.16665   0.82681   0.00000  Uiso   1.00
O564   O     0.12843   0.10559   0.74999   0.00000  Uiso   1.00
O565   O     0.20488   0.10558   0.74999   0.00000  Uiso   1.00
O566   O     0.14742   0.16668   0.67319   0.00000  Uiso   1.00
O567   O     0.22387   0.16667   0.67319   0.00000  Uiso   1.00
O568   O     0.08229   0.04000   0.81868   0.00000  Uiso   1.00
Zn569  Zn    0.11562   0.16667   0.75000   0.00000  Uiso   1.00
Zn570  Zn    0.21771   0.16666   0.75000   0.00000  Uiso   1.00
Br571  Br    0.40975   0.10086   0.66912   0.00000  Uiso   1.00
Br572  Br    0.62186   0.08480   0.88968   0.00000  Uiso   1.00
C573   C     0.49999   0.24662   0.75010   0.00000  Uiso   1.00
C574   C     0.45624   0.15864   0.91066   0.00000  Uiso   1.00
C575   C     0.54158   0.31213   0.72400   0.00000  Uiso   1.00
C576   C     0.47344   0.16393   0.85195   0.00000  Uiso   1.00
C577   C     0.54111   0.02159   0.72519   0.00000  Uiso   1.00
C578   C     0.49887   0.04257   0.75481   0.00000  Uiso   1.00
C579   C     0.45684   0.02087   0.78500   0.00000  Uiso   1.00
C580   C     0.45727   0.31130   0.78150   0.00000  Uiso   1.00
C581   C     0.49954   0.29071   0.75151   0.00000  Uiso   1.00
C582   C     0.65224   0.14017   0.71699   0.00000  Uiso   1.00
C583   C     0.36668   0.13996   0.71688   0.00000  Uiso   1.00
C584   C     0.47712   0.15390   0.99201   0.00000  Uiso   1.00
C585   C     0.34739   0.19312   0.78326   0.00000  Uiso   1.00
C586   C     0.63280   0.19309   0.78326   0.00000  Uiso   1.00
C587   C     0.49944   0.08673   0.75184   0.00000  Uiso   1.00
C588   C     0.52662   0.16638   0.64784   0.00000  Uiso   1.00
C589   C     0.59420   0.12583   0.50848   0.00000  Uiso   1.00
C590   C     0.54263   0.16008   0.58956   0.00000  Uiso   1.00
C591   C     0.41002   0.17261   0.94130   0.00000  Uiso   1.00
C592   C     0.39640   0.17523   0.99733   0.00000  Uiso   1.00
C593   C     0.42986   0.16711   0.52262   0.00000  Uiso   1.00
C594   C     0.48771   0.14424   0.93691   0.00000  Uiso   1.00
C595   C     0.51427   0.15020   0.51417   0.00000  Uiso   1.00
C596   C     0.55831   0.13001   0.98466   0.00000  Uiso   1.00
C597   C     0.56488   0.11426   0.93256   0.00000  Uiso   1.00
C598   C     0.52971   0.12118   0.90939   0.00000  Uiso   1.00
C599   C     0.50914   0.16767   0.56445   0.00000  Uiso   1.00
C600   C     0.58591   0.14002   0.56127   0.00000  Uiso   1.00
H601   H     0.61229   0.13388   0.58055   0.00000  Uiso   1.00
H602   H     0.41752   0.17035   0.56617   0.00000  Uiso   1.00
H603   H     0.36049   0.18542   0.52104   0.00000  Uiso   1.00
H604   H     0.53547   0.10783   0.86969   0.00000  Uiso   1.00
H605   H     0.57421   0.29581   0.70072   0.00000  Uiso   1.00
H606   H     0.42443   0.06679   0.83196   0.00000  Uiso   1.00
H607   H     0.57339   0.03830   0.70213   0.00000  Uiso   1.00
H608   H     0.42526   0.29398   0.80392   0.00000  Uiso   1.00
H609   H     0.64166   0.11905   0.69065   0.00000  Uiso   1.00
H610   H     0.35754   0.21429   0.80986   0.00000  Uiso   1.00
H611   H     0.60676   0.21426   0.80989   0.00000  Uiso   1.00
H612   H     0.62800   0.11046   0.98751   0.00000  Uiso   1.00
H613   H     0.47825   0.18656   0.58586   0.00000  Uiso   1.00
H614   H     0.38488   0.18254   0.92189   0.00000  Uiso   1.00
N615   N     0.38093   0.16668   0.75001   0.00000  Uiso   1.00
N616   N     0.61906   0.16665   0.75000   0.00000  Uiso   1.00
O617   O     0.46179   0.22775   0.75000   0.00000  Uiso   1.00
O618   O     0.53823   0.22774   0.75000   0.00000  Uiso   1.00
O619   O     0.44280   0.16666   0.82681   0.00000  Uiso   1.00
O620   O     0.51924   0.16665   0.82681   0.00000  Uiso   1.00
O621   O     0.46177   0.10559   0.74999   0.00000  Uiso   1.00
O622   O     0.53821   0.10558   0.74999   0.00000  Uiso   1.00
O623   O     0.48076   0.16668   0.67319   0.00000  Uiso   1.00
O624   O     0.55720   0.16667   0.67319   0.00000  Uiso   1.00
O625   O     0.41562   0.04000   0.81868   0.00000  Uiso   1.00
Zn626  Zn    0.44896   0.16667   0.75000   0.00000  Uiso   1.00
Zn627  Zn    0.55104   0.16666   0.75000   0.00000  Uiso   1.00
Br628  Br    0.74309   0.10086   0.66912   0.00000  Uiso   1.00
Br629  Br    0.95519   0.08480   0.88968   0.00000  Uiso   1.00
C630   C     0.83332   0.24662   0.75010   0.00000  Uiso   1.00
C631   C     0.78957   0.15864   0.91066   0.00000  Uiso   1.00
C632   C     0.87491   0.31213   0.72400   0.00000  Uiso   1.00
C633   C     0.80678   0.16393   0.85195   0.00000  Uiso   1.00
C634   C     0.87444   0.02159   0.72519   0.00000  Uiso   1.00
C635   C     0.83220   0.04257   0.75481   0.00000  Uiso   1.00
C636   C     0.79018   0.02087   0.78500   0.00000  Uiso   1.00
C637   C     0.79061   0.31130   0.78150   0.00000  Uiso   1.00
C638   C     0.83287   0.29071   0.75151   0.00000  Uiso   1.00
C639   C     0.98557   0.14017   0.71699   0.00000  Uiso   1.00
C640   C     0.70002   0.13996   0.71688   0.00000  Uiso   1.00
C641   C     0.81045   0.15390   0.99201   0.00000  Uiso   1.00
C642   C     0.68072   0.19312   0.78326   0.00000  Uiso   1.00
C643   C     0.96614   0.19309   0.78326   0.00000  Uiso   1.00
C644   C     0.83277   0.08673   0.75184   0.00000  Uiso   1.00
C645   C     0.85996   0.16638   0.64784   0.00000  Uiso   1.00
C646   C     0.92753   0.12583   0.50848   0.00000  Uiso   1.00
C647   C     0.87597   0.16008   0.58956   0.00000  Uiso   1.00
C648   C     0.74335   0.17261   0.94130   0.00000  Uiso   1.00
C649   C     0.72973   0.17523   0.99733   0.00000  Uiso   1.00
C650   C     0.76319   0.16711   0.52262   0.00000  Uiso   1.00
C651   C     0.82104   0.14424   0.93691   0.00000  Uiso   1.00
C652   C     0.84761   0.15020   0.51417   0.00000  Uiso   1.00
C653   C     0.89164   0.13001   0.98466   0.00000  Uiso   1.00
C654   C     0.89822   0.11426   0.93256   0.00000  Uiso   1.00
C655   C     0.86305   0.12118   0.90939   0.00000  Uiso   1.00
C656   C     0.84247   0.16767   0.56445   0.00000  Uiso   1.00
C657   C     0.91924   0.14002   0.56127   0.00000  Uiso   1.00
H658   H     0.94562   0.13388   0.58055   0.00000  Uiso   1.00
H659   H     0.75085   0.17035   0.56617   0.00000  Uiso   1.00
H660   H     0.69382   0.18542   0.52104   0.00000  Uiso   1.00
H661   H     0.86880   0.10783   0.86969   0.00000  Uiso   1.00
H662   H     0.90755   0.29581   0.70072   0.00000  Uiso   1.00
H663   H     0.75776   0.06679   0.83196   0.00000  Uiso   1.00
H664   H     0.90672   0.03830   0.70213   0.00000  Uiso   1.00
H665   H     0.75859   0.29398   0.80392   0.00000  Uiso   1.00
H666   H     0.97499   0.11905   0.69065   0.00000  Uiso   1.00
H667   H     0.69088   0.21429   0.80986   0.00000  Uiso   1.00
H668   H     0.94009   0.21426   0.80989   0.00000  Uiso   1.00
H669   H     0.96134   0.11046   0.98751   0.00000  Uiso   1.00
H670   H     0.81158   0.18656   0.58586   0.00000  Uiso   1.00
H671   H     0.71821   0.18254   0.92189   0.00000  Uiso   1.00
N672   N     0.71426   0.16668   0.75001   0.00000  Uiso   1.00
N673   N     0.95239   0.16665   0.75000   0.00000  Uiso   1.00
O674   O     0.79512   0.22775   0.75000   0.00000  Uiso   1.00
O675   O     0.87157   0.22774   0.75000   0.00000  Uiso   1.00
O676   O     0.77613   0.16666   0.82681   0.00000  Uiso   1.00
O677   O     0.85258   0.16665   0.82681   0.00000  Uiso   1.00
O678   O     0.79510   0.10559   0.74999   0.00000  Uiso   1.00
O679   O     0.87154   0.10558   0.74999   0.00000  Uiso   1.00
O680   O     0.81409   0.16668   0.67319   0.00000  Uiso   1.00
O681   O     0.89053   0.16667   0.67319   0.00000  Uiso   1.00
O682   O     0.74896   0.04000   0.81868   0.00000  Uiso   1.00
Zn683  Zn    0.78229   0.16667   0.75000   0.00000  Uiso   1.00
Zn684  Zn    0.88438   0.16666   0.75000   0.00000  Uiso   1.00
Br685  Br    0.07642   0.43419   0.66912   0.00000  Uiso   1.00
Br686  Br    0.28852   0.41813   0.88968   0.00000  Uiso   1.00
C687   C     0.16666   0.57995   0.75010   0.00000  Uiso   1.00
C688   C     0.12291   0.49197   0.91066   0.00000  Uiso   1.00
C689   C     0.20824   0.64547   0.72400   0.00000  Uiso   1.00
C690   C     0.14011   0.49726   0.85195   0.00000  Uiso   1.00
C691   C     0.20777   0.35492   0.72519   0.00000  Uiso   1.00
C692   C     0.16553   0.37591   0.75481   0.00000  Uiso   1.00
C693   C     0.12351   0.35421   0.78500   0.00000  Uiso   1.00
C694   C     0.12394   0.64463   0.78150   0.00000  Uiso   1.00
C695   C     0.16620   0.62404   0.75151   0.00000  Uiso   1.00
C696   C     0.31891   0.47350   0.71699   0.00000  Uiso   1.00
C697   C     0.03335   0.47330   0.71688   0.00000  Uiso   1.00
C698   C     0.14379   0.48723   0.99201   0.00000  Uiso   1.00
C699   C     0.01405   0.52646   0.78326   0.00000  Uiso   1.00
C700   C     0.29947   0.52643   0.78326   0.00000  Uiso   1.00
C701   C     0.16610   0.42007   0.75184   0.00000  Uiso   1.00
C702   C     0.19329   0.49971   0.64784   0.00000  Uiso   1.00
C703   C     0.26087   0.45916   0.50848   0.00000  Uiso   1.00
C704   C     0.20930   0.49341   0.58956   0.00000  Uiso   1.00
C705   C     0.07668   0.50594   0.94130   0.00000  Uiso   1.00
C706   C     0.06307   0.50857   0.99733   0.00000  Uiso   1.00
C707   C     0.09652   0.50045   0.52262   0.00000  Uiso   1.00
C708   C     0.15437   0.47757   0.93691   0.00000  Uiso   1.00
C709   C     0.18094   0.48354   0.51417   0.00000  Uiso   1.00
C710   C     0.22498   0.46334   0.98466   0.00000  Uiso   1.00
C711   C     0.23155   0.44760   0.93256   0.00000  Uiso   1.00
C712   C     0.19638   0.45452   0.90939   0.00000  Uiso   1.00
C713   C     0.17581   0.50100   0.56445   0.00000  Uiso   1.00
C714   C     0.25258   0.47335   0.56127   0.00000  Uiso   1.00
H715   H     0.27896   0.46722   0.58055   0.00000  Uiso   1.00
H716   H     0.08418   0.50369   0.56617   0.00000  Uiso   1.00
H717   H     0.02715   0.51875   0.52104   0.00000  Uiso   1.00
H718   H     0.20214   0.44116   0.86969   0.00000  Uiso   1.00
H719   H     0.24088   0.62915   0.70072   0.00000  Uiso   1.00
H720   H     0.09110   0.40012   0.83196   0.00000  Uiso   1.00
H721   H     0.24005   0.37163   0.70213   0.00000  Uiso   1.00
H722   H     0.09192   0.62731   0.80392   0.00000  Uiso   1.00
H723   H     0.30832   0.45238   0.69065   0.00000  Uiso   1.00
H724   H     0.02421   0.54762   0.80986   0.00000  Uiso   1.00
H725   H     0.27343   0.54760   0.80989   0.00000  Uiso   1.00
H726   H     0.29467   0.44379   0.98751   0.00000  Uiso   1.00
H727   H     0.14492   0.51989   0.58586   0.00000  Uiso   1.00
H728   H     0.05155   0.51587   0.92189   0.00000  Uiso   1.00
N729   N     0.04760   0.50001   0.75001   0.00000  Uiso   1.00
N730   N     0.28573   0.49998   0.75000   0.00000  Uiso   1.00
O731   O     0.12846   0.56108   0.75000   0.00000  Uiso   1.00
O732   O     0.20490   0.56107   0.75000   0.00000  Uiso   1.00
O733   O     0.10947   0.50000   0.82681   0.00000  Uiso   1.00
O734   O     0.18591   0.49999   0.82681   0.00000  Uiso   1.00
O735   O     0.12843   0.43893   0.74999   0.00000  Uiso   1.00
O736   O     0.20488   0.43892   0.74999   0.00000  Uiso   1.00
O737   O     0.14742   0.50001   0.67319   0.00000  Uiso   1.00
O738   O     0.22387   0.50000   0.67319   0.00000  Uiso   1.00
O739   O     0.08229   0.37334   0.81868   0.00000  Uiso   1.00
Zn740  Zn    0.11562   0.50001   0.75000   0.00000  Uiso   1.00
Zn741  Zn    0.21771   0.49999   0.75000   0.00000  Uiso   1.00
Br742  Br    0.40975   0.43419   0.66912   0.00000  Uiso   1.00
Br743  Br    0.62186   0.41813   0.88968   0.00000  Uiso   1.00
C744   C     0.49999   0.57995   0.75010   0.00000  Uiso   1.00
C745   C     0.45624   0.49197   0.91066   0.00000  Uiso   1.00
C746   C     0.54158   0.64547   0.72400   0.00000  Uiso   1.00
C747   C     0.47344   0.49726   0.85195   0.00000  Uiso   1.00
C748   C     0.54111   0.35492   0.72519   0.00000  Uiso   1.00
C749   C     0.49887   0.37591   0.75481   0.00000  Uiso   1.00
C750   C     0.45684   0.35421   0.78500   0.00000  Uiso   1.00
C751   C     0.45727   0.64463   0.78150   0.00000  Uiso   1.00
C752   C     0.49954   0.62404   0.75151   0.00000  Uiso   1.00
C753   C     0.65224   0.47350   0.71699   0.00000  Uiso   1.00
C754   C     0.36668   0.47330   0.71688   0.00000  Uiso   1.00
C755   C     0.47712   0.48723   0.99201   0.00000  Uiso   1.00
C756   C     0.34739   0.52646   0.78326   0.00000  Uiso   1.00
C757   C     0.63280   0.52643   0.78326   0.00000  Uiso   1.00
C758   C     0.49944   0.42007   0.75184   0.00000  Uiso   1.00
C759   C     0.52662   0.49971   0.64784   0.00000  Uiso   1.00
C760   C     0.59420   0.45916   0.50848   0.00000  Uiso   1.00
C761   C     0.54263   0.49341   0.58956   0.00000  Uiso   1.00
C762   C     0.41002   0.50594   0.94130   0.00000  Uiso   1.00
C763   C     0.39640   0.50857   0.99733   0.00000  Uiso   1.00
C764   C     0.42986   0.50045   0.52262   0.00000  Uiso   1.00
C765   C     0.48771   0.47757   0.93691   0.00000  Uiso   1.00
C766   C     0.51427   0.48354   0.51417   0.00000  Uiso   1.00
C767   C     0.55831   0.46334   0.98466   0.00000  Uiso   1.00
C768   C     0.56488   0.44760   0.93256   0.00000  Uiso   1.00
C769   C     0.52971   0.45452   0.90939   0.00000  Uiso   1.00
C770   C     0.50914   0.50100   0.56445   0.00000  Uiso   1.00
C771   C     0.58591   0.47335   0.56127   0.00000  Uiso   1.00
H772   H     0.61229   0.46722   0.58055   0.00000  Uiso   1.00
H773   H     0.41752   0.50369   0.56617   0.00000  Uiso   1.00
H774   H     0.36049   0.51875   0.52104   0.00000  Uiso   1.00
H775   H     0.53547   0.44116   0.86969   0.00000  Uiso   1.00
H776   H     0.57421   0.62915   0.70072   0.00000  Uiso   1.00
H777   H     0.42443   0.40012   0.83196   0.00000  Uiso   1.00
H778   H     0.57339   0.37163   0.70213   0.00000  Uiso   1.00
H779   H     0.42526   0.62731   0.80392   0.00000  Uiso   1.00
H780   H     0.64166   0.45238   0.69065   0.00000  Uiso   1.00
H781   H     0.35754   0.54762   0.80986   0.00000  Uiso   1.00
H782   H     0.60676   0.54760   0.80989   0.00000  Uiso   1.00
H783   H     0.62800   0.44379   0.98751   0.00000  Uiso   1.00
H784   H     0.47825   0.51989   0.58586   0.00000  Uiso   1.00
H785   H     0.38488   0.51587   0.92189   0.00000  Uiso   1.00
N786   N     0.38093   0.50001   0.75001   0.00000  Uiso   1.00
N787   N     0.61906   0.49998   0.75000   0.00000  Uiso   1.00
O788   O     0.46179   0.56108   0.75000   0.00000  Uiso   1.00
O789   O     0.53823   0.56107   0.75000   0.00000  Uiso   1.00
O790   O     0.44280   0.50000   0.82681   0.00000  Uiso   1.00
O791   O     0.51924   0.49999   0.82681   0.00000  Uiso   1.00
O792   O     0.46177   0.43893   0.74999   0.00000  Uiso   1.00
O793   O     0.53821   0.43892   0.74999   0.00000  Uiso   1.00
O794   O     0.48076   0.50001   0.67319   0.00000  Uiso   1.00
O795   O     0.55720   0.50000   0.67319   0.00000  Uiso   1.00
O796   O     0.41562   0.37334   0.81868   0.00000  Uiso   1.00
Zn797  Zn    0.44896   0.50001   0.75000   0.00000  Uiso   1.00
Zn798  Zn    0.55104   0.49999   0.75000   0.00000  Uiso   1.00
Br799  Br    0.74309   0.43419   0.66912   0.00000  Uiso   1.00
Br800  Br    0.95519   0.41813   0.88968   0.00000  Uiso   1.00
C801   C     0.83332   0.57995   0.75010   0.00000  Uiso   1.00
C802   C     0.78957   0.49197   0.91066   0.00000  Uiso   1.00
C803   C     0.87491   0.64547   0.72400   0.00000  Uiso   1.00
C804   C     0.80678   0.49726   0.85195   0.00000  Uiso   1.00
C805   C     0.87444   0.35492   0.72519   0.00000  Uiso   1.00
C806   C     0.83220   0.37591   0.75481   0.00000  Uiso   1.00
C807   C     0.79018   0.35421   0.78500   0.00000  Uiso   1.00
C808   C     0.79061   0.64463   0.78150   0.00000  Uiso   1.00
C809   C     0.83287   0.62404   0.75151   0.00000  Uiso   1.00
C810   C     0.98557   0.47350   0.71699   0.00000  Uiso   1.00
C811   C     0.70002   0.47330   0.71688   0.00000  Uiso   1.00
C812   C     0.81045   0.48723   0.99201   0.00000  Uiso   1.00
C813   C     0.68072   0.52646   0.78326   0.00000  Uiso   1.00
C814   C     0.96614   0.52643   0.78326   0.00000  Uiso   1.00
C815   C     0.83277   0.42007   0.75184   0.00000  Uiso   1.00
C816   C     0.85996   0.49971   0.64784   0.00000  Uiso   1.00
C817   C     0.92753   0.45916   0.50848   0.00000  Uiso   1.00
C818   C     0.87597   0.49341   0.58956   0.00000  Uiso   1.00
C819   C     0.74335   0.50594   0.94130   0.00000  Uiso   1.00
C820   C     0.72973   0.50857   0.99733   0.00000  Uiso   1.00
C821   C     0.76319   0.50045   0.52262   0.00000  Uiso   1.00
C822   C     0.82104   0.47757   0.93691   0.00000  Uiso   1.00
C823   C     0.84761   0.48354   0.51417   0.00000  Uiso   1.00
C824   C     0.89164   0.46334   0.98466   0.00000  Uiso   1.00
C825   C     0.89822   0.44760   0.93256   0.00000  Uiso   1.00
C826   C     0.86305   0.45452   0.90939   0.00000  Uiso   1.00
C827   C     0.84247   0.50100   0.56445   0.00000  Uiso   1.00
C828   C     0.91924   0.47335   0.56127   0.00000  Uiso   1.00
H829   H     0.94562   0.46722   0.58055   0.00000  Uiso   1.00
H830   H     0.75085   0.50369   0.56617   0.00000  Uiso   1.00
H831   H     0.69382   0.51875   0.52104   0.00000  Uiso   1.00
H832   H     0.86880   0.44116   0.86969   0.00000  Uiso   1.00
H833   H     0.90755   0.62915   0.70072   0.00000  Uiso   1.00
H834   H     0.75776   0.40012   0.83196   0.00000  Uiso   1.00
H835   H     0.90672   0.37163   0.70213   0.00000  Uiso   1.00
H836   H     0.75859   0.62731   0.80392   0.00000  Uiso   1.00
H837   H     0.97499   0.45238   0.69065   0.00000  Uiso   1.00
H838   H     0.69088   0.54762   0.80986   0.00000  Uiso   1.00
H839   H     0.94009   0.54760   0.80989   0.00000  Uiso   1.00
H840   H     0.96134   0.44379   0.98751   0.00000  Uiso   1.00
H841   H     0.81158   0.51989   0.58586   0.00000  Uiso   1.00
H842   H     0.71821   0.51587   0.92189   0.00000  Uiso   1.00
N843   N     0.71426   0.50001   0.75001   0.00000  Uiso   1.00
N844   N     0.95239   0.49998   0.75000   0.00000  Uiso   1.00
O845   O     0.79512   0.56108   0.75000   0.00000  Uiso   1.00
O846   O     0.87157   0.56107   0.75000   0.00000  Uiso   1.00
O847   O     0.77613   0.50000   0.82681   0.00000  Uiso   1.00
O848   O     0.85258   0.49999   0.82681   0.00000  Uiso   1.00
O849   O     0.79510   0.43893   0.74999   0.00000  Uiso   1.00
O850   O     0.87154   0.43892   0.74999   0.00000  Uiso   1.00
O851   O     0.81409   0.50001   0.67319   0.00000  Uiso   1.00
O852   O     0.89053   0.50000   0.67319   0.00000  Uiso   1.00
O853   O     0.74896   0.37334   0.81868   0.00000  Uiso   1.00
Zn854  Zn    0.78229   0.50001   0.75000   0.00000  Uiso   1.00
Zn855  Zn    0.88438   0.49999   0.75000   0.00000  Uiso   1.00
Br856  Br    0.07642   0.76752   0.66912   0.00000  Uiso   1.00
Br857  Br    0.28852   0.75146   0.88968   0.00000  Uiso   1.00
C858   C     0.16666   0.91329   0.75010   0.00000  Uiso   1.00
C859   C     0.12291   0.82531   0.91066   0.00000  Uiso   1.00
C860   C     0.20824   0.97880   0.72400   0.00000  Uiso   1.00
C861   C     0.14011   0.83059   0.85195   0.00000  Uiso   1.00
C862   C     0.20777   0.68825   0.72519   0.00000  Uiso   1.00
C863   C     0.16553   0.70924   0.75481   0.00000  Uiso   1.00
C864   C     0.12351   0.68754   0.78500   0.00000  Uiso   1.00
C865   C     0.12394   0.97797   0.78150   0.00000  Uiso   1.00
C866   C     0.16620   0.95738   0.75151   0.00000  Uiso   1.00
C867   C     0.31891   0.80684   0.71699   0.00000  Uiso   1.00
C868   C     0.03335   0.80663   0.71688   0.00000  Uiso   1.00
C869   C     0.14379   0.82057   0.99201   0.00000  Uiso   1.00
C870   C     0.01405   0.85979   0.78326   0.00000  Uiso   1.00
C871   C     0.29947   0.85976   0.78326   0.00000  Uiso   1.00
C872   C     0.16610   0.75340   0.75184   0.00000  Uiso   1.00
C873   C     0.19329   0.83305   0.64784   0.00000  Uiso   1.00
C874   C     0.26087   0.79249   0.50848   0.00000  Uiso   1.00
C875   C     0.20930   0.82675   0.58956   0.00000  Uiso   1.00
C876   C     0.07668   0.83928   0.94130   0.00000  Uiso   1.00
C877   C     0.06307   0.84190   0.99733   0.00000  Uiso   1.00
C878   C     0.09652   0.83378   0.52262   0.00000  Uiso   1.00
C879   C     0.15437   0.81091   0.93691   0.00000  Uiso   1.00
C880   C     0.18094   0.81687   0.51417   0.00000  Uiso   1.00
C881   C     0.22498   0.79667   0.98466   0.00000  Uiso   1.00
C882   C     0.23155   0.78093   0.93256   0.00000  Uiso   1.00
C883   C     0.19638   0.78785   0.90939   0.00000  Uiso   1.00
C884   C     0.17581   0.83433   0.56445   0.00000  Uiso   1.00
C885   C     0.25258   0.80669   0.56127   0.00000  Uiso   1.00
H886   H     0.27896   0.80055   0.58055   0.00000  Uiso   1.00
H887   H     0.08418   0.83702   0.56617   0.00000  Uiso   1.00
H888   H     0.02715   0.85208   0.52104   0.00000  Uiso   1.00
H889   H     0.20214   0.77449   0.86969   0.00000  Uiso   1.00
H890   H     0.24088   0.96248   0.70072   0.00000  Uiso   1.00
H891   H     0.09110   0.73345   0.83196   0.00000  Uiso   1.00
H892   H     0.24005   0.70496   0.70213   0.00000  Uiso   1.00
H893   H     0.09192   0.96064   0.80392   0.00000  Uiso   1.00
H894   H     0.30832   0.78571   0.69065   0.00000  Uiso   1.00
H895   H     0.02421   0.88095   0.80986   0.00000  Uiso   1.00
H896   H     0.27343   0.88093   0.80989   0.00000  Uiso   1.00
H897   H     0.29467   0.77713   0.98751   0.00000  Uiso   1.00
H898   H     0.14492   0.85323   0.58586   0.00000  Uiso   1.00
H899   H     0.05155   0.84920   0.92189   0.00000  Uiso   1.00
N900   N     0.04760   0.83334   0.75001   0.00000  Uiso   1.00
N901   N     0.28573   0.83331   0.75000   0.00000  Uiso   1.00
O902   O     0.12846   0.89442   0.75000   0.00000  Uiso   1.00
O903   O     0.20490   0.89441   0.75000   0.00000  Uiso   1.00
O904   O     0.10947   0.83333   0.82681   0.00000  Uiso   1.00
O905   O     0.18591   0.83332   0.82681   0.00000  Uiso   1.00
O906   O     0.12843   0.77226   0.74999   0.00000  Uiso   1.00
O907   O     0.20488   0.77225   0.74999   0.00000  Uiso   1.00
O908   O     0.14742   0.83335   0.67319   0.00000  Uiso   1.00
O909   O     0.22387   0.83334   0.67319   0.00000  Uiso   1.00
O910   O     0.08229   0.70667   0.81868   0.00000  Uiso   1.00
Zn911  Zn    0.11562   0.83334   0.75000   0.00000  Uiso   1.00
Zn912  Zn    0.21771   0.83333   0.75000   0.00000  Uiso   1.00
Br913  Br    0.40975   0.76752   0.66912   0.00000  Uiso   1.00
Br914  Br    0.62186   0.75146   0.88968   0.00000  Uiso   1.00
C915   C     0.49999   0.91329   0.75010   0.00000  Uiso   1.00
C916   C     0.45624   0.82531   0.91066   0.00000  Uiso   1.00
C917   C     0.54158   0.97880   0.72400   0.00000  Uiso   1.00
C918   C     0.47344   0.83059   0.85195   0.00000  Uiso   1.00
C919   C     0.54111   0.68825   0.72519   0.00000  Uiso   1.00
C920   C     0.49887   0.70924   0.75481   0.00000  Uiso   1.00
C921   C     0.45684   0.68754   0.78500   0.00000  Uiso   1.00
C922   C     0.45727   0.97797   0.78150   0.00000  Uiso   1.00
C923   C     0.49954   0.95738   0.75151   0.00000  Uiso   1.00
C924   C     0.65224   0.80684   0.71699   0.00000  Uiso   1.00
C925   C     0.36668   0.80663   0.71688   0.00000  Uiso   1.00
C926   C     0.47712   0.82057   0.99201   0.00000  Uiso   1.00
C927   C     0.34739   0.85979   0.78326   0.00000  Uiso   1.00
C928   C     0.63280   0.85976   0.78326   0.00000  Uiso   1.00
C929   C     0.49944   0.75340   0.75184   0.00000  Uiso   1.00
C930   C     0.52662   0.83305   0.64784   0.00000  Uiso   1.00
C931   C     0.59420   0.79249   0.50848   0.00000  Uiso   1.00
C932   C     0.54263   0.82675   0.58956   0.00000  Uiso   1.00
C933   C     0.41002   0.83928   0.94130   0.00000  Uiso   1.00
C934   C     0.39640   0.84190   0.99733   0.00000  Uiso   1.00
C935   C     0.42986   0.83378   0.52262   0.00000  Uiso   1.00
C936   C     0.48771   0.81091   0.93691   0.00000  Uiso   1.00
C937   C     0.51427   0.81687   0.51417   0.00000  Uiso   1.00
C938   C     0.55831   0.79667   0.98466   0.00000  Uiso   1.00
C939   C     0.56488   0.78093   0.93256   0.00000  Uiso   1.00
C940   C     0.52971   0.78785   0.90939   0.00000  Uiso   1.00
C941   C     0.50914   0.83433   0.56445   0.00000  Uiso   1.00
C942   C     0.58591   0.80669   0.56127   0.00000  Uiso   1.00
H943   H     0.61229   0.80055   0.58055   0.00000  Uiso   1.00
H944   H     0.41752   0.83702   0.56617   0.00000  Uiso   1.00
H945   H     0.36049   0.85208   0.52104   0.00000  Uiso   1.00
H946   H     0.53547   0.77449   0.86969   0.00000  Uiso   1.00
H947   H     0.57421   0.96248   0.70072   0.00000  Uiso   1.00
H948   H     0.42443   0.73345   0.83196   0.00000  Uiso   1.00
H949   H     0.57339   0.70496   0.70213   0.00000  Uiso   1.00
H950   H     0.42526   0.96064   0.80392   0.00000  Uiso   1.00
H951   H     0.64166   0.78571   0.69065   0.00000  Uiso   1.00
H952   H     0.35754   0.88095   0.80986   0.00000  Uiso   1.00
H953   H     0.60676   0.88093   0.80989   0.00000  Uiso   1.00
H954   H     0.62800   0.77713   0.98751   0.00000  Uiso   1.00
H955   H     0.47825   0.85323   0.58586   0.00000  Uiso   1.00
H956   H     0.38488   0.84920   0.92189   0.00000  Uiso   1.00
N957   N     0.38093   0.83334   0.75001   0.00000  Uiso   1.00
N958   N     0.61906   0.83331   0.75000   0.00000  Uiso   1.00
O959   O     0.46179   0.89442   0.75000   0.00000  Uiso   1.00
O960   O     0.53823   0.89441   0.75000   0.00000  Uiso   1.00
O961   O     0.44280   0.83333   0.82681   0.00000  Uiso   1.00
O962   O     0.51924   0.83332   0.82681   0.00000  Uiso   1.00
O963   O     0.46177   0.77226   0.74999   0.00000  Uiso   1.00
O964   O     0.53821   0.77225   0.74999   0.00000  Uiso   1.00
O965   O     0.48076   0.83335   0.67319   0.00000  Uiso   1.00
O966   O     0.55720   0.83334   0.67319   0.00000  Uiso   1.00
O967   O     0.41562   0.70667   0.81868   0.00000  Uiso   1.00
Zn968  Zn    0.44896   0.83334   0.75000   0.00000  Uiso   1.00
Zn969  Zn    0.55104   0.83333   0.75000   0.00000  Uiso   1.00
Br970  Br    0.74309   0.76752   0.66912   0.00000  Uiso   1.00
Br971  Br    0.95519   0.75146   0.88968   0.00000  Uiso   1.00
C972   C     0.83332   0.91329   0.75010   0.00000  Uiso   1.00
C973   C     0.78957   0.82531   0.91066   0.00000  Uiso   1.00
C974   C     0.87491   0.97880   0.72400   0.00000  Uiso   1.00
C975   C     0.80678   0.83059   0.85195   0.00000  Uiso   1.00
C976   C     0.87444   0.68825   0.72519   0.00000  Uiso   1.00
C977   C     0.83220   0.70924   0.75481   0.00000  Uiso   1.00
C978   C     0.79018   0.68754   0.78500   0.00000  Uiso   1.00
C979   C     0.79061   0.97797   0.78150   0.00000  Uiso   1.00
C980   C     0.83287   0.95738   0.75151   0.00000  Uiso   1.00
C981   C     0.98557   0.80684   0.71699   0.00000  Uiso   1.00
C982   C     0.70002   0.80663   0.71688   0.00000  Uiso   1.00
C983   C     0.81045   0.82057   0.99201   0.00000  Uiso   1.00
C984   C     0.68072   0.85979   0.78326   0.00000  Uiso   1.00
C985   C     0.96614   0.85976   0.78326   0.00000  Uiso   1.00
C986   C     0.83277   0.75340   0.75184   0.00000  Uiso   1.00
C987   C     0.85996   0.83305   0.64784   0.00000  Uiso   1.00
C988   C     0.92753   0.79249   0.50848   0.00000  Uiso   1.00
C989   C     0.87597   0.82675   0.58956   0.00000  Uiso   1.00
C990   C     0.74335   0.83928   0.94130   0.00000  Uiso   1.00
C991   C     0.72973   0.84190   0.99733   0.00000  Uiso   1.00
C992   C     0.76319   0.83378   0.52262   0.00000  Uiso   1.00
C993   C     0.82104   0.81091   0.93691   0.00000  Uiso   1.00
C994   C     0.84761   0.81687   0.51417   0.00000  Uiso   1.00
C995   C     0.89164   0.79667   0.98466   0.00000  Uiso   1.00
C996   C     0.89822   0.78093   0.93256   0.00000  Uiso   1.00
C997   C     0.86305   0.78785   0.90939   0.00000  Uiso   1.00
C998   C     0.84247   0.83433   0.56445   0.00000  Uiso   1.00
C999   C     0.91924   0.80669   0.56127   0.00000  Uiso   1.00
H1000  H     0.94562   0.80055   0.58055   0.00000  Uiso   1.00
H1001  H     0.75085   0.83702   0.56617   0.00000  Uiso   1.00
H1002  H     0.69382   0.85208   0.52104   0.00000  Uiso   1.00
H1003  H     0.86880   0.77449   0.86969   0.00000  Uiso   1.00
H1004  H     0.90755   0.96248   0.70072   0.00000  Uiso   1.00
H1005  H     0.75776   0.73345   0.83196   0.00000  Uiso   1.00
H1006  H     0.90672   0.70496   0.70213   0.00000  Uiso   1.00
H1007  H     0.75859   0.96064   0.80392   0.00000  Uiso   1.00
H1008  H     0.97499   0.78571   0.69065   0.00000  Uiso   1.00
H1009  H     0.69088   0.88095   0.80986   0.00000  Uiso   1.00
H1010  H     0.94009   0.88093   0.80989   0.00000  Uiso   1.00
H1011  H     0.96134   0.77713   0.98751   0.00000  Uiso   1.00
H1012  H     0.81158   0.85323   0.58586   0.00000  Uiso   1.00
H1013  H     0.71821   0.84920   0.92189   0.00000  Uiso   1.00
N1014  N     0.71426   0.83334   0.75001   0.00000  Uiso   1.00
N1015  N     0.95239   0.83331   0.75000   0.00000  Uiso   1.00
O1016  O     0.79512   0.89442   0.75000   0.00000  Uiso   1.00
O1017  O     0.87157   0.89441   0.75000   0.00000  Uiso   1.00
O1018  O     0.77613   0.83333   0.82681   0.00000  Uiso   1.00
O1019  O     0.85258   0.83332   0.82681   0.00000  Uiso   1.00
O1020  O     0.79510   0.77226   0.74999   0.00000  Uiso   1.00
O1021  O     0.87154   0.77225   0.74999   0.00000  Uiso   1.00
O1022  O     0.81409   0.83335   0.67319   0.00000  Uiso   1.00
O1023  O     0.89053   0.83334   0.67319   0.00000  Uiso   1.00
O1024  O     0.74896   0.70667   0.81868   0.00000  Uiso   1.00
Zn1025 Zn    0.78229   0.83334   0.75000   0.00000  Uiso   1.00
Zn1026 Zn    0.88438   0.83333   0.75000   0.00000  Uiso   1.00
loop_
_geom_bond_atom_site_label_1
_geom_bond_atom_site_label_2
_geom_bond_distance
_geom_bond_site_symmetry_2
_ccdc_geom_bond_type
Br1    C13     1.913   .     S
Br2    C27     1.923   .     S
C3     O47     1.282   .     A
C3     C11     1.411   .     S
C3     O48     1.283   .     A
C4     C21     1.403   .     A
C4     C24     1.413   .     A
C4     C6      1.460   .     S
C5     H35     1.084   .     S
C5     C11     1.391   .     A
C5     C178    1.369   .     S
C6     O50     1.294   .     A
C6     O49     1.293   .     A
C7     H37     1.084   .     S
C7     C8      1.398   .     A
C7     C347    1.369   1_545 S
C8     C17     1.415   .     S
C8     C9      1.412   .     A
C9     O55     1.381   .     S
C9     C352    1.375   1_545 S
C10    H38     1.085   .     S
C10    C11     1.395   .     A
C10    C180    1.375   .     S
C12    H39     1.082   .     S
C12    N46     1.359   .     A
C12    C70     1.413   .     S
C13    N45     1.378   .     A
C13    C126    1.413   1_455 S
C14    C24     1.403   .     A
C14    C536    1.419   .     S
C14    C538    1.413   .     S
C15    H40     1.082   .     S
C15    N45     1.366   .     A
C15    C130    1.418   1_455 S
C16    N46     1.368   .     A
C16    H41     1.082   .     S
C16    C72     1.418   .     S
C17    O51     1.284   .     A
C17    O52     1.282   .     A
C18    C20     1.452   .     S
C18    O54     1.292   .     A
C18    O53     1.293   .     A
C19    C30     1.395   .     A
C19    C539    1.410   1_554 S
C19    H555    1.081   1_554 S
C20    C30     1.398   .     A
C20    C29     1.386   .     A
C21    H44     1.083   .     S
C21    C22     1.388   .     A
C22    C536    1.392   .     S
C22    H546    1.083   .     S
C23    H32     1.079   .     S
C23    C527    1.419   1_554 S
C23    C535    1.392   1_554 S
C24    C28     1.413   .     A
C25    C29     1.389   .     A
C25    C527    1.413   1_554 S
C25    C539    1.424   1_554 S
C26    C27     1.403   .     A
C26    C532    1.410   .     S
C26    C538    1.424   .     S
C27    C28     1.391   .     A
C28    H34     1.082   .     S
C29    H43     1.079   .     S
C30    H31     1.083   .     S
H33    C535    1.083   1_554 S
H36    O55     0.990   .     S
H42    C532    1.081   .     S
N45    Zn56    2.013   .     S
N46    Zn57    2.013   .     S
O47    Zn56    1.990   .     S
O48    Zn57    1.991   .     S
O49    Zn56    1.961   .     S
O50    Zn57    1.913   .     S
O51    Zn56    1.991   .     S
O52    Zn57    1.990   .     S
O53    Zn56    1.913   .     S
O54    Zn57    1.961   .     S
Br58   C70     1.913   .     S
Br59   C84     1.923   .     S
C60    O104    1.282   .     A
C60    C68     1.411   .     S
C60    O105    1.283   .     A
C61    C78     1.403   .     A
C61    C81     1.413   .     A
C61    C63     1.460   .     S
C62    H92     1.084   .     S
C62    C68     1.391   .     A
C62    C235    1.369   .     S
C63    O107    1.294   .     A
C63    O106    1.293   .     A
C64    H94     1.084   .     S
C64    C65     1.398   .     A
C64    C404    1.369   1_545 S
C65    C74     1.415   .     S
C65    C66     1.412   .     A
C66    O112    1.381   .     S
C66    C409    1.375   1_545 S
C67    H95     1.085   .     S
C67    C68     1.395   .     A
C67    C237    1.375   .     S
C69    H96     1.082   .     S
C69    N103    1.359   .     A
C69    C127    1.413   .     S
C70    N102    1.378   .     A
C71    C81     1.403   .     A
C71    C593    1.419   .     S
C71    C595    1.413   .     S
C72    H97     1.082   .     S
C72    N102    1.366   .     A
C73    N103    1.368   .     A
C73    H98     1.082   .     S
C73    C129    1.418   .     S
C74    O108    1.284   .     A
C74    O109    1.282   .     A
C75    C77     1.452   .     S
C75    O111    1.292   .     A
C75    O110    1.293   .     A
C76    C87     1.395   .     A
C76    C596    1.410   1_554 S
C76    H612    1.081   1_554 S
C77    C87     1.398   .     A
C77    C86     1.386   .     A
C78    H101    1.083   .     S
C78    C79     1.388   .     A
C79    C593    1.392   .     S
C79    H603    1.083   .     S
C80    H89     1.079   .     S
C80    C584    1.419   1_554 S
C80    C592    1.392   1_554 S
C81    C85     1.413   .     A
C82    C86     1.389   .     A
C82    C584    1.413   1_554 S
C82    C596    1.424   1_554 S
C83    C84     1.403   .     A
C83    C589    1.410   .     S
C83    C595    1.424   .     S
C84    C85     1.391   .     A
C85    H91     1.082   .     S
C86    H100    1.079   .     S
C87    H88     1.083   .     S
H90    C592    1.083   1_554 S
H93    O112    0.990   .     S
H99    C589    1.081   .     S
N102   Zn113   2.013   .     S
N103   Zn114   2.013   .     S
O104   Zn113   1.990   .     S
O105   Zn114   1.991   .     S
O106   Zn113   1.961   .     S
O107   Zn114   1.913   .     S
O108   Zn113   1.991   .     S
O109   Zn114   1.990   .     S
O110   Zn113   1.913   .     S
O111   Zn114   1.961   .     S
Br115  C127    1.913   .     S
Br116  C141    1.923   .     S
C117   O161    1.282   .     A
C117   C125    1.411   .     S
C117   O162    1.283   .     A
C118   C135    1.403   .     A
C118   C138    1.413   .     A
C118   C120    1.460   .     S
C119   H149    1.084   .     S
C119   C125    1.391   .     A
C119   C292    1.369   .     S
C120   O164    1.294   .     A
C120   O163    1.293   .     A
C121   H151    1.084   .     S
C121   C122    1.398   .     A
C121   C461    1.369   1_545 S
C122   C131    1.415   .     S
C122   C123    1.412   .     A
C123   O169    1.381   .     S
C123   C466    1.375   1_545 S
C124   H152    1.085   .     S
C124   C125    1.395   .     A
C124   C294    1.375   .     S
C126   H153    1.082   .     S
C126   N160    1.359   .     A
C126   C13     1.413   1_655 S
C127   N159    1.378   .     A
C128   C138    1.403   .     A
C128   C650    1.419   .     S
C128   C652    1.413   .     S
C129   H154    1.082   .     S
C129   N159    1.366   .     A
C130   N160    1.368   .     A
C130   H155    1.082   .     S
C130   C15     1.418   1_655 S
C131   O165    1.284   .     A
C131   O166    1.282   .     A
C132   C134    1.452   .     S
C132   O168    1.292   .     A
C132   O167    1.293   .     A
C133   C144    1.395   .     A
C133   C653    1.410   1_554 S
C133   H669    1.081   1_554 S
C134   C144    1.398   .     A
C134   C143    1.386   .     A
C135   H158    1.083   .     S
C135   C136    1.388   .     A
C136   C650    1.392   .     S
C136   H660    1.083   .     S
C137   H146    1.079   .     S
C137   C641    1.419   1_554 S
C137   C649    1.392   1_554 S
C138   C142    1.413   .     A
C139   C143    1.389   .     A
C139   C641    1.413   1_554 S
C139   C653    1.424   1_554 S
C140   C141    1.403   .     A
C140   C646    1.410   .     S
C140   C652    1.424   .     S
C141   C142    1.391   .     A
C142   H148    1.082   .     S
C143   H157    1.079   .     S
C144   H145    1.083   .     S
H147   C649    1.083   1_554 S
H150   O169    0.990   .     S
H156   C646    1.081   .     S
N159   Zn170   2.013   .     S
N160   Zn171   2.013   .     S
O161   Zn170   1.990   .     S
O162   Zn171   1.991   .     S
O163   Zn170   1.961   .     S
O164   Zn171   1.913   .     S
O165   Zn170   1.991   .     S
O166   Zn171   1.990   .     S
O167   Zn170   1.913   .     S
O168   Zn171   1.961   .     S
Br172  C184    1.913   .     S
Br173  C198    1.923   .     S
C174   O218    1.282   .     A
C174   C182    1.411   .     S
C174   O219    1.283   .     A
C175   C192    1.403   .     A
C175   C195    1.413   .     A
C175   C177    1.460   .     S
C176   H206    1.084   .     S
C176   C182    1.391   .     A
C176   C349    1.369   .     S
C177   O221    1.294   .     A
C177   O220    1.293   .     A
C178   H208    1.084   .     S
C178   C179    1.398   .     A
C179   C188    1.415   .     S
C179   C180    1.412   .     A
C180   O226    1.381   .     S
C181   H209    1.085   .     S
C181   C182    1.395   .     A
C181   C351    1.375   .     S
C183   H210    1.082   .     S
C183   N217    1.359   .     A
C183   C241    1.413   .     S
C184   N216    1.378   .     A
C184   C297    1.413   1_455 S
C185   C195    1.403   .     A
C185   C707    1.419   .     S
C185   C709    1.413   .     S
C186   H211    1.082   .     S
C186   N216    1.366   .     A
C186   C301    1.418   1_455 S
C187   N217    1.368   .     A
C187   H212    1.082   .     S
C187   C243    1.418   .     S
C188   O222    1.284   .     A
C188   O223    1.282   .     A
C189   C191    1.452   .     S
C189   O225    1.292   .     A
C189   O224    1.293   .     A
C190   C201    1.395   .     A
C190   C710    1.410   1_554 S
C190   H726    1.081   1_554 S
C191   C201    1.398   .     A
C191   C200    1.386   .     A
C192   H215    1.083   .     S
C192   C193    1.388   .     A
C193   C707    1.392   .     S
C193   H717    1.083   .     S
C194   H203    1.079   .     S
C194   C698    1.419   1_554 S
C194   C706    1.392   1_554 S
C195   C199    1.413   .     A
C196   C200    1.389   .     A
C196   C698    1.413   1_554 S
C196   C710    1.424   1_554 S
C197   C198    1.403   .     A
C197   C703    1.410   .     S
C197   C709    1.424   .     S
C198   C199    1.391   .     A
C199   H205    1.082   .     S
C200   H214    1.079   .     S
C201   H202    1.083   .     S
H204   C706    1.083   1_554 S
H207   O226    0.990   .     S
H213   C703    1.081   .     S
N216   Zn227   2.013   .     S
N217   Zn228   2.013   .     S
O218   Zn227   1.990   .     S
O219   Zn228   1.991   .     S
O220   Zn227   1.961   .     S
O221   Zn228   1.913   .     S
O222   Zn227   1.991   .     S
O223   Zn228   1.990   .     S
O224   Zn227   1.913   .     S
O225   Zn228   1.961   .     S
Br229  C241    1.913   .     S
Br230  C255    1.923   .     S
C231   O275    1.282   .     A
C231   C239    1.411   .     S
C231   O276    1.283   .     A
C232   C249    1.403   .     A
C232   C252    1.413   .     A
C232   C234    1.460   .     S
C233   H263    1.084   .     S
C233   C239    1.391   .     A
C233   C406    1.369   .     S
C234   O278    1.294   .     A
C234   O277    1.293   .     A
C235   H265    1.084   .     S
C235   C236    1.398   .     A
C236   C245    1.415   .     S
C236   C237    1.412   .     A
C237   O283    1.381   .     S
C238   H266    1.085   .     S
C238   C239    1.395   .     A
C238   C408    1.375   .     S
C240   H267    1.082   .     S
C240   N274    1.359   .     A
C240   C298    1.413   .     S
C241   N273    1.378   .     A
C242   C252    1.403   .     A
C242   C764    1.419   .     S
C242   C766    1.413   .     S
C243   H268    1.082   .     S
C243   N273    1.366   .     A
C244   N274    1.368   .     A
C244   H269    1.082   .     S
C244   C300    1.418   .     S
C245   O279    1.284   .     A
C245   O280    1.282   .     A
C246   C248    1.452   .     S
C246   O282    1.292   .     A
C246   O281    1.293   .     A
C247   C258    1.395   .     A
C247   C767    1.410   1_554 S
C247   H783    1.081   1_554 S
C248   C258    1.398   .     A
C248   C257    1.386   .     A
C249   H272    1.083   .     S
C249   C250    1.388   .     A
C250   C764    1.392   .     S
C250   H774    1.083   .     S
C251   H260    1.079   .     S
C251   C755    1.419   1_554 S
C251   C763    1.392   1_554 S
C252   C256    1.413   .     A
C253   C257    1.389   .     A
C253   C755    1.413   1_554 S
C253   C767    1.424   1_554 S
C254   C255    1.403   .     A
C254   C760    1.410   .     S
C254   C766    1.424   .     S
C255   C256    1.391   .     A
C256   H262    1.082   .     S
C257   H271    1.079   .     S
C258   H259    1.083   .     S
H261   C763    1.083   1_554 S
H264   O283    0.990   .     S
H270   C760    1.081   .     S
N273   Zn284   2.013   .     S
N274   Zn285   2.013   .     S
O275   Zn284   1.990   .     S
O276   Zn285   1.991   .     S
O277   Zn284   1.961   .     S
O278   Zn285   1.913   .     S
O279   Zn284   1.991   .     S
O280   Zn285   1.990   .     S
O281   Zn284   1.913   .     S
O282   Zn285   1.961   .     S
Br286  C298    1.913   .     S
Br287  C312    1.923   .     S
C288   O332    1.282   .     A
C288   C296    1.411   .     S
C288   O333    1.283   .     A
C289   C306    1.403   .     A
C289   C309    1.413   .     A
C289   C291    1.460   .     S
C290   H320    1.084   .     S
C290   C296    1.391   .     A
C290   C463    1.369   .     S
C291   O335    1.294   .     A
C291   O334    1.293   .     A
C292   H322    1.084   .     S
C292   C293    1.398   .     A
C293   C302    1.415   .     S
C293   C294    1.412   .     A
C294   O340    1.381   .     S
C295   H323    1.085   .     S
C295   C296    1.395   .     A
C295   C465    1.375   .     S
C297   H324    1.082   .     S
C297   N331    1.359   .     A
C297   C184    1.413   1_655 S
C298   N330    1.378   .     A
C299   C309    1.403   .     A
C299   C821    1.419   .     S
C299   C823    1.413   .     S
C300   H325    1.082   .     S
C300   N330    1.366   .     A
C301   N331    1.368   .     A
C301   H326    1.082   .     S
C301   C186    1.418   1_655 S
C302   O336    1.284   .     A
C302   O337    1.282   .     A
C303   C305    1.452   .     S
C303   O339    1.292   .     A
C303   O338    1.293   .     A
C304   C315    1.395   .     A
C304   C824    1.410   1_554 S
C304   H840    1.081   1_554 S
C305   C315    1.398   .     A
C305   C314    1.386   .     A
C306   H329    1.083   .     S
C306   C307    1.388   .     A
C307   C821    1.392   .     S
C307   H831    1.083   .     S
C308   H317    1.079   .     S
C308   C812    1.419   1_554 S
C308   C820    1.392   1_554 S
C309   C313    1.413   .     A
C310   C314    1.389   .     A
C310   C812    1.413   1_554 S
C310   C824    1.424   1_554 S
C311   C312    1.403   .     A
C311   C817    1.410   .     S
C311   C823    1.424   .     S
C312   C313    1.391   .     A
C313   H319    1.082   .     S
C314   H328    1.079   .     S
C315   H316    1.083   .     S
H318   C820    1.083   1_554 S
H321   O340    0.990   .     S
H327   C817    1.081   .     S
N330   Zn341   2.013   .     S
N331   Zn342   2.013   .     S
O332   Zn341   1.990   .     S
O333   Zn342   1.991   .     S
O334   Zn341   1.961   .     S
O335   Zn342   1.913   .     S
O336   Zn341   1.991   .     S
O337   Zn342   1.990   .     S
O338   Zn341   1.913   .     S
O339   Zn342   1.961   .     S
Br343  C355    1.913   .     S
Br344  C369    1.923   .     S
C345   O389    1.282   .     A
C345   C353    1.411   .     S
C345   O390    1.283   .     A
C346   C363    1.403   .     A
C346   C366    1.413   .     A
C346   C348    1.460   .     S
C347   H377    1.084   .     S
C347   C353    1.391   .     A
C347   C7      1.369   1_565 S
C348   O392    1.294   .     A
C348   O391    1.293   .     A
C349   H379    1.084   .     S
C349   C350    1.398   .     A
C350   C359    1.415   .     S
C350   C351    1.412   .     A
C351   O397    1.381   .     S
C352   H380    1.085   .     S
C352   C353    1.395   .     A
C352   C9      1.375   1_565 S
C354   H381    1.082   .     S
C354   N388    1.359   .     A
C354   C412    1.413   .     S
C355   N387    1.378   .     A
C355   C468    1.413   1_455 S
C356   C366    1.403   .     A
C356   C878    1.419   .     S
C356   C880    1.413   .     S
C357   H382    1.082   .     S
C357   N387    1.366   .     A
C357   C472    1.418   1_455 S
C358   N388    1.368   .     A
C358   H383    1.082   .     S
C358   C414    1.418   .     S
C359   O393    1.284   .     A
C359   O394    1.282   .     A
C360   C362    1.452   .     S
C360   O396    1.292   .     A
C360   O395    1.293   .     A
C361   C372    1.395   .     A
C361   C881    1.410   1_554 S
C361   H897    1.081   1_554 S
C362   C372    1.398   .     A
C362   C371    1.386   .     A
C363   H386    1.083   .     S
C363   C364    1.388   .     A
C364   C878    1.392   .     S
C364   H888    1.083   .     S
C365   H374    1.079   .     S
C365   C869    1.419   1_554 S
C365   C877    1.392   1_554 S
C366   C370    1.413   .     A
C367   C371    1.389   .     A
C367   C869    1.413   1_554 S
C367   C881    1.424   1_554 S
C368   C369    1.403   .     A
C368   C874    1.410   .     S
C368   C880    1.424   .     S
C369   C370    1.391   .     A
C370   H376    1.082   .     S
C371   H385    1.079   .     S
C372   H373    1.083   .     S
H375   C877    1.083   1_554 S
H378   O397    0.990   .     S
H384   C874    1.081   .     S
N387   Zn398   2.013   .     S
N388   Zn399   2.013   .     S
O389   Zn398   1.990   .     S
O390   Zn399   1.991   .     S
O391   Zn398   1.961   .     S
O392   Zn399   1.913   .     S
O393   Zn398   1.991   .     S
O394   Zn399   1.990   .     S
O395   Zn398   1.913   .     S
O396   Zn399   1.961   .     S
Br400  C412    1.913   .     S
Br401  C426    1.923   .     S
C402   O446    1.282   .     A
C402   C410    1.411   .     S
C402   O447    1.283   .     A
C403   C420    1.403   .     A
C403   C423    1.413   .     A
C403   C405    1.460   .     S
C404   H434    1.084   .     S
C404   C410    1.391   .     A
C404   C64     1.369   1_565 S
C405   O449    1.294   .     A
C405   O448    1.293   .     A
C406   H436    1.084   .     S
C406   C407    1.398   .     A
C407   C416    1.415   .     S
C407   C408    1.412   .     A
C408   O454    1.381   .     S
C409   H437    1.085   .     S
C409   C410    1.395   .     A
C409   C66     1.375   1_565 S
C411   H438    1.082   .     S
C411   N445    1.359   .     A
C411   C469    1.413   .     S
C412   N444    1.378   .     A
C413   C423    1.403   .     A
C413   C935    1.419   .     S
C413   C937    1.413   .     S
C414   H439    1.082   .     S
C414   N444    1.366   .     A
C415   N445    1.368   .     A
C415   H440    1.082   .     S
C415   C471    1.418   .     S
C416   O450    1.284   .     A
C416   O451    1.282   .     A
C417   C419    1.452   .     S
C417   O453    1.292   .     A
C417   O452    1.293   .     A
C418   C429    1.395   .     A
C418   C938    1.410   1_554 S
C418   H954    1.081   1_554 S
C419   C429    1.398   .     A
C419   C428    1.386   .     A
C420   H443    1.083   .     S
C420   C421    1.388   .     A
C421   C935    1.392   .     S
C421   H945    1.083   .     S
C422   H431    1.079   .     S
C422   C926    1.419   1_554 S
C422   C934    1.392   1_554 S
C423   C427    1.413   .     A
C424   C428    1.389   .     A
C424   C926    1.413   1_554 S
C424   C938    1.424   1_554 S
C425   C426    1.403   .     A
C425   C931    1.410   .     S
C425   C937    1.424   .     S
C426   C427    1.391   .     A
C427   H433    1.082   .     S
C428   H442    1.079   .     S
C429   H430    1.083   .     S
H432   C934    1.083   1_554 S
H435   O454    0.990   .     S
H441   C931    1.081   .     S
N444   Zn455   2.013   .     S
N445   Zn456   2.013   .     S
O446   Zn455   1.990   .     S
O447   Zn456   1.991   .     S
O448   Zn455   1.961   .     S
O449   Zn456   1.913   .     S
O450   Zn455   1.991   .     S
O451   Zn456   1.990   .     S
O452   Zn455   1.913   .     S
O453   Zn456   1.961   .     S
Br457  C469    1.913   .     S
Br458  C483    1.923   .     S
C459   O503    1.282   .     A
C459   C467    1.411   .     S
C459   O504    1.283   .     A
C460   C477    1.403   .     A
C460   C480    1.413   .     A
C460   C462    1.460   .     S
C461   H491    1.084   .     S
C461   C467    1.391   .     A
C461   C121    1.369   1_565 S
C462   O506    1.294   .     A
C462   O505    1.293   .     A
C463   H493    1.084   .     S
C463   C464    1.398   .     A
C464   C473    1.415   .     S
C464   C465    1.412   .     A
C465   O511    1.381   .     S
C466   H494    1.085   .     S
C466   C467    1.395   .     A
C466   C123    1.375   1_565 S
C468   H495    1.082   .     S
C468   N502    1.359   .     A
C468   C355    1.413   1_655 S
C469   N501    1.378   .     A
C470   C480    1.403   .     A
C470   C992    1.419   .     S
C470   C994    1.413   .     S
C471   H496    1.082   .     S
C471   N501    1.366   .     A
C472   N502    1.368   .     A
C472   H497    1.082   .     S
C472   C357    1.418   1_655 S
C473   O507    1.284   .     A
C473   O508    1.282   .     A
C474   C476    1.452   .     S
C474   O510    1.292   .     A
C474   O509    1.293   .     A
C475   C486    1.395   .     A
C475   C995    1.410   1_554 S
C475   H1011   1.081   1_554 S
C476   C486    1.398   .     A
C476   C485    1.386   .     A
C477   H500    1.083   .     S
C477   C478    1.388   .     A
C478   C992    1.392   .     S
C478   H1002   1.083   .     S
C479   H488    1.079   .     S
C479   C983    1.419   1_554 S
C479   C991    1.392   1_554 S
C480   C484    1.413   .     A
C481   C485    1.389   .     A
C481   C983    1.413   1_554 S
C481   C995    1.424   1_554 S
C482   C483    1.403   .     A
C482   C988    1.410   .     S
C482   C994    1.424   .     S
C483   C484    1.391   .     A
C484   H490    1.082   .     S
C485   H499    1.079   .     S
C486   H487    1.083   .     S
H489   C991    1.083   1_554 S
H492   O511    0.990   .     S
H498   C988    1.081   .     S
N501   Zn512   2.013   .     S
N502   Zn513   2.013   .     S
O503   Zn512   1.990   .     S
O504   Zn513   1.991   .     S
O505   Zn512   1.961   .     S
O506   Zn513   1.913   .     S
O507   Zn512   1.991   .     S
O508   Zn513   1.990   .     S
O509   Zn512   1.913   .     S
O510   Zn513   1.961   .     S
Br514  C526    1.913   .     S
Br515  C540    1.923   .     S
C516   O560    1.282   .     A
C516   C524    1.411   .     S
C516   O561    1.283   .     A
C517   C534    1.403   .     A
C517   C537    1.413   .     A
C517   C519    1.460   .     S
C518   H548    1.084   .     S
C518   C524    1.391   .     A
C518   C691    1.369   .     S
C519   O563    1.294   .     A
C519   O562    1.293   .     A
C520   H550    1.084   .     S
C520   C521    1.398   .     A
C520   C860    1.369   1_545 S
C521   C530    1.415   .     S
C521   C522    1.412   .     A
C522   O568    1.381   .     S
C522   C865    1.375   1_545 S
C523   H551    1.085   .     S
C523   C524    1.395   .     A
C523   C693    1.375   .     S
C525   H552    1.082   .     S
C525   N559    1.359   .     A
C525   C583    1.413   .     S
C526   N558    1.378   .     A
C526   C639    1.413   1_455 S
C527   C537    1.403   .     A
C527   C23     1.419   1_556 S
C527   C25     1.413   1_556 S
C528   H553    1.082   .     S
C528   N558    1.366   .     A
C528   C643    1.418   1_455 S
C529   N559    1.368   .     A
C529   H554    1.082   .     S
C529   C585    1.418   .     S
C530   O564    1.284   .     A
C530   O565    1.282   .     A
C531   C533    1.452   .     S
C531   O567    1.292   .     A
C531   O566    1.293   .     A
C532   C543    1.395   .     A
C533   C543    1.398   .     A
C533   C542    1.386   .     A
C534   H557    1.083   .     S
C534   C535    1.388   .     A
C535   C23     1.392   1_556 S
C535   H33     1.083   1_556 S
C536   H545    1.079   .     S
C537   C541    1.413   .     A
C538   C542    1.389   .     A
C539   C540    1.403   .     A
C539   C19     1.410   1_556 S
C539   C25     1.424   1_556 S
C540   C541    1.391   .     A
C541   H547    1.082   .     S
C542   H556    1.079   .     S
C543   H544    1.083   .     S
H549   O568    0.990   .     S
H555   C19     1.081   1_556 S
N558   Zn569   2.013   .     S
N559   Zn570   2.013   .     S
O560   Zn569   1.990   .     S
O561   Zn570   1.991   .     S
O562   Zn569   1.961   .     S
O563   Zn570   1.913   .     S
O564   Zn569   1.991   .     S
O565   Zn570   1.990   .     S
O566   Zn569   1.913   .     S
O567   Zn570   1.961   .     S
Br571  C583    1.913   .     S
Br572  C597    1.923   .     S
C573   O617    1.282   .     A
C573   C581    1.411   .     S
C573   O618    1.283   .     A
C574   C591    1.403   .     A
C574   C594    1.413   .     A
C574   C576    1.460   .     S
C575   H605    1.084   .     S
C575   C581    1.391   .     A
C575   C748    1.369   .     S
C576   O620    1.294   .     A
C576   O619    1.293   .     A
C577   H607    1.084   .     S
C577   C578    1.398   .     A
C577   C917    1.369   1_545 S
C578   C587    1.415   .     S
C578   C579    1.412   .     A
C579   O625    1.381   .     S
C579   C922    1.375   1_545 S
C580   H608    1.085   .     S
C580   C581    1.395   .     A
C580   C750    1.375   .     S
C582   H609    1.082   .     S
C582   N616    1.359   .     A
C582   C640    1.413   .     S
C583   N615    1.378   .     A
C584   C594    1.403   .     A
C584   C80     1.419   1_556 S
C584   C82     1.413   1_556 S
C585   H610    1.082   .     S
C585   N615    1.366   .     A
C586   N616    1.368   .     A
C586   H611    1.082   .     S
C586   C642    1.418   .     S
C587   O621    1.284   .     A
C587   O622    1.282   .     A
C588   C590    1.452   .     S
C588   O624    1.292   .     A
C588   O623    1.293   .     A
C589   C600    1.395   .     A
C590   C600    1.398   .     A
C590   C599    1.386   .     A
C591   H614    1.083   .     S
C591   C592    1.388   .     A
C592   C80     1.392   1_556 S
C592   H90     1.083   1_556 S
C593   H602    1.079   .     S
C594   C598    1.413   .     A
C595   C599    1.389   .     A
C596   C597    1.403   .     A
C596   C76     1.410   1_556 S
C596   C82     1.424   1_556 S
C597   C598    1.391   .     A
C598   H604    1.082   .     S
C599   H613    1.079   .     S
C600   H601    1.083   .     S
H606   O625    0.990   .     S
H612   C76     1.081   1_556 S
N615   Zn626   2.013   .     S
N616   Zn627   2.013   .     S
O617   Zn626   1.990   .     S
O618   Zn627   1.991   .     S
O619   Zn626   1.961   .     S
O620   Zn627   1.913   .     S
O621   Zn626   1.991   .     S
O622   Zn627   1.990   .     S
O623   Zn626   1.913   .     S
O624   Zn627   1.961   .     S
Br628  C640    1.913   .     S
Br629  C654    1.923   .     S
C630   O674    1.282   .     A
C630   C638    1.411   .     S
C630   O675    1.283   .     A
C631   C648    1.403   .     A
C631   C651    1.413   .     A
C631   C633    1.460   .     S
C632   H662    1.084   .     S
C632   C638    1.391   .     A
C632   C805    1.369   .     S
C633   O677    1.294   .     A
C633   O676    1.293   .     A
C634   H664    1.084   .     S
C634   C635    1.398   .     A
C634   C974    1.369   1_545 S
C635   C644    1.415   .     S
C635   C636    1.412   .     A
C636   O682    1.381   .     S
C636   C979    1.375   1_545 S
C637   H665    1.085   .     S
C637   C638    1.395   .     A
C637   C807    1.375   .     S
C639   H666    1.082   .     S
C639   N673    1.359   .     A
C639   C526    1.413   1_655 S
C640   N672    1.378   .     A
C641   C651    1.403   .     A
C641   C137    1.419   1_556 S
C641   C139    1.413   1_556 S
C642   H667    1.082   .     S
C642   N672    1.366   .     A
C643   N673    1.368   .     A
C643   H668    1.082   .     S
C643   C528    1.418   1_655 S
C644   O678    1.284   .     A
C644   O679    1.282   .     A
C645   C647    1.452   .     S
C645   O681    1.292   .     A
C645   O680    1.293   .     A
C646   C657    1.395   .     A
C647   C657    1.398   .     A
C647   C656    1.386   .     A
C648   H671    1.083   .     S
C648   C649    1.388   .     A
C649   C137    1.392   1_556 S
C649   H147    1.083   1_556 S
C650   H659    1.079   .     S
C651   C655    1.413   .     A
C652   C656    1.389   .     A
C653   C654    1.403   .     A
C653   C133    1.410   1_556 S
C653   C139    1.424   1_556 S
C654   C655    1.391   .     A
C655   H661    1.082   .     S
C656   H670    1.079   .     S
C657   H658    1.083   .     S
H663   O682    0.990   .     S
H669   C133    1.081   1_556 S
N672   Zn683   2.013   .     S
N673   Zn684   2.013   .     S
O674   Zn683   1.990   .     S
O675   Zn684   1.991   .     S
O676   Zn683   1.961   .     S
O677   Zn684   1.913   .     S
O678   Zn683   1.991   .     S
O679   Zn684   1.990   .     S
O680   Zn683   1.913   .     S
O681   Zn684   1.961   .     S
Br685  C697    1.913   .     S
Br686  C711    1.923   .     S
C687   O731    1.282   .     A
C687   C695    1.411   .     S
C687   O732    1.283   .     A
C688   C705    1.403   .     A
C688   C708    1.413   .     A
C688   C690    1.460   .     S
C689   H719    1.084   .     S
C689   C695    1.391   .     A
C689   C862    1.369   .     S
C690   O734    1.294   .     A
C690   O733    1.293   .     A
C691   H721    1.084   .     S
C691   C692    1.398   .     A
C692   C701    1.415   .     S
C692   C693    1.412   .     A
C693   O739    1.381   .     S
C694   H722    1.085   .     S
C694   C695    1.395   .     A
C694   C864    1.375   .     S
C696   H723    1.082   .     S
C696   N730    1.359   .     A
C696   C754    1.413   .     S
C697   N729    1.378   .     A
C697   C810    1.413   1_455 S
C698   C708    1.403   .     A
C698   C194    1.419   1_556 S
C698   C196    1.413   1_556 S
C699   H724    1.082   .     S
C699   N729    1.366   .     A
C699   C814    1.418   1_455 S
C700   N730    1.368   .     A
C700   H725    1.082   .     S
C700   C756    1.418   .     S
C701   O735    1.284   .     A
C701   O736    1.282   .     A
C702   C704    1.452   .     S
C702   O738    1.292   .     A
C702   O737    1.293   .     A
C703   C714    1.395   .     A
C704   C714    1.398   .     A
C704   C713    1.386   .     A
C705   H728    1.083   .     S
C705   C706    1.388   .     A
C706   C194    1.392   1_556 S
C706   H204    1.083   1_556 S
C707   H716    1.079   .     S
C708   C712    1.413   .     A
C709   C713    1.389   .     A
C710   C711    1.403   .     A
C710   C190    1.410   1_556 S
C710   C196    1.424   1_556 S
C711   C712    1.391   .     A
C712   H718    1.082   .     S
C713   H727    1.079   .     S
C714   H715    1.083   .     S
H720   O739    0.990   .     S
H726   C190    1.081   1_556 S
N729   Zn740   2.013   .     S
N730   Zn741   2.013   .     S
O731   Zn740   1.990   .     S
O732   Zn741   1.991   .     S
O733   Zn740   1.961   .     S
O734   Zn741   1.913   .     S
O735   Zn740   1.991   .     S
O736   Zn741   1.990   .     S
O737   Zn740   1.913   .     S
O738   Zn741   1.961   .     S
Br742  C754    1.913   .     S
Br743  C768    1.923   .     S
C744   O788    1.282   .     A
C744   C752    1.411   .     S
C744   O789    1.283   .     A
C745   C762    1.403   .     A
C745   C765    1.413   .     A
C745   C747    1.460   .     S
C746   H776    1.084   .     S
C746   C752    1.391   .     A
C746   C919    1.369   .     S
C747   O791    1.294   .     A
C747   O790    1.293   .     A
C748   H778    1.084   .     S
C748   C749    1.398   .     A
C749   C758    1.415   .     S
C749   C750    1.412   .     A
C750   O796    1.381   .     S
C751   H779    1.085   .     S
C751   C752    1.395   .     A
C751   C921    1.375   .     S
C753   H780    1.082   .     S
C753   N787    1.359   .     A
C753   C811    1.413   .     S
C754   N786    1.378   .     A
C755   C765    1.403   .     A
C755   C251    1.419   1_556 S
C755   C253    1.413   1_556 S
C756   H781    1.082   .     S
C756   N786    1.366   .     A
C757   N787    1.368   .     A
C757   H782    1.082   .     S
C757   C813    1.418   .     S
C758   O792    1.284   .     A
C758   O793    1.282   .     A
C759   C761    1.452   .     S
C759   O795    1.292   .     A
C759   O794    1.293   .     A
C760   C771    1.395   .     A
C761   C771    1.398   .     A
C761   C770    1.386   .     A
C762   H785    1.083   .     S
C762   C763    1.388   .     A
C763   C251    1.392   1_556 S
C763   H261    1.083   1_556 S
C764   H773    1.079   .     S
C765   C769    1.413   .     A
C766   C770    1.389   .     A
C767   C768    1.403   .     A
C767   C247    1.410   1_556 S
C767   C253    1.424   1_556 S
C768   C769    1.391   .     A
C769   H775    1.082   .     S
C770   H784    1.079   .     S
C771   H772    1.083   .     S
H777   O796    0.990   .     S
H783   C247    1.081   1_556 S
N786   Zn797   2.013   .     S
N787   Zn798   2.013   .     S
O788   Zn797   1.990   .     S
O789   Zn798   1.991   .     S
O790   Zn797   1.961   .     S
O791   Zn798   1.913   .     S
O792   Zn797   1.991   .     S
O793   Zn798   1.990   .     S
O794   Zn797   1.913   .     S
O795   Zn798   1.961   .     S
Br799  C811    1.913   .     S
Br800  C825    1.923   .     S
C801   O845    1.282   .     A
C801   C809    1.411   .     S
C801   O846    1.283   .     A
C802   C819    1.403   .     A
C802   C822    1.413   .     A
C802   C804    1.460   .     S
C803   H833    1.084   .     S
C803   C809    1.391   .     A
C803   C976    1.369   .     S
C804   O848    1.294   .     A
C804   O847    1.293   .     A
C805   H835    1.084   .     S
C805   C806    1.398   .     A
C806   C815    1.415   .     S
C806   C807    1.412   .     A
C807   O853    1.381   .     S
C808   H836    1.085   .     S
C808   C809    1.395   .     A
C808   C978    1.375   .     S
C810   H837    1.082   .     S
C810   N844    1.359   .     A
C810   C697    1.413   1_655 S
C811   N843    1.378   .     A
C812   C822    1.403   .     A
C812   C308    1.419   1_556 S
C812   C310    1.413   1_556 S
C813   H838    1.082   .     S
C813   N843    1.366   .     A
C814   N844    1.368   .     A
C814   H839    1.082   .     S
C814   C699    1.418   1_655 S
C815   O849    1.284   .     A
C815   O850    1.282   .     A
C816   C818    1.452   .     S
C816   O852    1.292   .     A
C816   O851    1.293   .     A
C817   C828    1.395   .     A
C818   C828    1.398   .     A
C818   C827    1.386   .     A
C819   H842    1.083   .     S
C819   C820    1.388   .     A
C820   C308    1.392   1_556 S
C820   H318    1.083   1_556 S
C821   H830    1.079   .     S
C822   C826    1.413   .     A
C823   C827    1.389   .     A
C824   C825    1.403   .     A
C824   C304    1.410   1_556 S
C824   C310    1.424   1_556 S
C825   C826    1.391   .     A
C826   H832    1.082   .     S
C827   H841    1.079   .     S
C828   H829    1.083   .     S
H834   O853    0.990   .     S
H840   C304    1.081   1_556 S
N843   Zn854   2.013   .     S
N844   Zn855   2.013   .     S
O845   Zn854   1.990   .     S
O846   Zn855   1.991   .     S
O847   Zn854   1.961   .     S
O848   Zn855   1.913   .     S
O849   Zn854   1.991   .     S
O850   Zn855   1.990   .     S
O851   Zn854   1.913   .     S
O852   Zn855   1.961   .     S
Br856  C868    1.913   .     S
Br857  C882    1.923   .     S
C858   O902    1.282   .     A
C858   C866    1.411   .     S
C858   O903    1.283   .     A
C859   C876    1.403   .     A
C859   C879    1.413   .     A
C859   C861    1.460   .     S
C860   H890    1.084   .     S
C860   C866    1.391   .     A
C860   C520    1.369   1_565 S
C861   O905    1.294   .     A
C861   O904    1.293   .     A
C862   H892    1.084   .     S
C862   C863    1.398   .     A
C863   C872    1.415   .     S
C863   C864    1.412   .     A
C864   O910    1.381   .     S
C865   H893    1.085   .     S
C865   C866    1.395   .     A
C865   C522    1.375   1_565 S
C867   H894    1.082   .     S
C867   N901    1.359   .     A
C867   C925    1.413   .     S
C868   N900    1.378   .     A
C868   C981    1.413   1_455 S
C869   C879    1.403   .     A
C869   C365    1.419   1_556 S
C869   C367    1.413   1_556 S
C870   H895    1.082   .     S
C870   N900    1.366   .     A
C870   C985    1.418   1_455 S
C871   N901    1.368   .     A
C871   H896    1.082   .     S
C871   C927    1.418   .     S
C872   O906    1.284   .     A
C872   O907    1.282   .     A
C873   C875    1.452   .     S
C873   O909    1.292   .     A
C873   O908    1.293   .     A
C874   C885    1.395   .     A
C875   C885    1.398   .     A
C875   C884    1.386   .     A
C876   H899    1.083   .     S
C876   C877    1.388   .     A
C877   C365    1.392   1_556 S
C877   H375    1.083   1_556 S
C878   H887    1.079   .     S
C879   C883    1.413   .     A
C880   C884    1.389   .     A
C881   C882    1.403   .     A
C881   C361    1.410   1_556 S
C881   C367    1.424   1_556 S
C882   C883    1.391   .     A
C883   H889    1.082   .     S
C884   H898    1.079   .     S
C885   H886    1.083   .     S
H891   O910    0.990   .     S
H897   C361    1.081   1_556 S
N900   Zn911   2.013   .     S
N901   Zn912   2.013   .     S
O902   Zn911   1.990   .     S
O903   Zn912   1.991   .     S
O904   Zn911   1.961   .     S
O905   Zn912   1.913   .     S
O906   Zn911   1.991   .     S
O907   Zn912   1.990   .     S
O908   Zn911   1.913   .     S
O909   Zn912   1.961   .     S
Br913  C925    1.913   .     S
Br914  C939    1.923   .     S
C915   O959    1.282   .     A
C915   C923    1.411   .     S
C915   O960    1.283   .     A
C916   C933    1.403   .     A
C916   C936    1.413   .     A
C916   C918    1.460   .     S
C917   H947    1.084   .     S
C917   C923    1.391   .     A
C917   C577    1.369   1_565 S
C918   O962    1.294   .     A
C918   O961    1.293   .     A
C919   H949    1.084   .     S
C919   C920    1.398   .     A
C920   C929    1.415   .     S
C920   C921    1.412   .     A
C921   O967    1.381   .     S
C922   H950    1.085   .     S
C922   C923    1.395   .     A
C922   C579    1.375   1_565 S
C924   H951    1.082   .     S
C924   N958    1.359   .     A
C924   C982    1.413   .     S
C925   N957    1.378   .     A
C926   C936    1.403   .     A
C926   C422    1.419   1_556 S
C926   C424    1.413   1_556 S
C927   H952    1.082   .     S
C927   N957    1.366   .     A
C928   N958    1.368   .     A
C928   H953    1.082   .     S
C928   C984    1.418   .     S
C929   O963    1.284   .     A
C929   O964    1.282   .     A
C930   C932    1.452   .     S
C930   O966    1.292   .     A
C930   O965    1.293   .     A
C931   C942    1.395   .     A
C932   C942    1.398   .     A
C932   C941    1.386   .     A
C933   H956    1.083   .     S
C933   C934    1.388   .     A
C934   C422    1.392   1_556 S
C934   H432    1.083   1_556 S
C935   H944    1.079   .     S
C936   C940    1.413   .     A
C937   C941    1.389   .     A
C938   C939    1.403   .     A
C938   C418    1.410   1_556 S
C938   C424    1.424   1_556 S
C939   C940    1.391   .     A
C940   H946    1.082   .     S
C941   H955    1.079   .     S
C942   H943    1.083   .     S
H948   O967    0.990   .     S
H954   C418    1.081   1_556 S
N957   Zn968   2.013   .     S
N958   Zn969   2.013   .     S
O959   Zn968   1.990   .     S
O960   Zn969   1.991   .     S
O961   Zn968   1.961   .     S
O962   Zn969   1.913   .     S
O963   Zn968   1.991   .     S
O964   Zn969   1.990   .     S
O965   Zn968   1.913   .     S
O966   Zn969   1.961   .     S
Br970  C982    1.913   .     S
Br971  C996    1.923   .     S
C972   O1016   1.282   .     A
C972   C980    1.411   .     S
C972   O1017   1.283   .     A
C973   C990    1.403   .     A
C973   C993    1.413   .     A
C973   C975    1.460   .     S
C974   H1004   1.084   .     S
C974   C980    1.391   .     A
C974   C634    1.369   1_565 S
C975   O1019   1.294   .     A
C975   O1018   1.293   .     A
C976   H1006   1.084   .     S
C976   C977    1.398   .     A
C977   C986    1.415   .     S
C977   C978    1.412   .     A
C978   O1024   1.381   .     S
C979   H1007   1.085   .     S
C979   C980    1.395   .     A
C979   C636    1.375   1_565 S
C981   H1008   1.082   .     S
C981   N1015   1.359   .     A
C981   C868    1.413   1_655 S
C982   N1014   1.378   .     A
C983   C993    1.403   .     A
C983   C479    1.419   1_556 S
C983   C481    1.413   1_556 S
C984   H1009   1.082   .     S
C984   N1014   1.366   .     A
C985   N1015   1.368   .     A
C985   H1010   1.082   .     S
C985   C870    1.418   1_655 S
C986   O1020   1.284   .     A
C986   O1021   1.282   .     A
C987   C989    1.452   .     S
C987   O1023   1.292   .     A
C987   O1022   1.293   .     A
C988   C999    1.395   .     A
C989   C999    1.398   .     A
C989   C998    1.386   .     A
C990   H1013   1.083   .     S
C990   C991    1.388   .     A
C991   C479    1.392   1_556 S
C991   H489    1.083   1_556 S
C992   H1001   1.079   .     S
C993   C997    1.413   .     A
C994   C998    1.389   .     A
C995   C996    1.403   .     A
C995   C475    1.410   1_556 S
C995   C481    1.424   1_556 S
C996   C997    1.391   .     A
C997   H1003   1.082   .     S
C998   H1012   1.079   .     S
C999   H1000   1.083   .     S
H1005  O1024   0.990   .     S
H1011  C475    1.081   1_556 S
N1014  Zn1025  2.013   .     S
N1015  Zn1026  2.013   .     S
O1016  Zn1025  1.990   .     S
O1017  Zn1026  1.991   .     S
O1018  Zn1025  1.961   .     S
O1019  Zn1026  1.913   .     S
O1020  Zn1025  1.991   .     S
O1021  Zn1026  1.990   .     S
O1022  Zn1025  1.913   .     S
O1023  Zn1026  1.961   .     S
