data_str_m3_o1_o10_pcu_sym.186
_audit_creation_date              2020-01-03
_audit_creation_method            'Materials Studio'
_symmetry_space_group_name_H-M    'P1'
_symmetry_Int_Tables_number       1
_symmetry_cell_setting            triclinic
loop_
_symmetry_equiv_pos_as_xyz
  x,y,z
_cell_length_a                    25.7569
_cell_length_b                    32.1987
_cell_length_c                    29.9339
_cell_angle_alpha                 88.9849
_cell_angle_beta                  98.5222
_cell_angle_gamma                 94.2130
loop_
_atom_site_label
_atom_site_type_symbol
_atom_site_fract_x
_atom_site_fract_y
_atom_site_fract_z
_atom_site_U_iso_or_equiv
_atom_site_adp_type
_atom_site_occupancy
C1     C     0.17175   0.08708   0.16773   0.00000  Uiso   1.00
C2     C     0.16159   0.24626   0.16560   0.00000  Uiso   1.00
C3     C     0.06718   0.16635   0.15481   0.00000  Uiso   1.00
C4     C     0.26615   0.16698   0.17853   0.00000  Uiso   1.00
C5     C     0.01201   0.16571   0.14854   0.00000  Uiso   1.00
C6     C     0.32132   0.16762   0.18479   0.00000  Uiso   1.00
C7     C     0.18281   0.02204   0.12926   0.00000  Uiso   1.00
C8     C     0.15052   0.31129   0.20408   0.00000  Uiso   1.00
C9     C     0.16595   0.31358   0.12510   0.00000  Uiso   1.00
C10    C     0.16738   0.01975   0.20824   0.00000  Uiso   1.00
C11    C     0.15579   0.29073   0.16393   0.00000  Uiso   1.00
C12    C     0.17755   0.04260   0.16940   0.00000  Uiso   1.00
C13    C     0.20213   0.19248   0.02795   0.00000  Uiso   1.00
C14    C     0.13121   0.14085   0.30538   0.00000  Uiso   1.00
C15    C     0.20206   0.19252   0.31343   0.00000  Uiso   1.00
C16    C     0.13127   0.14081   0.01990   0.00000  Uiso   1.00
H17    H     0.32465   0.16337   0.11419   0.00000  Uiso   1.00
H18    H     0.00869   0.16996   0.21914   0.00000  Uiso   1.00
N19    N     0.16665   0.16666   0.28573   0.00000  Uiso   1.00
N20    N     0.16668   0.16668   0.04760   0.00000  Uiso   1.00
O21    O     0.16666   0.10558   0.20487   0.00000  Uiso   1.00
O22    O     0.16667   0.22775   0.12846   0.00000  Uiso   1.00
O23    O     0.16666   0.10559   0.12843   0.00000  Uiso   1.00
O24    O     0.16667   0.22774   0.20490   0.00000  Uiso   1.00
O25    O     0.09058   0.16666   0.19595   0.00000  Uiso   1.00
O26    O     0.24275   0.16667   0.13739   0.00000  Uiso   1.00
O27    O     0.09058   0.16667   0.11950   0.00000  Uiso   1.00
O28    O     0.24275   0.16666   0.21383   0.00000  Uiso   1.00
Zn29   Zn    0.16667   0.16666   0.21771   0.00000  Uiso   1.00
Zn30   Zn    0.16667   0.16667   0.11563   0.00000  Uiso   1.00
C31    C     0.20999   0.04304   0.09219   0.00000  Uiso   1.00
H32    H     0.23768   0.06955   0.10542   0.00000  Uiso   1.00
H33    H     0.23453   0.02099   0.07817   0.00000  Uiso   1.00
H34    H     0.18041   0.05368   0.06440   0.00000  Uiso   1.00
C35    C     0.12335   0.29030   0.24115   0.00000  Uiso   1.00
H36    H     0.09565   0.26379   0.22791   0.00000  Uiso   1.00
H37    H     0.15292   0.27965   0.26893   0.00000  Uiso   1.00
H38    H     0.09881   0.31235   0.25516   0.00000  Uiso   1.00
C39    C     0.15453   0.29597   0.08005   0.00000  Uiso   1.00
N40    N     0.14482   0.28233   0.04401   0.00000  Uiso   1.00
C41    C     0.17881   0.03737   0.25329   0.00000  Uiso   1.00
N42    N     0.18851   0.05100   0.28933   0.00000  Uiso   1.00
C43    C     0.24280   0.22108   0.05639   0.00000  Uiso   1.00
H44    H     0.24133   0.25361   0.04388   0.00000  Uiso   1.00
H45    H     0.23726   0.22308   0.09150   0.00000  Uiso   1.00
H46    H     0.28274   0.21067   0.05542   0.00000  Uiso   1.00
C47    C     0.09053   0.11225   0.27695   0.00000  Uiso   1.00
H48    H     0.09201   0.07973   0.28946   0.00000  Uiso   1.00
H49    H     0.05060   0.12267   0.27792   0.00000  Uiso   1.00
H50    H     0.09608   0.11025   0.24183   0.00000  Uiso   1.00
C51    C     0.24203   0.22181   0.29428   0.00000  Uiso   1.00
H52    H     0.23892   0.22183   0.25778   0.00000  Uiso   1.00
H53    H     0.23709   0.25448   0.30292   0.00000  Uiso   1.00
H54    H     0.28248   0.21364   0.30793   0.00000  Uiso   1.00
C55    C     0.09131   0.11152   0.03906   0.00000  Uiso   1.00
H56    H     0.09441   0.11150   0.07556   0.00000  Uiso   1.00
H57    H     0.05085   0.11969   0.02540   0.00000  Uiso   1.00
H58    H     0.09625   0.07886   0.03042   0.00000  Uiso   1.00
C59    C     0.50508   0.08708   0.16773   0.00000  Uiso   1.00
C60    C     0.49492   0.24626   0.16560   0.00000  Uiso   1.00
C61    C     0.40052   0.16635   0.15481   0.00000  Uiso   1.00
C62    C     0.59949   0.16698   0.17853   0.00000  Uiso   1.00
C63    C     0.34535   0.16571   0.14854   0.00000  Uiso   1.00
C64    C     0.65465   0.16762   0.18479   0.00000  Uiso   1.00
C65    C     0.51614   0.02204   0.12926   0.00000  Uiso   1.00
C66    C     0.48386   0.31129   0.20408   0.00000  Uiso   1.00
C67    C     0.49928   0.31358   0.12510   0.00000  Uiso   1.00
C68    C     0.50072   0.01975   0.20824   0.00000  Uiso   1.00
C69    C     0.48912   0.29073   0.16393   0.00000  Uiso   1.00
C70    C     0.51088   0.04260   0.16940   0.00000  Uiso   1.00
C71    C     0.53546   0.19248   0.02795   0.00000  Uiso   1.00
C72    C     0.46454   0.14085   0.30538   0.00000  Uiso   1.00
C73    C     0.53540   0.19252   0.31343   0.00000  Uiso   1.00
C74    C     0.46460   0.14081   0.01990   0.00000  Uiso   1.00
H75    H     0.65798   0.16337   0.11419   0.00000  Uiso   1.00
H76    H     0.34202   0.16996   0.21914   0.00000  Uiso   1.00
N77    N     0.49999   0.16666   0.28573   0.00000  Uiso   1.00
N78    N     0.50001   0.16668   0.04760   0.00000  Uiso   1.00
O79    O     0.50000   0.10558   0.20487   0.00000  Uiso   1.00
O80    O     0.50000   0.22775   0.12846   0.00000  Uiso   1.00
O81    O     0.50000   0.10559   0.12843   0.00000  Uiso   1.00
O82    O     0.50000   0.22774   0.20490   0.00000  Uiso   1.00
O83    O     0.42392   0.16666   0.19595   0.00000  Uiso   1.00
O84    O     0.57608   0.16667   0.13739   0.00000  Uiso   1.00
O85    O     0.42392   0.16667   0.11950   0.00000  Uiso   1.00
O86    O     0.57608   0.16666   0.21383   0.00000  Uiso   1.00
Zn87   Zn    0.50000   0.16666   0.21771   0.00000  Uiso   1.00
Zn88   Zn    0.50000   0.16667   0.11563   0.00000  Uiso   1.00
C89    C     0.54332   0.04304   0.09219   0.00000  Uiso   1.00
H90    H     0.57102   0.06955   0.10542   0.00000  Uiso   1.00
H91    H     0.56786   0.02099   0.07817   0.00000  Uiso   1.00
H92    H     0.51375   0.05368   0.06440   0.00000  Uiso   1.00
C93    C     0.45668   0.29030   0.24115   0.00000  Uiso   1.00
H94    H     0.42899   0.26379   0.22791   0.00000  Uiso   1.00
H95    H     0.48625   0.27965   0.26893   0.00000  Uiso   1.00
H96    H     0.43214   0.31235   0.25516   0.00000  Uiso   1.00
C97    C     0.48786   0.29597   0.08005   0.00000  Uiso   1.00
N98    N     0.47816   0.28233   0.04401   0.00000  Uiso   1.00
C99    C     0.51214   0.03737   0.25329   0.00000  Uiso   1.00
N100   N     0.52185   0.05100   0.28933   0.00000  Uiso   1.00
C101   C     0.57614   0.22108   0.05639   0.00000  Uiso   1.00
H102   H     0.57466   0.25361   0.04388   0.00000  Uiso   1.00
H103   H     0.57059   0.22308   0.09150   0.00000  Uiso   1.00
H104   H     0.61607   0.21067   0.05542   0.00000  Uiso   1.00
C105   C     0.42386   0.11225   0.27695   0.00000  Uiso   1.00
H106   H     0.42534   0.07973   0.28946   0.00000  Uiso   1.00
H107   H     0.38393   0.12267   0.27792   0.00000  Uiso   1.00
H108   H     0.42941   0.11025   0.24183   0.00000  Uiso   1.00
C109   C     0.57536   0.22181   0.29428   0.00000  Uiso   1.00
H110   H     0.57226   0.22183   0.25778   0.00000  Uiso   1.00
H111   H     0.57042   0.25448   0.30292   0.00000  Uiso   1.00
H112   H     0.61581   0.21364   0.30793   0.00000  Uiso   1.00
C113   C     0.42464   0.11152   0.03906   0.00000  Uiso   1.00
H114   H     0.42774   0.11150   0.07556   0.00000  Uiso   1.00
H115   H     0.38419   0.11969   0.02540   0.00000  Uiso   1.00
H116   H     0.42958   0.07886   0.03042   0.00000  Uiso   1.00
C117   C     0.83841   0.08708   0.16773   0.00000  Uiso   1.00
C118   C     0.82825   0.24626   0.16560   0.00000  Uiso   1.00
C119   C     0.73385   0.16635   0.15481   0.00000  Uiso   1.00
C120   C     0.93282   0.16698   0.17853   0.00000  Uiso   1.00
C121   C     0.67868   0.16571   0.14854   0.00000  Uiso   1.00
C122   C     0.98799   0.16762   0.18479   0.00000  Uiso   1.00
C123   C     0.84948   0.02204   0.12926   0.00000  Uiso   1.00
C124   C     0.81719   0.31129   0.20408   0.00000  Uiso   1.00
C125   C     0.83262   0.31358   0.12510   0.00000  Uiso   1.00
C126   C     0.83405   0.01975   0.20824   0.00000  Uiso   1.00
C127   C     0.82245   0.29073   0.16393   0.00000  Uiso   1.00
C128   C     0.84421   0.04260   0.16940   0.00000  Uiso   1.00
C129   C     0.86879   0.19248   0.02795   0.00000  Uiso   1.00
C130   C     0.79787   0.14085   0.30538   0.00000  Uiso   1.00
C131   C     0.86873   0.19252   0.31343   0.00000  Uiso   1.00
C132   C     0.79794   0.14081   0.01990   0.00000  Uiso   1.00
H133   H     0.99131   0.16337   0.11419   0.00000  Uiso   1.00
H134   H     0.67535   0.16996   0.21914   0.00000  Uiso   1.00
N135   N     0.83332   0.16666   0.28573   0.00000  Uiso   1.00
N136   N     0.83335   0.16668   0.04760   0.00000  Uiso   1.00
O137   O     0.83333   0.10558   0.20487   0.00000  Uiso   1.00
O138   O     0.83334   0.22775   0.12846   0.00000  Uiso   1.00
O139   O     0.83333   0.10559   0.12843   0.00000  Uiso   1.00
O140   O     0.83334   0.22774   0.20490   0.00000  Uiso   1.00
O141   O     0.75725   0.16666   0.19595   0.00000  Uiso   1.00
O142   O     0.90942   0.16667   0.13739   0.00000  Uiso   1.00
O143   O     0.75725   0.16667   0.11950   0.00000  Uiso   1.00
O144   O     0.90942   0.16666   0.21383   0.00000  Uiso   1.00
Zn145  Zn    0.83333   0.16666   0.21771   0.00000  Uiso   1.00
Zn146  Zn    0.83333   0.16667   0.11563   0.00000  Uiso   1.00
C147   C     0.87665   0.04304   0.09219   0.00000  Uiso   1.00
H148   H     0.90435   0.06955   0.10542   0.00000  Uiso   1.00
H149   H     0.90119   0.02099   0.07817   0.00000  Uiso   1.00
H150   H     0.84708   0.05368   0.06440   0.00000  Uiso   1.00
C151   C     0.79001   0.29030   0.24115   0.00000  Uiso   1.00
H152   H     0.76232   0.26379   0.22791   0.00000  Uiso   1.00
H153   H     0.81959   0.27965   0.26893   0.00000  Uiso   1.00
H154   H     0.76547   0.31235   0.25516   0.00000  Uiso   1.00
C155   C     0.82119   0.29597   0.08005   0.00000  Uiso   1.00
N156   N     0.81149   0.28233   0.04401   0.00000  Uiso   1.00
C157   C     0.84548   0.03737   0.25329   0.00000  Uiso   1.00
N158   N     0.85518   0.05100   0.28933   0.00000  Uiso   1.00
C159   C     0.90947   0.22108   0.05639   0.00000  Uiso   1.00
H160   H     0.90799   0.25361   0.04388   0.00000  Uiso   1.00
H161   H     0.90392   0.22308   0.09150   0.00000  Uiso   1.00
H162   H     0.94940   0.21067   0.05542   0.00000  Uiso   1.00
C163   C     0.75720   0.11225   0.27695   0.00000  Uiso   1.00
H164   H     0.75867   0.07973   0.28946   0.00000  Uiso   1.00
H165   H     0.71727   0.12267   0.27792   0.00000  Uiso   1.00
H166   H     0.76274   0.11025   0.24183   0.00000  Uiso   1.00
C167   C     0.90869   0.22181   0.29428   0.00000  Uiso   1.00
H168   H     0.90559   0.22183   0.25778   0.00000  Uiso   1.00
H169   H     0.90375   0.25448   0.30292   0.00000  Uiso   1.00
H170   H     0.94915   0.21364   0.30793   0.00000  Uiso   1.00
C171   C     0.75797   0.11152   0.03906   0.00000  Uiso   1.00
H172   H     0.76108   0.11150   0.07556   0.00000  Uiso   1.00
H173   H     0.71752   0.11969   0.02540   0.00000  Uiso   1.00
H174   H     0.76291   0.07886   0.03042   0.00000  Uiso   1.00
C175   C     0.17175   0.42041   0.16773   0.00000  Uiso   1.00
C176   C     0.16159   0.57959   0.16560   0.00000  Uiso   1.00
C177   C     0.06718   0.49969   0.15481   0.00000  Uiso   1.00
C178   C     0.26615   0.50031   0.17853   0.00000  Uiso   1.00
C179   C     0.01201   0.49905   0.14854   0.00000  Uiso   1.00
C180   C     0.32132   0.50095   0.18479   0.00000  Uiso   1.00
C181   C     0.18281   0.35538   0.12926   0.00000  Uiso   1.00
C182   C     0.15052   0.64462   0.20408   0.00000  Uiso   1.00
C183   C     0.16595   0.64692   0.12510   0.00000  Uiso   1.00
C184   C     0.16738   0.35308   0.20824   0.00000  Uiso   1.00
C185   C     0.15579   0.62406   0.16393   0.00000  Uiso   1.00
C186   C     0.17755   0.37594   0.16940   0.00000  Uiso   1.00
C187   C     0.20213   0.52582   0.02795   0.00000  Uiso   1.00
C188   C     0.13121   0.47418   0.30538   0.00000  Uiso   1.00
C189   C     0.20206   0.52586   0.31343   0.00000  Uiso   1.00
C190   C     0.13127   0.47414   0.01990   0.00000  Uiso   1.00
H191   H     0.32465   0.49671   0.11419   0.00000  Uiso   1.00
H192   H     0.00869   0.50329   0.21914   0.00000  Uiso   1.00
N193   N     0.16665   0.49999   0.28573   0.00000  Uiso   1.00
N194   N     0.16668   0.50001   0.04760   0.00000  Uiso   1.00
O195   O     0.16666   0.43892   0.20487   0.00000  Uiso   1.00
O196   O     0.16667   0.56108   0.12846   0.00000  Uiso   1.00
O197   O     0.16666   0.43893   0.12843   0.00000  Uiso   1.00
O198   O     0.16667   0.56107   0.20490   0.00000  Uiso   1.00
O199   O     0.09058   0.50000   0.19595   0.00000  Uiso   1.00
O200   O     0.24275   0.50000   0.13739   0.00000  Uiso   1.00
O201   O     0.09058   0.50000   0.11950   0.00000  Uiso   1.00
O202   O     0.24275   0.50000   0.21383   0.00000  Uiso   1.00
Zn203  Zn    0.16667   0.49999   0.21771   0.00000  Uiso   1.00
Zn204  Zn    0.16667   0.50001   0.11563   0.00000  Uiso   1.00
C205   C     0.20999   0.37637   0.09219   0.00000  Uiso   1.00
H206   H     0.23768   0.40288   0.10542   0.00000  Uiso   1.00
H207   H     0.23453   0.35432   0.07817   0.00000  Uiso   1.00
H208   H     0.18041   0.38701   0.06440   0.00000  Uiso   1.00
C209   C     0.12335   0.62363   0.24115   0.00000  Uiso   1.00
H210   H     0.09565   0.59712   0.22791   0.00000  Uiso   1.00
H211   H     0.15292   0.61299   0.26893   0.00000  Uiso   1.00
H212   H     0.09881   0.64568   0.25516   0.00000  Uiso   1.00
C213   C     0.15453   0.62930   0.08005   0.00000  Uiso   1.00
N214   N     0.14482   0.61566   0.04401   0.00000  Uiso   1.00
C215   C     0.17881   0.37070   0.25329   0.00000  Uiso   1.00
N216   N     0.18851   0.38434   0.28933   0.00000  Uiso   1.00
C217   C     0.24280   0.55442   0.05639   0.00000  Uiso   1.00
H218   H     0.24133   0.58694   0.04388   0.00000  Uiso   1.00
H219   H     0.23726   0.55642   0.09150   0.00000  Uiso   1.00
H220   H     0.28274   0.54400   0.05542   0.00000  Uiso   1.00
C221   C     0.09053   0.44558   0.27695   0.00000  Uiso   1.00
H222   H     0.09201   0.41306   0.28946   0.00000  Uiso   1.00
H223   H     0.05060   0.45600   0.27792   0.00000  Uiso   1.00
H224   H     0.09608   0.44358   0.24183   0.00000  Uiso   1.00
C225   C     0.24203   0.55514   0.29428   0.00000  Uiso   1.00
H226   H     0.23892   0.55516   0.25778   0.00000  Uiso   1.00
H227   H     0.23709   0.58781   0.30292   0.00000  Uiso   1.00
H228   H     0.28248   0.54697   0.30793   0.00000  Uiso   1.00
C229   C     0.09131   0.44486   0.03906   0.00000  Uiso   1.00
H230   H     0.09441   0.44484   0.07556   0.00000  Uiso   1.00
H231   H     0.05085   0.45303   0.02540   0.00000  Uiso   1.00
H232   H     0.09625   0.41219   0.03042   0.00000  Uiso   1.00
C233   C     0.50508   0.42041   0.16773   0.00000  Uiso   1.00
C234   C     0.49492   0.57959   0.16560   0.00000  Uiso   1.00
C235   C     0.40052   0.49969   0.15481   0.00000  Uiso   1.00
C236   C     0.59949   0.50031   0.17853   0.00000  Uiso   1.00
C237   C     0.34535   0.49905   0.14854   0.00000  Uiso   1.00
C238   C     0.65465   0.50095   0.18479   0.00000  Uiso   1.00
C239   C     0.51614   0.35538   0.12926   0.00000  Uiso   1.00
C240   C     0.48386   0.64462   0.20408   0.00000  Uiso   1.00
C241   C     0.49928   0.64692   0.12510   0.00000  Uiso   1.00
C242   C     0.50072   0.35308   0.20824   0.00000  Uiso   1.00
C243   C     0.48912   0.62406   0.16393   0.00000  Uiso   1.00
C244   C     0.51088   0.37594   0.16940   0.00000  Uiso   1.00
C245   C     0.53546   0.52582   0.02795   0.00000  Uiso   1.00
C246   C     0.46454   0.47418   0.30538   0.00000  Uiso   1.00
C247   C     0.53540   0.52586   0.31343   0.00000  Uiso   1.00
C248   C     0.46460   0.47414   0.01990   0.00000  Uiso   1.00
H249   H     0.65798   0.49671   0.11419   0.00000  Uiso   1.00
H250   H     0.34202   0.50329   0.21914   0.00000  Uiso   1.00
N251   N     0.49999   0.49999   0.28573   0.00000  Uiso   1.00
N252   N     0.50001   0.50001   0.04760   0.00000  Uiso   1.00
O253   O     0.50000   0.43892   0.20487   0.00000  Uiso   1.00
O254   O     0.50000   0.56108   0.12846   0.00000  Uiso   1.00
O255   O     0.50000   0.43893   0.12843   0.00000  Uiso   1.00
O256   O     0.50000   0.56107   0.20490   0.00000  Uiso   1.00
O257   O     0.42392   0.50000   0.19595   0.00000  Uiso   1.00
O258   O     0.57608   0.50000   0.13739   0.00000  Uiso   1.00
O259   O     0.42392   0.50000   0.11950   0.00000  Uiso   1.00
O260   O     0.57608   0.50000   0.21383   0.00000  Uiso   1.00
Zn261  Zn    0.50000   0.49999   0.21771   0.00000  Uiso   1.00
Zn262  Zn    0.50000   0.50001   0.11563   0.00000  Uiso   1.00
C263   C     0.54332   0.37637   0.09219   0.00000  Uiso   1.00
H264   H     0.57102   0.40288   0.10542   0.00000  Uiso   1.00
H265   H     0.56786   0.35432   0.07817   0.00000  Uiso   1.00
H266   H     0.51375   0.38701   0.06440   0.00000  Uiso   1.00
C267   C     0.45668   0.62363   0.24115   0.00000  Uiso   1.00
H268   H     0.42899   0.59712   0.22791   0.00000  Uiso   1.00
H269   H     0.48625   0.61299   0.26893   0.00000  Uiso   1.00
H270   H     0.43214   0.64568   0.25516   0.00000  Uiso   1.00
C271   C     0.48786   0.62930   0.08005   0.00000  Uiso   1.00
N272   N     0.47816   0.61566   0.04401   0.00000  Uiso   1.00
C273   C     0.51214   0.37070   0.25329   0.00000  Uiso   1.00
N274   N     0.52185   0.38434   0.28933   0.00000  Uiso   1.00
C275   C     0.57614   0.55442   0.05639   0.00000  Uiso   1.00
H276   H     0.57466   0.58694   0.04388   0.00000  Uiso   1.00
H277   H     0.57059   0.55642   0.09150   0.00000  Uiso   1.00
H278   H     0.61607   0.54400   0.05542   0.00000  Uiso   1.00
C279   C     0.42386   0.44558   0.27695   0.00000  Uiso   1.00
H280   H     0.42534   0.41306   0.28946   0.00000  Uiso   1.00
H281   H     0.38393   0.45600   0.27792   0.00000  Uiso   1.00
H282   H     0.42941   0.44358   0.24183   0.00000  Uiso   1.00
C283   C     0.57536   0.55514   0.29428   0.00000  Uiso   1.00
H284   H     0.57226   0.55516   0.25778   0.00000  Uiso   1.00
H285   H     0.57042   0.58781   0.30292   0.00000  Uiso   1.00
H286   H     0.61581   0.54697   0.30793   0.00000  Uiso   1.00
C287   C     0.42464   0.44486   0.03906   0.00000  Uiso   1.00
H288   H     0.42774   0.44484   0.07556   0.00000  Uiso   1.00
H289   H     0.38419   0.45303   0.02540   0.00000  Uiso   1.00
H290   H     0.42958   0.41219   0.03042   0.00000  Uiso   1.00
C291   C     0.83841   0.42041   0.16773   0.00000  Uiso   1.00
C292   C     0.82825   0.57959   0.16560   0.00000  Uiso   1.00
C293   C     0.73385   0.49969   0.15481   0.00000  Uiso   1.00
C294   C     0.93282   0.50031   0.17853   0.00000  Uiso   1.00
C295   C     0.67868   0.49905   0.14854   0.00000  Uiso   1.00
C296   C     0.98799   0.50095   0.18479   0.00000  Uiso   1.00
C297   C     0.84948   0.35538   0.12926   0.00000  Uiso   1.00
C298   C     0.81719   0.64462   0.20408   0.00000  Uiso   1.00
C299   C     0.83262   0.64692   0.12510   0.00000  Uiso   1.00
C300   C     0.83405   0.35308   0.20824   0.00000  Uiso   1.00
C301   C     0.82245   0.62406   0.16393   0.00000  Uiso   1.00
C302   C     0.84421   0.37594   0.16940   0.00000  Uiso   1.00
C303   C     0.86879   0.52582   0.02795   0.00000  Uiso   1.00
C304   C     0.79787   0.47418   0.30538   0.00000  Uiso   1.00
C305   C     0.86873   0.52586   0.31343   0.00000  Uiso   1.00
C306   C     0.79794   0.47414   0.01990   0.00000  Uiso   1.00
H307   H     0.99131   0.49671   0.11419   0.00000  Uiso   1.00
H308   H     0.67535   0.50329   0.21914   0.00000  Uiso   1.00
N309   N     0.83332   0.49999   0.28573   0.00000  Uiso   1.00
N310   N     0.83335   0.50001   0.04760   0.00000  Uiso   1.00
O311   O     0.83333   0.43892   0.20487   0.00000  Uiso   1.00
O312   O     0.83334   0.56108   0.12846   0.00000  Uiso   1.00
O313   O     0.83333   0.43893   0.12843   0.00000  Uiso   1.00
O314   O     0.83334   0.56107   0.20490   0.00000  Uiso   1.00
O315   O     0.75725   0.50000   0.19595   0.00000  Uiso   1.00
O316   O     0.90942   0.50000   0.13739   0.00000  Uiso   1.00
O317   O     0.75725   0.50000   0.11950   0.00000  Uiso   1.00
O318   O     0.90942   0.50000   0.21383   0.00000  Uiso   1.00
Zn319  Zn    0.83333   0.49999   0.21771   0.00000  Uiso   1.00
Zn320  Zn    0.83333   0.50001   0.11563   0.00000  Uiso   1.00
C321   C     0.87665   0.37637   0.09219   0.00000  Uiso   1.00
H322   H     0.90435   0.40288   0.10542   0.00000  Uiso   1.00
H323   H     0.90119   0.35432   0.07817   0.00000  Uiso   1.00
H324   H     0.84708   0.38701   0.06440   0.00000  Uiso   1.00
C325   C     0.79001   0.62363   0.24115   0.00000  Uiso   1.00
H326   H     0.76232   0.59712   0.22791   0.00000  Uiso   1.00
H327   H     0.81959   0.61299   0.26893   0.00000  Uiso   1.00
H328   H     0.76547   0.64568   0.25516   0.00000  Uiso   1.00
C329   C     0.82119   0.62930   0.08005   0.00000  Uiso   1.00
N330   N     0.81149   0.61566   0.04401   0.00000  Uiso   1.00
C331   C     0.84548   0.37070   0.25329   0.00000  Uiso   1.00
N332   N     0.85518   0.38434   0.28933   0.00000  Uiso   1.00
C333   C     0.90947   0.55442   0.05639   0.00000  Uiso   1.00
H334   H     0.90799   0.58694   0.04388   0.00000  Uiso   1.00
H335   H     0.90392   0.55642   0.09150   0.00000  Uiso   1.00
H336   H     0.94940   0.54400   0.05542   0.00000  Uiso   1.00
C337   C     0.75720   0.44558   0.27695   0.00000  Uiso   1.00
H338   H     0.75867   0.41306   0.28946   0.00000  Uiso   1.00
H339   H     0.71727   0.45600   0.27792   0.00000  Uiso   1.00
H340   H     0.76274   0.44358   0.24183   0.00000  Uiso   1.00
C341   C     0.90869   0.55514   0.29428   0.00000  Uiso   1.00
H342   H     0.90559   0.55516   0.25778   0.00000  Uiso   1.00
H343   H     0.90375   0.58781   0.30292   0.00000  Uiso   1.00
H344   H     0.94915   0.54697   0.30793   0.00000  Uiso   1.00
C345   C     0.75797   0.44486   0.03906   0.00000  Uiso   1.00
H346   H     0.76108   0.44484   0.07556   0.00000  Uiso   1.00
H347   H     0.71752   0.45303   0.02540   0.00000  Uiso   1.00
H348   H     0.76291   0.41219   0.03042   0.00000  Uiso   1.00
C349   C     0.17175   0.75374   0.16773   0.00000  Uiso   1.00
C350   C     0.16159   0.91292   0.16560   0.00000  Uiso   1.00
C351   C     0.06718   0.83302   0.15481   0.00000  Uiso   1.00
C352   C     0.26615   0.83365   0.17853   0.00000  Uiso   1.00
C353   C     0.01201   0.83238   0.14854   0.00000  Uiso   1.00
C354   C     0.32132   0.83429   0.18479   0.00000  Uiso   1.00
C355   C     0.18281   0.68871   0.12926   0.00000  Uiso   1.00
C356   C     0.15052   0.97796   0.20408   0.00000  Uiso   1.00
C357   C     0.16595   0.98025   0.12510   0.00000  Uiso   1.00
C358   C     0.16738   0.68642   0.20824   0.00000  Uiso   1.00
C359   C     0.15579   0.95740   0.16393   0.00000  Uiso   1.00
C360   C     0.17755   0.70927   0.16940   0.00000  Uiso   1.00
C361   C     0.20213   0.85915   0.02795   0.00000  Uiso   1.00
C362   C     0.13121   0.80752   0.30538   0.00000  Uiso   1.00
C363   C     0.20206   0.85919   0.31343   0.00000  Uiso   1.00
C364   C     0.13127   0.80748   0.01990   0.00000  Uiso   1.00
H365   H     0.32465   0.83004   0.11419   0.00000  Uiso   1.00
H366   H     0.00869   0.83663   0.21914   0.00000  Uiso   1.00
N367   N     0.16665   0.83332   0.28573   0.00000  Uiso   1.00
N368   N     0.16668   0.83334   0.04760   0.00000  Uiso   1.00
O369   O     0.16666   0.77225   0.20487   0.00000  Uiso   1.00
O370   O     0.16667   0.89442   0.12846   0.00000  Uiso   1.00
O371   O     0.16666   0.77226   0.12843   0.00000  Uiso   1.00
O372   O     0.16667   0.89441   0.20490   0.00000  Uiso   1.00
O373   O     0.09058   0.83333   0.19595   0.00000  Uiso   1.00
O374   O     0.24275   0.83334   0.13739   0.00000  Uiso   1.00
O375   O     0.09058   0.83334   0.11950   0.00000  Uiso   1.00
O376   O     0.24275   0.83333   0.21383   0.00000  Uiso   1.00
Zn377  Zn    0.16667   0.83333   0.21771   0.00000  Uiso   1.00
Zn378  Zn    0.16667   0.83334   0.11563   0.00000  Uiso   1.00
C379   C     0.20999   0.70970   0.09219   0.00000  Uiso   1.00
H380   H     0.23768   0.73621   0.10542   0.00000  Uiso   1.00
H381   H     0.23453   0.68765   0.07817   0.00000  Uiso   1.00
H382   H     0.18041   0.72035   0.06440   0.00000  Uiso   1.00
C383   C     0.12335   0.95696   0.24115   0.00000  Uiso   1.00
H384   H     0.09565   0.93045   0.22791   0.00000  Uiso   1.00
H385   H     0.15292   0.94632   0.26893   0.00000  Uiso   1.00
H386   H     0.09881   0.97901   0.25516   0.00000  Uiso   1.00
C387   C     0.15453   0.96263   0.08005   0.00000  Uiso   1.00
N388   N     0.14482   0.94900   0.04401   0.00000  Uiso   1.00
C389   C     0.17881   0.70403   0.25329   0.00000  Uiso   1.00
N390   N     0.18851   0.71767   0.28933   0.00000  Uiso   1.00
C391   C     0.24280   0.88775   0.05639   0.00000  Uiso   1.00
H392   H     0.24133   0.92027   0.04388   0.00000  Uiso   1.00
H393   H     0.23726   0.88975   0.09150   0.00000  Uiso   1.00
H394   H     0.28274   0.87733   0.05542   0.00000  Uiso   1.00
C395   C     0.09053   0.77892   0.27695   0.00000  Uiso   1.00
H396   H     0.09201   0.74639   0.28946   0.00000  Uiso   1.00
H397   H     0.05060   0.78933   0.27792   0.00000  Uiso   1.00
H398   H     0.09608   0.77692   0.24183   0.00000  Uiso   1.00
C399   C     0.24203   0.88848   0.29428   0.00000  Uiso   1.00
H400   H     0.23892   0.88850   0.25778   0.00000  Uiso   1.00
H401   H     0.23709   0.92114   0.30292   0.00000  Uiso   1.00
H402   H     0.28248   0.88031   0.30793   0.00000  Uiso   1.00
C403   C     0.09131   0.77819   0.03906   0.00000  Uiso   1.00
H404   H     0.09441   0.77817   0.07556   0.00000  Uiso   1.00
H405   H     0.05085   0.78636   0.02540   0.00000  Uiso   1.00
H406   H     0.09625   0.74552   0.03042   0.00000  Uiso   1.00
C407   C     0.50508   0.75374   0.16773   0.00000  Uiso   1.00
C408   C     0.49492   0.91292   0.16560   0.00000  Uiso   1.00
C409   C     0.40052   0.83302   0.15481   0.00000  Uiso   1.00
C410   C     0.59949   0.83365   0.17853   0.00000  Uiso   1.00
C411   C     0.34535   0.83238   0.14854   0.00000  Uiso   1.00
C412   C     0.65465   0.83429   0.18479   0.00000  Uiso   1.00
C413   C     0.51614   0.68871   0.12926   0.00000  Uiso   1.00
C414   C     0.48386   0.97796   0.20408   0.00000  Uiso   1.00
C415   C     0.49928   0.98025   0.12510   0.00000  Uiso   1.00
C416   C     0.50072   0.68642   0.20824   0.00000  Uiso   1.00
C417   C     0.48912   0.95740   0.16393   0.00000  Uiso   1.00
C418   C     0.51088   0.70927   0.16940   0.00000  Uiso   1.00
C419   C     0.53546   0.85915   0.02795   0.00000  Uiso   1.00
C420   C     0.46454   0.80752   0.30538   0.00000  Uiso   1.00
C421   C     0.53540   0.85919   0.31343   0.00000  Uiso   1.00
C422   C     0.46460   0.80748   0.01990   0.00000  Uiso   1.00
H423   H     0.65798   0.83004   0.11419   0.00000  Uiso   1.00
H424   H     0.34202   0.83663   0.21914   0.00000  Uiso   1.00
N425   N     0.49999   0.83332   0.28573   0.00000  Uiso   1.00
N426   N     0.50001   0.83334   0.04760   0.00000  Uiso   1.00
O427   O     0.50000   0.77225   0.20487   0.00000  Uiso   1.00
O428   O     0.50000   0.89442   0.12846   0.00000  Uiso   1.00
O429   O     0.50000   0.77226   0.12843   0.00000  Uiso   1.00
O430   O     0.50000   0.89441   0.20490   0.00000  Uiso   1.00
O431   O     0.42392   0.83333   0.19595   0.00000  Uiso   1.00
O432   O     0.57608   0.83334   0.13739   0.00000  Uiso   1.00
O433   O     0.42392   0.83334   0.11950   0.00000  Uiso   1.00
O434   O     0.57608   0.83333   0.21383   0.00000  Uiso   1.00
Zn435  Zn    0.50000   0.83333   0.21771   0.00000  Uiso   1.00
Zn436  Zn    0.50000   0.83334   0.11563   0.00000  Uiso   1.00
C437   C     0.54332   0.70970   0.09219   0.00000  Uiso   1.00
H438   H     0.57102   0.73621   0.10542   0.00000  Uiso   1.00
H439   H     0.56786   0.68765   0.07817   0.00000  Uiso   1.00
H440   H     0.51375   0.72035   0.06440   0.00000  Uiso   1.00
C441   C     0.45668   0.95696   0.24115   0.00000  Uiso   1.00
H442   H     0.42899   0.93045   0.22791   0.00000  Uiso   1.00
H443   H     0.48625   0.94632   0.26893   0.00000  Uiso   1.00
H444   H     0.43214   0.97901   0.25516   0.00000  Uiso   1.00
C445   C     0.48786   0.96263   0.08005   0.00000  Uiso   1.00
N446   N     0.47816   0.94900   0.04401   0.00000  Uiso   1.00
C447   C     0.51214   0.70403   0.25329   0.00000  Uiso   1.00
N448   N     0.52185   0.71767   0.28933   0.00000  Uiso   1.00
C449   C     0.57614   0.88775   0.05639   0.00000  Uiso   1.00
H450   H     0.57466   0.92027   0.04388   0.00000  Uiso   1.00
H451   H     0.57059   0.88975   0.09150   0.00000  Uiso   1.00
H452   H     0.61607   0.87733   0.05542   0.00000  Uiso   1.00
C453   C     0.42386   0.77892   0.27695   0.00000  Uiso   1.00
H454   H     0.42534   0.74639   0.28946   0.00000  Uiso   1.00
H455   H     0.38393   0.78933   0.27792   0.00000  Uiso   1.00
H456   H     0.42941   0.77692   0.24183   0.00000  Uiso   1.00
C457   C     0.57536   0.88848   0.29428   0.00000  Uiso   1.00
H458   H     0.57226   0.88850   0.25778   0.00000  Uiso   1.00
H459   H     0.57042   0.92114   0.30292   0.00000  Uiso   1.00
H460   H     0.61581   0.88031   0.30793   0.00000  Uiso   1.00
C461   C     0.42464   0.77819   0.03906   0.00000  Uiso   1.00
H462   H     0.42774   0.77817   0.07556   0.00000  Uiso   1.00
H463   H     0.38419   0.78636   0.02540   0.00000  Uiso   1.00
H464   H     0.42958   0.74552   0.03042   0.00000  Uiso   1.00
C465   C     0.83841   0.75374   0.16773   0.00000  Uiso   1.00
C466   C     0.82825   0.91292   0.16560   0.00000  Uiso   1.00
C467   C     0.73385   0.83302   0.15481   0.00000  Uiso   1.00
C468   C     0.93282   0.83365   0.17853   0.00000  Uiso   1.00
C469   C     0.67868   0.83238   0.14854   0.00000  Uiso   1.00
C470   C     0.98799   0.83429   0.18479   0.00000  Uiso   1.00
C471   C     0.84948   0.68871   0.12926   0.00000  Uiso   1.00
C472   C     0.81719   0.97796   0.20408   0.00000  Uiso   1.00
C473   C     0.83262   0.98025   0.12510   0.00000  Uiso   1.00
C474   C     0.83405   0.68642   0.20824   0.00000  Uiso   1.00
C475   C     0.82245   0.95740   0.16393   0.00000  Uiso   1.00
C476   C     0.84421   0.70927   0.16940   0.00000  Uiso   1.00
C477   C     0.86879   0.85915   0.02795   0.00000  Uiso   1.00
C478   C     0.79787   0.80752   0.30538   0.00000  Uiso   1.00
C479   C     0.86873   0.85919   0.31343   0.00000  Uiso   1.00
C480   C     0.79794   0.80748   0.01990   0.00000  Uiso   1.00
H481   H     0.99131   0.83004   0.11419   0.00000  Uiso   1.00
H482   H     0.67535   0.83663   0.21914   0.00000  Uiso   1.00
N483   N     0.83332   0.83332   0.28573   0.00000  Uiso   1.00
N484   N     0.83335   0.83334   0.04760   0.00000  Uiso   1.00
O485   O     0.83333   0.77225   0.20487   0.00000  Uiso   1.00
O486   O     0.83334   0.89442   0.12846   0.00000  Uiso   1.00
O487   O     0.83333   0.77226   0.12843   0.00000  Uiso   1.00
O488   O     0.83334   0.89441   0.20490   0.00000  Uiso   1.00
O489   O     0.75725   0.83333   0.19595   0.00000  Uiso   1.00
O490   O     0.90942   0.83334   0.13739   0.00000  Uiso   1.00
O491   O     0.75725   0.83334   0.11950   0.00000  Uiso   1.00
O492   O     0.90942   0.83333   0.21383   0.00000  Uiso   1.00
Zn493  Zn    0.83333   0.83333   0.21771   0.00000  Uiso   1.00
Zn494  Zn    0.83333   0.83334   0.11563   0.00000  Uiso   1.00
C495   C     0.87665   0.70970   0.09219   0.00000  Uiso   1.00
H496   H     0.90435   0.73621   0.10542   0.00000  Uiso   1.00
H497   H     0.90119   0.68765   0.07817   0.00000  Uiso   1.00
H498   H     0.84708   0.72035   0.06440   0.00000  Uiso   1.00
C499   C     0.79001   0.95696   0.24115   0.00000  Uiso   1.00
H500   H     0.76232   0.93045   0.22791   0.00000  Uiso   1.00
H501   H     0.81959   0.94632   0.26893   0.00000  Uiso   1.00
H502   H     0.76547   0.97901   0.25516   0.00000  Uiso   1.00
C503   C     0.82119   0.96263   0.08005   0.00000  Uiso   1.00
N504   N     0.81149   0.94900   0.04401   0.00000  Uiso   1.00
C505   C     0.84548   0.70403   0.25329   0.00000  Uiso   1.00
N506   N     0.85518   0.71767   0.28933   0.00000  Uiso   1.00
C507   C     0.90947   0.88775   0.05639   0.00000  Uiso   1.00
H508   H     0.90799   0.92027   0.04388   0.00000  Uiso   1.00
H509   H     0.90392   0.88975   0.09150   0.00000  Uiso   1.00
H510   H     0.94940   0.87733   0.05542   0.00000  Uiso   1.00
C511   C     0.75720   0.77892   0.27695   0.00000  Uiso   1.00
H512   H     0.75867   0.74639   0.28946   0.00000  Uiso   1.00
H513   H     0.71727   0.78933   0.27792   0.00000  Uiso   1.00
H514   H     0.76274   0.77692   0.24183   0.00000  Uiso   1.00
C515   C     0.90869   0.88848   0.29428   0.00000  Uiso   1.00
H516   H     0.90559   0.88850   0.25778   0.00000  Uiso   1.00
H517   H     0.90375   0.92114   0.30292   0.00000  Uiso   1.00
H518   H     0.94915   0.88031   0.30793   0.00000  Uiso   1.00
C519   C     0.75797   0.77819   0.03906   0.00000  Uiso   1.00
H520   H     0.76108   0.77817   0.07556   0.00000  Uiso   1.00
H521   H     0.71752   0.78636   0.02540   0.00000  Uiso   1.00
H522   H     0.76291   0.74552   0.03042   0.00000  Uiso   1.00
C523   C     0.17175   0.08708   0.50106   0.00000  Uiso   1.00
C524   C     0.16159   0.24626   0.49894   0.00000  Uiso   1.00
C525   C     0.06718   0.16635   0.48814   0.00000  Uiso   1.00
C526   C     0.26615   0.16698   0.51186   0.00000  Uiso   1.00
C527   C     0.01201   0.16571   0.48188   0.00000  Uiso   1.00
C528   C     0.32132   0.16762   0.51812   0.00000  Uiso   1.00
C529   C     0.18281   0.02204   0.46259   0.00000  Uiso   1.00
C530   C     0.15052   0.31129   0.53741   0.00000  Uiso   1.00
C531   C     0.16595   0.31358   0.45843   0.00000  Uiso   1.00
C532   C     0.16738   0.01975   0.54157   0.00000  Uiso   1.00
C533   C     0.15579   0.29073   0.49727   0.00000  Uiso   1.00
C534   C     0.17755   0.04260   0.50274   0.00000  Uiso   1.00
C535   C     0.20213   0.19248   0.36128   0.00000  Uiso   1.00
C536   C     0.13121   0.14085   0.63872   0.00000  Uiso   1.00
C537   C     0.20206   0.19252   0.64677   0.00000  Uiso   1.00
C538   C     0.13127   0.14081   0.35323   0.00000  Uiso   1.00
H539   H     0.32465   0.16337   0.44752   0.00000  Uiso   1.00
H540   H     0.00869   0.16996   0.55248   0.00000  Uiso   1.00
N541   N     0.16665   0.16666   0.61907   0.00000  Uiso   1.00
N542   N     0.16668   0.16668   0.38093   0.00000  Uiso   1.00
O543   O     0.16666   0.10558   0.53821   0.00000  Uiso   1.00
O544   O     0.16667   0.22775   0.46179   0.00000  Uiso   1.00
O545   O     0.16666   0.10559   0.46176   0.00000  Uiso   1.00
O546   O     0.16667   0.22774   0.53824   0.00000  Uiso   1.00
O547   O     0.09058   0.16666   0.52928   0.00000  Uiso   1.00
O548   O     0.24275   0.16667   0.47072   0.00000  Uiso   1.00
O549   O     0.09058   0.16667   0.45284   0.00000  Uiso   1.00
O550   O     0.24275   0.16666   0.54716   0.00000  Uiso   1.00
Zn551  Zn    0.16667   0.16666   0.55104   0.00000  Uiso   1.00
Zn552  Zn    0.16667   0.16667   0.44896   0.00000  Uiso   1.00
C553   C     0.20999   0.04304   0.42552   0.00000  Uiso   1.00
H554   H     0.23768   0.06955   0.43875   0.00000  Uiso   1.00
H555   H     0.23453   0.02099   0.41151   0.00000  Uiso   1.00
H556   H     0.18041   0.05368   0.39774   0.00000  Uiso   1.00
C557   C     0.12335   0.29030   0.57448   0.00000  Uiso   1.00
H558   H     0.09565   0.26379   0.56125   0.00000  Uiso   1.00
H559   H     0.15292   0.27965   0.60226   0.00000  Uiso   1.00
H560   H     0.09881   0.31235   0.58849   0.00000  Uiso   1.00
C561   C     0.15453   0.29597   0.41338   0.00000  Uiso   1.00
N562   N     0.14482   0.28233   0.37734   0.00000  Uiso   1.00
C563   C     0.17881   0.03737   0.58662   0.00000  Uiso   1.00
N564   N     0.18851   0.05100   0.62266   0.00000  Uiso   1.00
C565   C     0.24280   0.22108   0.38972   0.00000  Uiso   1.00
H566   H     0.24133   0.25361   0.37721   0.00000  Uiso   1.00
H567   H     0.23726   0.22308   0.42484   0.00000  Uiso   1.00
H568   H     0.28274   0.21067   0.38875   0.00000  Uiso   1.00
C569   C     0.09053   0.11225   0.61028   0.00000  Uiso   1.00
H570   H     0.09201   0.07973   0.62279   0.00000  Uiso   1.00
H571   H     0.05060   0.12267   0.61125   0.00000  Uiso   1.00
H572   H     0.09608   0.11025   0.57516   0.00000  Uiso   1.00
C573   C     0.24203   0.22181   0.62761   0.00000  Uiso   1.00
H574   H     0.23892   0.22183   0.59111   0.00000  Uiso   1.00
H575   H     0.23709   0.25448   0.63625   0.00000  Uiso   1.00
H576   H     0.28248   0.21364   0.64127   0.00000  Uiso   1.00
C577   C     0.09131   0.11152   0.37239   0.00000  Uiso   1.00
H578   H     0.09441   0.11150   0.40889   0.00000  Uiso   1.00
H579   H     0.05085   0.11969   0.35873   0.00000  Uiso   1.00
H580   H     0.09625   0.07886   0.36375   0.00000  Uiso   1.00
C581   C     0.50508   0.08708   0.50106   0.00000  Uiso   1.00
C582   C     0.49492   0.24626   0.49894   0.00000  Uiso   1.00
C583   C     0.40052   0.16635   0.48814   0.00000  Uiso   1.00
C584   C     0.59949   0.16698   0.51186   0.00000  Uiso   1.00
C585   C     0.34535   0.16571   0.48188   0.00000  Uiso   1.00
C586   C     0.65465   0.16762   0.51812   0.00000  Uiso   1.00
C587   C     0.51614   0.02204   0.46259   0.00000  Uiso   1.00
C588   C     0.48386   0.31129   0.53741   0.00000  Uiso   1.00
C589   C     0.49928   0.31358   0.45843   0.00000  Uiso   1.00
C590   C     0.50072   0.01975   0.54157   0.00000  Uiso   1.00
C591   C     0.48912   0.29073   0.49727   0.00000  Uiso   1.00
C592   C     0.51088   0.04260   0.50274   0.00000  Uiso   1.00
C593   C     0.53546   0.19248   0.36128   0.00000  Uiso   1.00
C594   C     0.46454   0.14085   0.63872   0.00000  Uiso   1.00
C595   C     0.53540   0.19252   0.64677   0.00000  Uiso   1.00
C596   C     0.46460   0.14081   0.35323   0.00000  Uiso   1.00
H597   H     0.65798   0.16337   0.44752   0.00000  Uiso   1.00
H598   H     0.34202   0.16996   0.55248   0.00000  Uiso   1.00
N599   N     0.49999   0.16666   0.61907   0.00000  Uiso   1.00
N600   N     0.50001   0.16668   0.38093   0.00000  Uiso   1.00
O601   O     0.50000   0.10558   0.53821   0.00000  Uiso   1.00
O602   O     0.50000   0.22775   0.46179   0.00000  Uiso   1.00
O603   O     0.50000   0.10559   0.46176   0.00000  Uiso   1.00
O604   O     0.50000   0.22774   0.53824   0.00000  Uiso   1.00
O605   O     0.42392   0.16666   0.52928   0.00000  Uiso   1.00
O606   O     0.57608   0.16667   0.47072   0.00000  Uiso   1.00
O607   O     0.42392   0.16667   0.45284   0.00000  Uiso   1.00
O608   O     0.57608   0.16666   0.54716   0.00000  Uiso   1.00
Zn609  Zn    0.50000   0.16666   0.55104   0.00000  Uiso   1.00
Zn610  Zn    0.50000   0.16667   0.44896   0.00000  Uiso   1.00
C611   C     0.54332   0.04304   0.42552   0.00000  Uiso   1.00
H612   H     0.57102   0.06955   0.43875   0.00000  Uiso   1.00
H613   H     0.56786   0.02099   0.41151   0.00000  Uiso   1.00
H614   H     0.51375   0.05368   0.39774   0.00000  Uiso   1.00
C615   C     0.45668   0.29030   0.57448   0.00000  Uiso   1.00
H616   H     0.42899   0.26379   0.56125   0.00000  Uiso   1.00
H617   H     0.48625   0.27965   0.60226   0.00000  Uiso   1.00
H618   H     0.43214   0.31235   0.58849   0.00000  Uiso   1.00
C619   C     0.48786   0.29597   0.41338   0.00000  Uiso   1.00
N620   N     0.47816   0.28233   0.37734   0.00000  Uiso   1.00
C621   C     0.51214   0.03737   0.58662   0.00000  Uiso   1.00
N622   N     0.52185   0.05100   0.62266   0.00000  Uiso   1.00
C623   C     0.57614   0.22108   0.38972   0.00000  Uiso   1.00
H624   H     0.57466   0.25361   0.37721   0.00000  Uiso   1.00
H625   H     0.57059   0.22308   0.42484   0.00000  Uiso   1.00
H626   H     0.61607   0.21067   0.38875   0.00000  Uiso   1.00
C627   C     0.42386   0.11225   0.61028   0.00000  Uiso   1.00
H628   H     0.42534   0.07973   0.62279   0.00000  Uiso   1.00
H629   H     0.38393   0.12267   0.61125   0.00000  Uiso   1.00
H630   H     0.42941   0.11025   0.57516   0.00000  Uiso   1.00
C631   C     0.57536   0.22181   0.62761   0.00000  Uiso   1.00
H632   H     0.57226   0.22183   0.59111   0.00000  Uiso   1.00
H633   H     0.57042   0.25448   0.63625   0.00000  Uiso   1.00
H634   H     0.61581   0.21364   0.64127   0.00000  Uiso   1.00
C635   C     0.42464   0.11152   0.37239   0.00000  Uiso   1.00
H636   H     0.42774   0.11150   0.40889   0.00000  Uiso   1.00
H637   H     0.38419   0.11969   0.35873   0.00000  Uiso   1.00
H638   H     0.42958   0.07886   0.36375   0.00000  Uiso   1.00
C639   C     0.83841   0.08708   0.50106   0.00000  Uiso   1.00
C640   C     0.82825   0.24626   0.49894   0.00000  Uiso   1.00
C641   C     0.73385   0.16635   0.48814   0.00000  Uiso   1.00
C642   C     0.93282   0.16698   0.51186   0.00000  Uiso   1.00
C643   C     0.67868   0.16571   0.48188   0.00000  Uiso   1.00
C644   C     0.98799   0.16762   0.51812   0.00000  Uiso   1.00
C645   C     0.84948   0.02204   0.46259   0.00000  Uiso   1.00
C646   C     0.81719   0.31129   0.53741   0.00000  Uiso   1.00
C647   C     0.83262   0.31358   0.45843   0.00000  Uiso   1.00
C648   C     0.83405   0.01975   0.54157   0.00000  Uiso   1.00
C649   C     0.82245   0.29073   0.49727   0.00000  Uiso   1.00
C650   C     0.84421   0.04260   0.50274   0.00000  Uiso   1.00
C651   C     0.86879   0.19248   0.36128   0.00000  Uiso   1.00
C652   C     0.79787   0.14085   0.63872   0.00000  Uiso   1.00
C653   C     0.86873   0.19252   0.64677   0.00000  Uiso   1.00
C654   C     0.79794   0.14081   0.35323   0.00000  Uiso   1.00
H655   H     0.99131   0.16337   0.44752   0.00000  Uiso   1.00
H656   H     0.67535   0.16996   0.55248   0.00000  Uiso   1.00
N657   N     0.83332   0.16666   0.61907   0.00000  Uiso   1.00
N658   N     0.83335   0.16668   0.38093   0.00000  Uiso   1.00
O659   O     0.83333   0.10558   0.53821   0.00000  Uiso   1.00
O660   O     0.83334   0.22775   0.46179   0.00000  Uiso   1.00
O661   O     0.83333   0.10559   0.46176   0.00000  Uiso   1.00
O662   O     0.83334   0.22774   0.53824   0.00000  Uiso   1.00
O663   O     0.75725   0.16666   0.52928   0.00000  Uiso   1.00
O664   O     0.90942   0.16667   0.47072   0.00000  Uiso   1.00
O665   O     0.75725   0.16667   0.45284   0.00000  Uiso   1.00
O666   O     0.90942   0.16666   0.54716   0.00000  Uiso   1.00
Zn667  Zn    0.83333   0.16666   0.55104   0.00000  Uiso   1.00
Zn668  Zn    0.83333   0.16667   0.44896   0.00000  Uiso   1.00
C669   C     0.87665   0.04304   0.42552   0.00000  Uiso   1.00
H670   H     0.90435   0.06955   0.43875   0.00000  Uiso   1.00
H671   H     0.90119   0.02099   0.41151   0.00000  Uiso   1.00
H672   H     0.84708   0.05368   0.39774   0.00000  Uiso   1.00
C673   C     0.79001   0.29030   0.57448   0.00000  Uiso   1.00
H674   H     0.76232   0.26379   0.56125   0.00000  Uiso   1.00
H675   H     0.81959   0.27965   0.60226   0.00000  Uiso   1.00
H676   H     0.76547   0.31235   0.58849   0.00000  Uiso   1.00
C677   C     0.82119   0.29597   0.41338   0.00000  Uiso   1.00
N678   N     0.81149   0.28233   0.37734   0.00000  Uiso   1.00
C679   C     0.84548   0.03737   0.58662   0.00000  Uiso   1.00
N680   N     0.85518   0.05100   0.62266   0.00000  Uiso   1.00
C681   C     0.90947   0.22108   0.38972   0.00000  Uiso   1.00
H682   H     0.90799   0.25361   0.37721   0.00000  Uiso   1.00
H683   H     0.90392   0.22308   0.42484   0.00000  Uiso   1.00
H684   H     0.94940   0.21067   0.38875   0.00000  Uiso   1.00
C685   C     0.75720   0.11225   0.61028   0.00000  Uiso   1.00
H686   H     0.75867   0.07973   0.62279   0.00000  Uiso   1.00
H687   H     0.71727   0.12267   0.61125   0.00000  Uiso   1.00
H688   H     0.76274   0.11025   0.57516   0.00000  Uiso   1.00
C689   C     0.90869   0.22181   0.62761   0.00000  Uiso   1.00
H690   H     0.90559   0.22183   0.59111   0.00000  Uiso   1.00
H691   H     0.90375   0.25448   0.63625   0.00000  Uiso   1.00
H692   H     0.94915   0.21364   0.64127   0.00000  Uiso   1.00
C693   C     0.75797   0.11152   0.37239   0.00000  Uiso   1.00
H694   H     0.76108   0.11150   0.40889   0.00000  Uiso   1.00
H695   H     0.71752   0.11969   0.35873   0.00000  Uiso   1.00
H696   H     0.76291   0.07886   0.36375   0.00000  Uiso   1.00
C697   C     0.17175   0.42041   0.50106   0.00000  Uiso   1.00
C698   C     0.16159   0.57959   0.49894   0.00000  Uiso   1.00
C699   C     0.06718   0.49969   0.48814   0.00000  Uiso   1.00
C700   C     0.26615   0.50031   0.51186   0.00000  Uiso   1.00
C701   C     0.01201   0.49905   0.48188   0.00000  Uiso   1.00
C702   C     0.32132   0.50095   0.51812   0.00000  Uiso   1.00
C703   C     0.18281   0.35538   0.46259   0.00000  Uiso   1.00
C704   C     0.15052   0.64462   0.53741   0.00000  Uiso   1.00
C705   C     0.16595   0.64692   0.45843   0.00000  Uiso   1.00
C706   C     0.16738   0.35308   0.54157   0.00000  Uiso   1.00
C707   C     0.15579   0.62406   0.49727   0.00000  Uiso   1.00
C708   C     0.17755   0.37594   0.50274   0.00000  Uiso   1.00
C709   C     0.20213   0.52582   0.36128   0.00000  Uiso   1.00
C710   C     0.13121   0.47418   0.63872   0.00000  Uiso   1.00
C711   C     0.20206   0.52586   0.64677   0.00000  Uiso   1.00
C712   C     0.13127   0.47414   0.35323   0.00000  Uiso   1.00
H713   H     0.32465   0.49671   0.44752   0.00000  Uiso   1.00
H714   H     0.00869   0.50329   0.55248   0.00000  Uiso   1.00
N715   N     0.16665   0.49999   0.61907   0.00000  Uiso   1.00
N716   N     0.16668   0.50001   0.38093   0.00000  Uiso   1.00
O717   O     0.16666   0.43892   0.53821   0.00000  Uiso   1.00
O718   O     0.16667   0.56108   0.46179   0.00000  Uiso   1.00
O719   O     0.16666   0.43893   0.46176   0.00000  Uiso   1.00
O720   O     0.16667   0.56107   0.53824   0.00000  Uiso   1.00
O721   O     0.09058   0.50000   0.52928   0.00000  Uiso   1.00
O722   O     0.24275   0.50000   0.47072   0.00000  Uiso   1.00
O723   O     0.09058   0.50000   0.45284   0.00000  Uiso   1.00
O724   O     0.24275   0.50000   0.54716   0.00000  Uiso   1.00
Zn725  Zn    0.16667   0.49999   0.55104   0.00000  Uiso   1.00
Zn726  Zn    0.16667   0.50001   0.44896   0.00000  Uiso   1.00
C727   C     0.20999   0.37637   0.42552   0.00000  Uiso   1.00
H728   H     0.23768   0.40288   0.43875   0.00000  Uiso   1.00
H729   H     0.23453   0.35432   0.41151   0.00000  Uiso   1.00
H730   H     0.18041   0.38701   0.39774   0.00000  Uiso   1.00
C731   C     0.12335   0.62363   0.57448   0.00000  Uiso   1.00
H732   H     0.09565   0.59712   0.56125   0.00000  Uiso   1.00
H733   H     0.15292   0.61299   0.60226   0.00000  Uiso   1.00
H734   H     0.09881   0.64568   0.58849   0.00000  Uiso   1.00
C735   C     0.15453   0.62930   0.41338   0.00000  Uiso   1.00
N736   N     0.14482   0.61566   0.37734   0.00000  Uiso   1.00
C737   C     0.17881   0.37070   0.58662   0.00000  Uiso   1.00
N738   N     0.18851   0.38434   0.62266   0.00000  Uiso   1.00
C739   C     0.24280   0.55442   0.38972   0.00000  Uiso   1.00
H740   H     0.24133   0.58694   0.37721   0.00000  Uiso   1.00
H741   H     0.23726   0.55642   0.42484   0.00000  Uiso   1.00
H742   H     0.28274   0.54400   0.38875   0.00000  Uiso   1.00
C743   C     0.09053   0.44558   0.61028   0.00000  Uiso   1.00
H744   H     0.09201   0.41306   0.62279   0.00000  Uiso   1.00
H745   H     0.05060   0.45600   0.61125   0.00000  Uiso   1.00
H746   H     0.09608   0.44358   0.57516   0.00000  Uiso   1.00
C747   C     0.24203   0.55514   0.62761   0.00000  Uiso   1.00
H748   H     0.23892   0.55516   0.59111   0.00000  Uiso   1.00
H749   H     0.23709   0.58781   0.63625   0.00000  Uiso   1.00
H750   H     0.28248   0.54697   0.64127   0.00000  Uiso   1.00
C751   C     0.09131   0.44486   0.37239   0.00000  Uiso   1.00
H752   H     0.09441   0.44484   0.40889   0.00000  Uiso   1.00
H753   H     0.05085   0.45303   0.35873   0.00000  Uiso   1.00
H754   H     0.09625   0.41219   0.36375   0.00000  Uiso   1.00
C755   C     0.50508   0.42041   0.50106   0.00000  Uiso   1.00
C756   C     0.49492   0.57959   0.49894   0.00000  Uiso   1.00
C757   C     0.40052   0.49969   0.48814   0.00000  Uiso   1.00
C758   C     0.59949   0.50031   0.51186   0.00000  Uiso   1.00
C759   C     0.34535   0.49905   0.48188   0.00000  Uiso   1.00
C760   C     0.65465   0.50095   0.51812   0.00000  Uiso   1.00
C761   C     0.51614   0.35538   0.46259   0.00000  Uiso   1.00
C762   C     0.48386   0.64462   0.53741   0.00000  Uiso   1.00
C763   C     0.49928   0.64692   0.45843   0.00000  Uiso   1.00
C764   C     0.50072   0.35308   0.54157   0.00000  Uiso   1.00
C765   C     0.48912   0.62406   0.49727   0.00000  Uiso   1.00
C766   C     0.51088   0.37594   0.50274   0.00000  Uiso   1.00
C767   C     0.53546   0.52582   0.36128   0.00000  Uiso   1.00
C768   C     0.46454   0.47418   0.63872   0.00000  Uiso   1.00
C769   C     0.53540   0.52586   0.64677   0.00000  Uiso   1.00
C770   C     0.46460   0.47414   0.35323   0.00000  Uiso   1.00
H771   H     0.65798   0.49671   0.44752   0.00000  Uiso   1.00
H772   H     0.34202   0.50329   0.55248   0.00000  Uiso   1.00
N773   N     0.49999   0.49999   0.61907   0.00000  Uiso   1.00
N774   N     0.50001   0.50001   0.38093   0.00000  Uiso   1.00
O775   O     0.50000   0.43892   0.53821   0.00000  Uiso   1.00
O776   O     0.50000   0.56108   0.46179   0.00000  Uiso   1.00
O777   O     0.50000   0.43893   0.46176   0.00000  Uiso   1.00
O778   O     0.50000   0.56107   0.53824   0.00000  Uiso   1.00
O779   O     0.42392   0.50000   0.52928   0.00000  Uiso   1.00
O780   O     0.57608   0.50000   0.47072   0.00000  Uiso   1.00
O781   O     0.42392   0.50000   0.45284   0.00000  Uiso   1.00
O782   O     0.57608   0.50000   0.54716   0.00000  Uiso   1.00
Zn783  Zn    0.50000   0.49999   0.55104   0.00000  Uiso   1.00
Zn784  Zn    0.50000   0.50001   0.44896   0.00000  Uiso   1.00
C785   C     0.54332   0.37637   0.42552   0.00000  Uiso   1.00
H786   H     0.57102   0.40288   0.43875   0.00000  Uiso   1.00
H787   H     0.56786   0.35432   0.41151   0.00000  Uiso   1.00
H788   H     0.51375   0.38701   0.39774   0.00000  Uiso   1.00
C789   C     0.45668   0.62363   0.57448   0.00000  Uiso   1.00
H790   H     0.42899   0.59712   0.56125   0.00000  Uiso   1.00
H791   H     0.48625   0.61299   0.60226   0.00000  Uiso   1.00
H792   H     0.43214   0.64568   0.58849   0.00000  Uiso   1.00
C793   C     0.48786   0.62930   0.41338   0.00000  Uiso   1.00
N794   N     0.47816   0.61566   0.37734   0.00000  Uiso   1.00
C795   C     0.51214   0.37070   0.58662   0.00000  Uiso   1.00
N796   N     0.52185   0.38434   0.62266   0.00000  Uiso   1.00
C797   C     0.57614   0.55442   0.38972   0.00000  Uiso   1.00
H798   H     0.57466   0.58694   0.37721   0.00000  Uiso   1.00
H799   H     0.57059   0.55642   0.42484   0.00000  Uiso   1.00
H800   H     0.61607   0.54400   0.38875   0.00000  Uiso   1.00
C801   C     0.42386   0.44558   0.61028   0.00000  Uiso   1.00
H802   H     0.42534   0.41306   0.62279   0.00000  Uiso   1.00
H803   H     0.38393   0.45600   0.61125   0.00000  Uiso   1.00
H804   H     0.42941   0.44358   0.57516   0.00000  Uiso   1.00
C805   C     0.57536   0.55514   0.62761   0.00000  Uiso   1.00
H806   H     0.57226   0.55516   0.59111   0.00000  Uiso   1.00
H807   H     0.57042   0.58781   0.63625   0.00000  Uiso   1.00
H808   H     0.61581   0.54697   0.64127   0.00000  Uiso   1.00
C809   C     0.42464   0.44486   0.37239   0.00000  Uiso   1.00
H810   H     0.42774   0.44484   0.40889   0.00000  Uiso   1.00
H811   H     0.38419   0.45303   0.35873   0.00000  Uiso   1.00
H812   H     0.42958   0.41219   0.36375   0.00000  Uiso   1.00
C813   C     0.83841   0.42041   0.50106   0.00000  Uiso   1.00
C814   C     0.82825   0.57959   0.49894   0.00000  Uiso   1.00
C815   C     0.73385   0.49969   0.48814   0.00000  Uiso   1.00
C816   C     0.93282   0.50031   0.51186   0.00000  Uiso   1.00
C817   C     0.67868   0.49905   0.48188   0.00000  Uiso   1.00
C818   C     0.98799   0.50095   0.51812   0.00000  Uiso   1.00
C819   C     0.84948   0.35538   0.46259   0.00000  Uiso   1.00
C820   C     0.81719   0.64462   0.53741   0.00000  Uiso   1.00
C821   C     0.83262   0.64692   0.45843   0.00000  Uiso   1.00
C822   C     0.83405   0.35308   0.54157   0.00000  Uiso   1.00
C823   C     0.82245   0.62406   0.49727   0.00000  Uiso   1.00
C824   C     0.84421   0.37594   0.50274   0.00000  Uiso   1.00
C825   C     0.86879   0.52582   0.36128   0.00000  Uiso   1.00
C826   C     0.79787   0.47418   0.63872   0.00000  Uiso   1.00
C827   C     0.86873   0.52586   0.64677   0.00000  Uiso   1.00
C828   C     0.79794   0.47414   0.35323   0.00000  Uiso   1.00
H829   H     0.99131   0.49671   0.44752   0.00000  Uiso   1.00
H830   H     0.67535   0.50329   0.55248   0.00000  Uiso   1.00
N831   N     0.83332   0.49999   0.61907   0.00000  Uiso   1.00
N832   N     0.83335   0.50001   0.38093   0.00000  Uiso   1.00
O833   O     0.83333   0.43892   0.53821   0.00000  Uiso   1.00
O834   O     0.83334   0.56108   0.46179   0.00000  Uiso   1.00
O835   O     0.83333   0.43893   0.46176   0.00000  Uiso   1.00
O836   O     0.83334   0.56107   0.53824   0.00000  Uiso   1.00
O837   O     0.75725   0.50000   0.52928   0.00000  Uiso   1.00
O838   O     0.90942   0.50000   0.47072   0.00000  Uiso   1.00
O839   O     0.75725   0.50000   0.45284   0.00000  Uiso   1.00
O840   O     0.90942   0.50000   0.54716   0.00000  Uiso   1.00
Zn841  Zn    0.83333   0.49999   0.55104   0.00000  Uiso   1.00
Zn842  Zn    0.83333   0.50001   0.44896   0.00000  Uiso   1.00
C843   C     0.87665   0.37637   0.42552   0.00000  Uiso   1.00
H844   H     0.90435   0.40288   0.43875   0.00000  Uiso   1.00
H845   H     0.90119   0.35432   0.41151   0.00000  Uiso   1.00
H846   H     0.84708   0.38701   0.39774   0.00000  Uiso   1.00
C847   C     0.79001   0.62363   0.57448   0.00000  Uiso   1.00
H848   H     0.76232   0.59712   0.56125   0.00000  Uiso   1.00
H849   H     0.81959   0.61299   0.60226   0.00000  Uiso   1.00
H850   H     0.76547   0.64568   0.58849   0.00000  Uiso   1.00
C851   C     0.82119   0.62930   0.41338   0.00000  Uiso   1.00
N852   N     0.81149   0.61566   0.37734   0.00000  Uiso   1.00
C853   C     0.84548   0.37070   0.58662   0.00000  Uiso   1.00
N854   N     0.85518   0.38434   0.62266   0.00000  Uiso   1.00
C855   C     0.90947   0.55442   0.38972   0.00000  Uiso   1.00
H856   H     0.90799   0.58694   0.37721   0.00000  Uiso   1.00
H857   H     0.90392   0.55642   0.42484   0.00000  Uiso   1.00
H858   H     0.94940   0.54400   0.38875   0.00000  Uiso   1.00
C859   C     0.75720   0.44558   0.61028   0.00000  Uiso   1.00
H860   H     0.75867   0.41306   0.62279   0.00000  Uiso   1.00
H861   H     0.71727   0.45600   0.61125   0.00000  Uiso   1.00
H862   H     0.76274   0.44358   0.57516   0.00000  Uiso   1.00
C863   C     0.90869   0.55514   0.62761   0.00000  Uiso   1.00
H864   H     0.90559   0.55516   0.59111   0.00000  Uiso   1.00
H865   H     0.90375   0.58781   0.63625   0.00000  Uiso   1.00
H866   H     0.94915   0.54697   0.64127   0.00000  Uiso   1.00
C867   C     0.75797   0.44486   0.37239   0.00000  Uiso   1.00
H868   H     0.76108   0.44484   0.40889   0.00000  Uiso   1.00
H869   H     0.71752   0.45303   0.35873   0.00000  Uiso   1.00
H870   H     0.76291   0.41219   0.36375   0.00000  Uiso   1.00
C871   C     0.17175   0.75374   0.50106   0.00000  Uiso   1.00
C872   C     0.16159   0.91292   0.49894   0.00000  Uiso   1.00
C873   C     0.06718   0.83302   0.48814   0.00000  Uiso   1.00
C874   C     0.26615   0.83365   0.51186   0.00000  Uiso   1.00
C875   C     0.01201   0.83238   0.48188   0.00000  Uiso   1.00
C876   C     0.32132   0.83429   0.51812   0.00000  Uiso   1.00
C877   C     0.18281   0.68871   0.46259   0.00000  Uiso   1.00
C878   C     0.15052   0.97796   0.53741   0.00000  Uiso   1.00
C879   C     0.16595   0.98025   0.45843   0.00000  Uiso   1.00
C880   C     0.16738   0.68642   0.54157   0.00000  Uiso   1.00
C881   C     0.15579   0.95740   0.49727   0.00000  Uiso   1.00
C882   C     0.17755   0.70927   0.50274   0.00000  Uiso   1.00
C883   C     0.20213   0.85915   0.36128   0.00000  Uiso   1.00
C884   C     0.13121   0.80752   0.63872   0.00000  Uiso   1.00
C885   C     0.20206   0.85919   0.64677   0.00000  Uiso   1.00
C886   C     0.13127   0.80748   0.35323   0.00000  Uiso   1.00
H887   H     0.32465   0.83004   0.44752   0.00000  Uiso   1.00
H888   H     0.00869   0.83663   0.55248   0.00000  Uiso   1.00
N889   N     0.16665   0.83332   0.61907   0.00000  Uiso   1.00
N890   N     0.16668   0.83334   0.38093   0.00000  Uiso   1.00
O891   O     0.16666   0.77225   0.53821   0.00000  Uiso   1.00
O892   O     0.16667   0.89442   0.46179   0.00000  Uiso   1.00
O893   O     0.16666   0.77226   0.46176   0.00000  Uiso   1.00
O894   O     0.16667   0.89441   0.53824   0.00000  Uiso   1.00
O895   O     0.09058   0.83333   0.52928   0.00000  Uiso   1.00
O896   O     0.24275   0.83334   0.47072   0.00000  Uiso   1.00
O897   O     0.09058   0.83334   0.45284   0.00000  Uiso   1.00
O898   O     0.24275   0.83333   0.54716   0.00000  Uiso   1.00
Zn899  Zn    0.16667   0.83333   0.55104   0.00000  Uiso   1.00
Zn900  Zn    0.16667   0.83334   0.44896   0.00000  Uiso   1.00
C901   C     0.20999   0.70970   0.42552   0.00000  Uiso   1.00
H902   H     0.23768   0.73621   0.43875   0.00000  Uiso   1.00
H903   H     0.23453   0.68765   0.41151   0.00000  Uiso   1.00
H904   H     0.18041   0.72035   0.39774   0.00000  Uiso   1.00
C905   C     0.12335   0.95696   0.57448   0.00000  Uiso   1.00
H906   H     0.09565   0.93045   0.56125   0.00000  Uiso   1.00
H907   H     0.15292   0.94632   0.60226   0.00000  Uiso   1.00
H908   H     0.09881   0.97901   0.58849   0.00000  Uiso   1.00
C909   C     0.15453   0.96263   0.41338   0.00000  Uiso   1.00
N910   N     0.14482   0.94900   0.37734   0.00000  Uiso   1.00
C911   C     0.17881   0.70403   0.58662   0.00000  Uiso   1.00
N912   N     0.18851   0.71767   0.62266   0.00000  Uiso   1.00
C913   C     0.24280   0.88775   0.38972   0.00000  Uiso   1.00
H914   H     0.24133   0.92027   0.37721   0.00000  Uiso   1.00
H915   H     0.23726   0.88975   0.42484   0.00000  Uiso   1.00
H916   H     0.28274   0.87733   0.38875   0.00000  Uiso   1.00
C917   C     0.09053   0.77892   0.61028   0.00000  Uiso   1.00
H918   H     0.09201   0.74639   0.62279   0.00000  Uiso   1.00
H919   H     0.05060   0.78933   0.61125   0.00000  Uiso   1.00
H920   H     0.09608   0.77692   0.57516   0.00000  Uiso   1.00
C921   C     0.24203   0.88848   0.62761   0.00000  Uiso   1.00
H922   H     0.23892   0.88850   0.59111   0.00000  Uiso   1.00
H923   H     0.23709   0.92114   0.63625   0.00000  Uiso   1.00
H924   H     0.28248   0.88031   0.64127   0.00000  Uiso   1.00
C925   C     0.09131   0.77819   0.37239   0.00000  Uiso   1.00
H926   H     0.09441   0.77817   0.40889   0.00000  Uiso   1.00
H927   H     0.05085   0.78636   0.35873   0.00000  Uiso   1.00
H928   H     0.09625   0.74552   0.36375   0.00000  Uiso   1.00
C929   C     0.50508   0.75374   0.50106   0.00000  Uiso   1.00
C930   C     0.49492   0.91292   0.49894   0.00000  Uiso   1.00
C931   C     0.40052   0.83302   0.48814   0.00000  Uiso   1.00
C932   C     0.59949   0.83365   0.51186   0.00000  Uiso   1.00
C933   C     0.34535   0.83238   0.48188   0.00000  Uiso   1.00
C934   C     0.65465   0.83429   0.51812   0.00000  Uiso   1.00
C935   C     0.51614   0.68871   0.46259   0.00000  Uiso   1.00
C936   C     0.48386   0.97796   0.53741   0.00000  Uiso   1.00
C937   C     0.49928   0.98025   0.45843   0.00000  Uiso   1.00
C938   C     0.50072   0.68642   0.54157   0.00000  Uiso   1.00
C939   C     0.48912   0.95740   0.49727   0.00000  Uiso   1.00
C940   C     0.51088   0.70927   0.50274   0.00000  Uiso   1.00
C941   C     0.53546   0.85915   0.36128   0.00000  Uiso   1.00
C942   C     0.46454   0.80752   0.63872   0.00000  Uiso   1.00
C943   C     0.53540   0.85919   0.64677   0.00000  Uiso   1.00
C944   C     0.46460   0.80748   0.35323   0.00000  Uiso   1.00
H945   H     0.65798   0.83004   0.44752   0.00000  Uiso   1.00
H946   H     0.34202   0.83663   0.55248   0.00000  Uiso   1.00
N947   N     0.49999   0.83332   0.61907   0.00000  Uiso   1.00
N948   N     0.50001   0.83334   0.38093   0.00000  Uiso   1.00
O949   O     0.50000   0.77225   0.53821   0.00000  Uiso   1.00
O950   O     0.50000   0.89442   0.46179   0.00000  Uiso   1.00
O951   O     0.50000   0.77226   0.46176   0.00000  Uiso   1.00
O952   O     0.50000   0.89441   0.53824   0.00000  Uiso   1.00
O953   O     0.42392   0.83333   0.52928   0.00000  Uiso   1.00
O954   O     0.57608   0.83334   0.47072   0.00000  Uiso   1.00
O955   O     0.42392   0.83334   0.45284   0.00000  Uiso   1.00
O956   O     0.57608   0.83333   0.54716   0.00000  Uiso   1.00
Zn957  Zn    0.50000   0.83333   0.55104   0.00000  Uiso   1.00
Zn958  Zn    0.50000   0.83334   0.44896   0.00000  Uiso   1.00
C959   C     0.54332   0.70970   0.42552   0.00000  Uiso   1.00
H960   H     0.57102   0.73621   0.43875   0.00000  Uiso   1.00
H961   H     0.56786   0.68765   0.41151   0.00000  Uiso   1.00
H962   H     0.51375   0.72035   0.39774   0.00000  Uiso   1.00
C963   C     0.45668   0.95696   0.57448   0.00000  Uiso   1.00
H964   H     0.42899   0.93045   0.56125   0.00000  Uiso   1.00
H965   H     0.48625   0.94632   0.60226   0.00000  Uiso   1.00
H966   H     0.43214   0.97901   0.58849   0.00000  Uiso   1.00
C967   C     0.48786   0.96263   0.41338   0.00000  Uiso   1.00
N968   N     0.47816   0.94900   0.37734   0.00000  Uiso   1.00
C969   C     0.51214   0.70403   0.58662   0.00000  Uiso   1.00
N970   N     0.52185   0.71767   0.62266   0.00000  Uiso   1.00
C971   C     0.57614   0.88775   0.38972   0.00000  Uiso   1.00
H972   H     0.57466   0.92027   0.37721   0.00000  Uiso   1.00
H973   H     0.57059   0.88975   0.42484   0.00000  Uiso   1.00
H974   H     0.61607   0.87733   0.38875   0.00000  Uiso   1.00
C975   C     0.42386   0.77892   0.61028   0.00000  Uiso   1.00
H976   H     0.42534   0.74639   0.62279   0.00000  Uiso   1.00
H977   H     0.38393   0.78933   0.61125   0.00000  Uiso   1.00
H978   H     0.42941   0.77692   0.57516   0.00000  Uiso   1.00
C979   C     0.57536   0.88848   0.62761   0.00000  Uiso   1.00
H980   H     0.57226   0.88850   0.59111   0.00000  Uiso   1.00
H981   H     0.57042   0.92114   0.63625   0.00000  Uiso   1.00
H982   H     0.61581   0.88031   0.64127   0.00000  Uiso   1.00
C983   C     0.42464   0.77819   0.37239   0.00000  Uiso   1.00
H984   H     0.42774   0.77817   0.40889   0.00000  Uiso   1.00
H985   H     0.38419   0.78636   0.35873   0.00000  Uiso   1.00
H986   H     0.42958   0.74552   0.36375   0.00000  Uiso   1.00
C987   C     0.83841   0.75374   0.50106   0.00000  Uiso   1.00
C988   C     0.82825   0.91292   0.49894   0.00000  Uiso   1.00
C989   C     0.73385   0.83302   0.48814   0.00000  Uiso   1.00
C990   C     0.93282   0.83365   0.51186   0.00000  Uiso   1.00
C991   C     0.67868   0.83238   0.48188   0.00000  Uiso   1.00
C992   C     0.98799   0.83429   0.51812   0.00000  Uiso   1.00
C993   C     0.84948   0.68871   0.46259   0.00000  Uiso   1.00
C994   C     0.81719   0.97796   0.53741   0.00000  Uiso   1.00
C995   C     0.83262   0.98025   0.45843   0.00000  Uiso   1.00
C996   C     0.83405   0.68642   0.54157   0.00000  Uiso   1.00
C997   C     0.82245   0.95740   0.49727   0.00000  Uiso   1.00
C998   C     0.84421   0.70927   0.50274   0.00000  Uiso   1.00
C999   C     0.86879   0.85915   0.36128   0.00000  Uiso   1.00
C1000  C     0.79787   0.80752   0.63872   0.00000  Uiso   1.00
C1001  C     0.86873   0.85919   0.64677   0.00000  Uiso   1.00
C1002  C     0.79794   0.80748   0.35323   0.00000  Uiso   1.00
H1003  H     0.99131   0.83004   0.44752   0.00000  Uiso   1.00
H1004  H     0.67535   0.83663   0.55248   0.00000  Uiso   1.00
N1005  N     0.83332   0.83332   0.61907   0.00000  Uiso   1.00
N1006  N     0.83335   0.83334   0.38093   0.00000  Uiso   1.00
O1007  O     0.83333   0.77225   0.53821   0.00000  Uiso   1.00
O1008  O     0.83334   0.89442   0.46179   0.00000  Uiso   1.00
O1009  O     0.83333   0.77226   0.46176   0.00000  Uiso   1.00
O1010  O     0.83334   0.89441   0.53824   0.00000  Uiso   1.00
O1011  O     0.75725   0.83333   0.52928   0.00000  Uiso   1.00
O1012  O     0.90942   0.83334   0.47072   0.00000  Uiso   1.00
O1013  O     0.75725   0.83334   0.45284   0.00000  Uiso   1.00
O1014  O     0.90942   0.83333   0.54716   0.00000  Uiso   1.00
Zn1015 Zn    0.83333   0.83333   0.55104   0.00000  Uiso   1.00
Zn1016 Zn    0.83333   0.83334   0.44896   0.00000  Uiso   1.00
C1017  C     0.87665   0.70970   0.42552   0.00000  Uiso   1.00
H1018  H     0.90435   0.73621   0.43875   0.00000  Uiso   1.00
H1019  H     0.90119   0.68765   0.41151   0.00000  Uiso   1.00
H1020  H     0.84708   0.72035   0.39774   0.00000  Uiso   1.00
C1021  C     0.79001   0.95696   0.57448   0.00000  Uiso   1.00
H1022  H     0.76232   0.93045   0.56125   0.00000  Uiso   1.00
H1023  H     0.81959   0.94632   0.60226   0.00000  Uiso   1.00
H1024  H     0.76547   0.97901   0.58849   0.00000  Uiso   1.00
C1025  C     0.82119   0.96263   0.41338   0.00000  Uiso   1.00
N1026  N     0.81149   0.94900   0.37734   0.00000  Uiso   1.00
C1027  C     0.84548   0.70403   0.58662   0.00000  Uiso   1.00
N1028  N     0.85518   0.71767   0.62266   0.00000  Uiso   1.00
C1029  C     0.90947   0.88775   0.38972   0.00000  Uiso   1.00
H1030  H     0.90799   0.92027   0.37721   0.00000  Uiso   1.00
H1031  H     0.90392   0.88975   0.42484   0.00000  Uiso   1.00
H1032  H     0.94940   0.87733   0.38875   0.00000  Uiso   1.00
C1033  C     0.75720   0.77892   0.61028   0.00000  Uiso   1.00
H1034  H     0.75867   0.74639   0.62279   0.00000  Uiso   1.00
H1035  H     0.71727   0.78933   0.61125   0.00000  Uiso   1.00
H1036  H     0.76274   0.77692   0.57516   0.00000  Uiso   1.00
C1037  C     0.90869   0.88848   0.62761   0.00000  Uiso   1.00
H1038  H     0.90559   0.88850   0.59111   0.00000  Uiso   1.00
H1039  H     0.90375   0.92114   0.63625   0.00000  Uiso   1.00
H1040  H     0.94915   0.88031   0.64127   0.00000  Uiso   1.00
C1041  C     0.75797   0.77819   0.37239   0.00000  Uiso   1.00
H1042  H     0.76108   0.77817   0.40889   0.00000  Uiso   1.00
H1043  H     0.71752   0.78636   0.35873   0.00000  Uiso   1.00
H1044  H     0.76291   0.74552   0.36375   0.00000  Uiso   1.00
C1045  C     0.17175   0.08708   0.83440   0.00000  Uiso   1.00
C1046  C     0.16159   0.24626   0.83227   0.00000  Uiso   1.00
C1047  C     0.06718   0.16635   0.82147   0.00000  Uiso   1.00
C1048  C     0.26615   0.16698   0.84519   0.00000  Uiso   1.00
C1049  C     0.01201   0.16571   0.81521   0.00000  Uiso   1.00
C1050  C     0.32132   0.16762   0.85146   0.00000  Uiso   1.00
C1051  C     0.18281   0.02204   0.79592   0.00000  Uiso   1.00
C1052  C     0.15052   0.31129   0.87074   0.00000  Uiso   1.00
C1053  C     0.16595   0.31358   0.79176   0.00000  Uiso   1.00
C1054  C     0.16738   0.01975   0.87490   0.00000  Uiso   1.00
C1055  C     0.15579   0.29073   0.83060   0.00000  Uiso   1.00
C1056  C     0.17755   0.04260   0.83607   0.00000  Uiso   1.00
C1057  C     0.20213   0.19248   0.69462   0.00000  Uiso   1.00
C1058  C     0.13121   0.14085   0.97205   0.00000  Uiso   1.00
C1059  C     0.20206   0.19252   0.98010   0.00000  Uiso   1.00
C1060  C     0.13127   0.14081   0.68657   0.00000  Uiso   1.00
H1061  H     0.32465   0.16337   0.78086   0.00000  Uiso   1.00
H1062  H     0.00869   0.16996   0.88581   0.00000  Uiso   1.00
N1063  N     0.16665   0.16666   0.95240   0.00000  Uiso   1.00
N1064  N     0.16668   0.16668   0.71427   0.00000  Uiso   1.00
O1065  O     0.16666   0.10558   0.87154   0.00000  Uiso   1.00
O1066  O     0.16667   0.22775   0.79513   0.00000  Uiso   1.00
O1067  O     0.16666   0.10559   0.79510   0.00000  Uiso   1.00
O1068  O     0.16667   0.22774   0.87157   0.00000  Uiso   1.00
O1069  O     0.09058   0.16666   0.86261   0.00000  Uiso   1.00
O1070  O     0.24275   0.16667   0.80405   0.00000  Uiso   1.00
O1071  O     0.09058   0.16667   0.78617   0.00000  Uiso   1.00
O1072  O     0.24275   0.16666   0.88050   0.00000  Uiso   1.00
Zn1073 Zn    0.16667   0.16666   0.88437   0.00000  Uiso   1.00
Zn1074 Zn    0.16667   0.16667   0.78229   0.00000  Uiso   1.00
C1075  C     0.20999   0.04304   0.75885   0.00000  Uiso   1.00
H1076  H     0.23768   0.06955   0.77209   0.00000  Uiso   1.00
H1077  H     0.23453   0.02099   0.74484   0.00000  Uiso   1.00
H1078  H     0.18041   0.05368   0.73107   0.00000  Uiso   1.00
C1079  C     0.12335   0.29030   0.90781   0.00000  Uiso   1.00
H1080  H     0.09565   0.26379   0.89458   0.00000  Uiso   1.00
H1081  H     0.15292   0.27965   0.93560   0.00000  Uiso   1.00
H1082  H     0.09881   0.31235   0.92183   0.00000  Uiso   1.00
C1083  C     0.15453   0.29597   0.74671   0.00000  Uiso   1.00
N1084  N     0.14482   0.28233   0.71067   0.00000  Uiso   1.00
C1085  C     0.17881   0.03737   0.91995   0.00000  Uiso   1.00
N1086  N     0.18851   0.05100   0.95599   0.00000  Uiso   1.00
C1087  C     0.24280   0.22108   0.72305   0.00000  Uiso   1.00
H1088  H     0.24133   0.25361   0.71054   0.00000  Uiso   1.00
H1089  H     0.23726   0.22308   0.75817   0.00000  Uiso   1.00
H1090  H     0.28274   0.21067   0.72208   0.00000  Uiso   1.00
C1091  C     0.09053   0.11225   0.94361   0.00000  Uiso   1.00
H1092  H     0.09201   0.07973   0.95612   0.00000  Uiso   1.00
H1093  H     0.05060   0.12267   0.94458   0.00000  Uiso   1.00
H1094  H     0.09608   0.11025   0.90850   0.00000  Uiso   1.00
C1095  C     0.24203   0.22181   0.96094   0.00000  Uiso   1.00
H1096  H     0.23892   0.22183   0.92444   0.00000  Uiso   1.00
H1097  H     0.23709   0.25448   0.96958   0.00000  Uiso   1.00
H1098  H     0.28248   0.21364   0.97460   0.00000  Uiso   1.00
C1099  C     0.09131   0.11152   0.70572   0.00000  Uiso   1.00
H1100  H     0.09441   0.11150   0.74222   0.00000  Uiso   1.00
H1101  H     0.05085   0.11969   0.69207   0.00000  Uiso   1.00
H1102  H     0.09625   0.07886   0.69708   0.00000  Uiso   1.00
C1103  C     0.50508   0.08708   0.83440   0.00000  Uiso   1.00
C1104  C     0.49492   0.24626   0.83227   0.00000  Uiso   1.00
C1105  C     0.40052   0.16635   0.82147   0.00000  Uiso   1.00
C1106  C     0.59949   0.16698   0.84519   0.00000  Uiso   1.00
C1107  C     0.34535   0.16571   0.81521   0.00000  Uiso   1.00
C1108  C     0.65465   0.16762   0.85146   0.00000  Uiso   1.00
C1109  C     0.51614   0.02204   0.79592   0.00000  Uiso   1.00
C1110  C     0.48386   0.31129   0.87074   0.00000  Uiso   1.00
C1111  C     0.49928   0.31358   0.79176   0.00000  Uiso   1.00
C1112  C     0.50072   0.01975   0.87490   0.00000  Uiso   1.00
C1113  C     0.48912   0.29073   0.83060   0.00000  Uiso   1.00
C1114  C     0.51088   0.04260   0.83607   0.00000  Uiso   1.00
C1115  C     0.53546   0.19248   0.69462   0.00000  Uiso   1.00
C1116  C     0.46454   0.14085   0.97205   0.00000  Uiso   1.00
C1117  C     0.53540   0.19252   0.98010   0.00000  Uiso   1.00
C1118  C     0.46460   0.14081   0.68657   0.00000  Uiso   1.00
H1119  H     0.65798   0.16337   0.78086   0.00000  Uiso   1.00
H1120  H     0.34202   0.16996   0.88581   0.00000  Uiso   1.00
N1121  N     0.49999   0.16666   0.95240   0.00000  Uiso   1.00
N1122  N     0.50001   0.16668   0.71427   0.00000  Uiso   1.00
O1123  O     0.50000   0.10558   0.87154   0.00000  Uiso   1.00
O1124  O     0.50000   0.22775   0.79513   0.00000  Uiso   1.00
O1125  O     0.50000   0.10559   0.79510   0.00000  Uiso   1.00
O1126  O     0.50000   0.22774   0.87157   0.00000  Uiso   1.00
O1127  O     0.42392   0.16666   0.86261   0.00000  Uiso   1.00
O1128  O     0.57608   0.16667   0.80405   0.00000  Uiso   1.00
O1129  O     0.42392   0.16667   0.78617   0.00000  Uiso   1.00
O1130  O     0.57608   0.16666   0.88050   0.00000  Uiso   1.00
Zn1131 Zn    0.50000   0.16666   0.88437   0.00000  Uiso   1.00
Zn1132 Zn    0.50000   0.16667   0.78229   0.00000  Uiso   1.00
C1133  C     0.54332   0.04304   0.75885   0.00000  Uiso   1.00
H1134  H     0.57102   0.06955   0.77209   0.00000  Uiso   1.00
H1135  H     0.56786   0.02099   0.74484   0.00000  Uiso   1.00
H1136  H     0.51375   0.05368   0.73107   0.00000  Uiso   1.00
C1137  C     0.45668   0.29030   0.90781   0.00000  Uiso   1.00
H1138  H     0.42899   0.26379   0.89458   0.00000  Uiso   1.00
H1139  H     0.48625   0.27965   0.93560   0.00000  Uiso   1.00
H1140  H     0.43214   0.31235   0.92183   0.00000  Uiso   1.00
C1141  C     0.48786   0.29597   0.74671   0.00000  Uiso   1.00
N1142  N     0.47816   0.28233   0.71067   0.00000  Uiso   1.00
C1143  C     0.51214   0.03737   0.91995   0.00000  Uiso   1.00
N1144  N     0.52185   0.05100   0.95599   0.00000  Uiso   1.00
C1145  C     0.57614   0.22108   0.72305   0.00000  Uiso   1.00
H1146  H     0.57466   0.25361   0.71054   0.00000  Uiso   1.00
H1147  H     0.57059   0.22308   0.75817   0.00000  Uiso   1.00
H1148  H     0.61607   0.21067   0.72208   0.00000  Uiso   1.00
C1149  C     0.42386   0.11225   0.94361   0.00000  Uiso   1.00
H1150  H     0.42534   0.07973   0.95612   0.00000  Uiso   1.00
H1151  H     0.38393   0.12267   0.94458   0.00000  Uiso   1.00
H1152  H     0.42941   0.11025   0.90850   0.00000  Uiso   1.00
C1153  C     0.57536   0.22181   0.96094   0.00000  Uiso   1.00
H1154  H     0.57226   0.22183   0.92444   0.00000  Uiso   1.00
H1155  H     0.57042   0.25448   0.96958   0.00000  Uiso   1.00
H1156  H     0.61581   0.21364   0.97460   0.00000  Uiso   1.00
C1157  C     0.42464   0.11152   0.70572   0.00000  Uiso   1.00
H1158  H     0.42774   0.11150   0.74222   0.00000  Uiso   1.00
H1159  H     0.38419   0.11969   0.69207   0.00000  Uiso   1.00
H1160  H     0.42958   0.07886   0.69708   0.00000  Uiso   1.00
C1161  C     0.83841   0.08708   0.83440   0.00000  Uiso   1.00
C1162  C     0.82825   0.24626   0.83227   0.00000  Uiso   1.00
C1163  C     0.73385   0.16635   0.82147   0.00000  Uiso   1.00
C1164  C     0.93282   0.16698   0.84519   0.00000  Uiso   1.00
C1165  C     0.67868   0.16571   0.81521   0.00000  Uiso   1.00
C1166  C     0.98799   0.16762   0.85146   0.00000  Uiso   1.00
C1167  C     0.84948   0.02204   0.79592   0.00000  Uiso   1.00
C1168  C     0.81719   0.31129   0.87074   0.00000  Uiso   1.00
C1169  C     0.83262   0.31358   0.79176   0.00000  Uiso   1.00
C1170  C     0.83405   0.01975   0.87490   0.00000  Uiso   1.00
C1171  C     0.82245   0.29073   0.83060   0.00000  Uiso   1.00
C1172  C     0.84421   0.04260   0.83607   0.00000  Uiso   1.00
C1173  C     0.86879   0.19248   0.69462   0.00000  Uiso   1.00
C1174  C     0.79787   0.14085   0.97205   0.00000  Uiso   1.00
C1175  C     0.86873   0.19252   0.98010   0.00000  Uiso   1.00
C1176  C     0.79794   0.14081   0.68657   0.00000  Uiso   1.00
H1177  H     0.99131   0.16337   0.78086   0.00000  Uiso   1.00
H1178  H     0.67535   0.16996   0.88581   0.00000  Uiso   1.00
N1179  N     0.83332   0.16666   0.95240   0.00000  Uiso   1.00
N1180  N     0.83335   0.16668   0.71427   0.00000  Uiso   1.00
O1181  O     0.83333   0.10558   0.87154   0.00000  Uiso   1.00
O1182  O     0.83334   0.22775   0.79513   0.00000  Uiso   1.00
O1183  O     0.83333   0.10559   0.79510   0.00000  Uiso   1.00
O1184  O     0.83334   0.22774   0.87157   0.00000  Uiso   1.00
O1185  O     0.75725   0.16666   0.86261   0.00000  Uiso   1.00
O1186  O     0.90942   0.16667   0.80405   0.00000  Uiso   1.00
O1187  O     0.75725   0.16667   0.78617   0.00000  Uiso   1.00
O1188  O     0.90942   0.16666   0.88050   0.00000  Uiso   1.00
Zn1189 Zn    0.83333   0.16666   0.88437   0.00000  Uiso   1.00
Zn1190 Zn    0.83333   0.16667   0.78229   0.00000  Uiso   1.00
C1191  C     0.87665   0.04304   0.75885   0.00000  Uiso   1.00
H1192  H     0.90435   0.06955   0.77209   0.00000  Uiso   1.00
H1193  H     0.90119   0.02099   0.74484   0.00000  Uiso   1.00
H1194  H     0.84708   0.05368   0.73107   0.00000  Uiso   1.00
C1195  C     0.79001   0.29030   0.90781   0.00000  Uiso   1.00
H1196  H     0.76232   0.26379   0.89458   0.00000  Uiso   1.00
H1197  H     0.81959   0.27965   0.93560   0.00000  Uiso   1.00
H1198  H     0.76547   0.31235   0.92183   0.00000  Uiso   1.00
C1199  C     0.82119   0.29597   0.74671   0.00000  Uiso   1.00
N1200  N     0.81149   0.28233   0.71067   0.00000  Uiso   1.00
C1201  C     0.84548   0.03737   0.91995   0.00000  Uiso   1.00
N1202  N     0.85518   0.05100   0.95599   0.00000  Uiso   1.00
C1203  C     0.90947   0.22108   0.72305   0.00000  Uiso   1.00
H1204  H     0.90799   0.25361   0.71054   0.00000  Uiso   1.00
H1205  H     0.90392   0.22308   0.75817   0.00000  Uiso   1.00
H1206  H     0.94940   0.21067   0.72208   0.00000  Uiso   1.00
C1207  C     0.75720   0.11225   0.94361   0.00000  Uiso   1.00
H1208  H     0.75867   0.07973   0.95612   0.00000  Uiso   1.00
H1209  H     0.71727   0.12267   0.94458   0.00000  Uiso   1.00
H1210  H     0.76274   0.11025   0.90850   0.00000  Uiso   1.00
C1211  C     0.90869   0.22181   0.96094   0.00000  Uiso   1.00
H1212  H     0.90559   0.22183   0.92444   0.00000  Uiso   1.00
H1213  H     0.90375   0.25448   0.96958   0.00000  Uiso   1.00
H1214  H     0.94915   0.21364   0.97460   0.00000  Uiso   1.00
C1215  C     0.75797   0.11152   0.70572   0.00000  Uiso   1.00
H1216  H     0.76108   0.11150   0.74222   0.00000  Uiso   1.00
H1217  H     0.71752   0.11969   0.69207   0.00000  Uiso   1.00
H1218  H     0.76291   0.07886   0.69708   0.00000  Uiso   1.00
C1219  C     0.17175   0.42041   0.83440   0.00000  Uiso   1.00
C1220  C     0.16159   0.57959   0.83227   0.00000  Uiso   1.00
C1221  C     0.06718   0.49969   0.82147   0.00000  Uiso   1.00
C1222  C     0.26615   0.50031   0.84519   0.00000  Uiso   1.00
C1223  C     0.01201   0.49905   0.81521   0.00000  Uiso   1.00
C1224  C     0.32132   0.50095   0.85146   0.00000  Uiso   1.00
C1225  C     0.18281   0.35538   0.79592   0.00000  Uiso   1.00
C1226  C     0.15052   0.64462   0.87074   0.00000  Uiso   1.00
C1227  C     0.16595   0.64692   0.79176   0.00000  Uiso   1.00
C1228  C     0.16738   0.35308   0.87490   0.00000  Uiso   1.00
C1229  C     0.15579   0.62406   0.83060   0.00000  Uiso   1.00
C1230  C     0.17755   0.37594   0.83607   0.00000  Uiso   1.00
C1231  C     0.20213   0.52582   0.69462   0.00000  Uiso   1.00
C1232  C     0.13121   0.47418   0.97205   0.00000  Uiso   1.00
C1233  C     0.20206   0.52586   0.98010   0.00000  Uiso   1.00
C1234  C     0.13127   0.47414   0.68657   0.00000  Uiso   1.00
H1235  H     0.32465   0.49671   0.78086   0.00000  Uiso   1.00
H1236  H     0.00869   0.50329   0.88581   0.00000  Uiso   1.00
N1237  N     0.16665   0.49999   0.95240   0.00000  Uiso   1.00
N1238  N     0.16668   0.50001   0.71427   0.00000  Uiso   1.00
O1239  O     0.16666   0.43892   0.87154   0.00000  Uiso   1.00
O1240  O     0.16667   0.56108   0.79513   0.00000  Uiso   1.00
O1241  O     0.16666   0.43893   0.79510   0.00000  Uiso   1.00
O1242  O     0.16667   0.56107   0.87157   0.00000  Uiso   1.00
O1243  O     0.09058   0.50000   0.86261   0.00000  Uiso   1.00
O1244  O     0.24275   0.50000   0.80405   0.00000  Uiso   1.00
O1245  O     0.09058   0.50000   0.78617   0.00000  Uiso   1.00
O1246  O     0.24275   0.50000   0.88050   0.00000  Uiso   1.00
Zn1247 Zn    0.16667   0.49999   0.88437   0.00000  Uiso   1.00
Zn1248 Zn    0.16667   0.50001   0.78229   0.00000  Uiso   1.00
C1249  C     0.20999   0.37637   0.75885   0.00000  Uiso   1.00
H1250  H     0.23768   0.40288   0.77209   0.00000  Uiso   1.00
H1251  H     0.23453   0.35432   0.74484   0.00000  Uiso   1.00
H1252  H     0.18041   0.38701   0.73107   0.00000  Uiso   1.00
C1253  C     0.12335   0.62363   0.90781   0.00000  Uiso   1.00
H1254  H     0.09565   0.59712   0.89458   0.00000  Uiso   1.00
H1255  H     0.15292   0.61299   0.93560   0.00000  Uiso   1.00
H1256  H     0.09881   0.64568   0.92183   0.00000  Uiso   1.00
C1257  C     0.15453   0.62930   0.74671   0.00000  Uiso   1.00
N1258  N     0.14482   0.61566   0.71067   0.00000  Uiso   1.00
C1259  C     0.17881   0.37070   0.91995   0.00000  Uiso   1.00
N1260  N     0.18851   0.38434   0.95599   0.00000  Uiso   1.00
C1261  C     0.24280   0.55442   0.72305   0.00000  Uiso   1.00
H1262  H     0.24133   0.58694   0.71054   0.00000  Uiso   1.00
H1263  H     0.23726   0.55642   0.75817   0.00000  Uiso   1.00
H1264  H     0.28274   0.54400   0.72208   0.00000  Uiso   1.00
C1265  C     0.09053   0.44558   0.94361   0.00000  Uiso   1.00
H1266  H     0.09201   0.41306   0.95612   0.00000  Uiso   1.00
H1267  H     0.05060   0.45600   0.94458   0.00000  Uiso   1.00
H1268  H     0.09608   0.44358   0.90850   0.00000  Uiso   1.00
C1269  C     0.24203   0.55514   0.96094   0.00000  Uiso   1.00
H1270  H     0.23892   0.55516   0.92444   0.00000  Uiso   1.00
H1271  H     0.23709   0.58781   0.96958   0.00000  Uiso   1.00
H1272  H     0.28248   0.54697   0.97460   0.00000  Uiso   1.00
C1273  C     0.09131   0.44486   0.70572   0.00000  Uiso   1.00
H1274  H     0.09441   0.44484   0.74222   0.00000  Uiso   1.00
H1275  H     0.05085   0.45303   0.69207   0.00000  Uiso   1.00
H1276  H     0.09625   0.41219   0.69708   0.00000  Uiso   1.00
C1277  C     0.50508   0.42041   0.83440   0.00000  Uiso   1.00
C1278  C     0.49492   0.57959   0.83227   0.00000  Uiso   1.00
C1279  C     0.40052   0.49969   0.82147   0.00000  Uiso   1.00
C1280  C     0.59949   0.50031   0.84519   0.00000  Uiso   1.00
C1281  C     0.34535   0.49905   0.81521   0.00000  Uiso   1.00
C1282  C     0.65465   0.50095   0.85146   0.00000  Uiso   1.00
C1283  C     0.51614   0.35538   0.79592   0.00000  Uiso   1.00
C1284  C     0.48386   0.64462   0.87074   0.00000  Uiso   1.00
C1285  C     0.49928   0.64692   0.79176   0.00000  Uiso   1.00
C1286  C     0.50072   0.35308   0.87490   0.00000  Uiso   1.00
C1287  C     0.48912   0.62406   0.83060   0.00000  Uiso   1.00
C1288  C     0.51088   0.37594   0.83607   0.00000  Uiso   1.00
C1289  C     0.53546   0.52582   0.69462   0.00000  Uiso   1.00
C1290  C     0.46454   0.47418   0.97205   0.00000  Uiso   1.00
C1291  C     0.53540   0.52586   0.98010   0.00000  Uiso   1.00
C1292  C     0.46460   0.47414   0.68657   0.00000  Uiso   1.00
H1293  H     0.65798   0.49671   0.78086   0.00000  Uiso   1.00
H1294  H     0.34202   0.50329   0.88581   0.00000  Uiso   1.00
N1295  N     0.49999   0.49999   0.95240   0.00000  Uiso   1.00
N1296  N     0.50001   0.50001   0.71427   0.00000  Uiso   1.00
O1297  O     0.50000   0.43892   0.87154   0.00000  Uiso   1.00
O1298  O     0.50000   0.56108   0.79513   0.00000  Uiso   1.00
O1299  O     0.50000   0.43893   0.79510   0.00000  Uiso   1.00
O1300  O     0.50000   0.56107   0.87157   0.00000  Uiso   1.00
O1301  O     0.42392   0.50000   0.86261   0.00000  Uiso   1.00
O1302  O     0.57608   0.50000   0.80405   0.00000  Uiso   1.00
O1303  O     0.42392   0.50000   0.78617   0.00000  Uiso   1.00
O1304  O     0.57608   0.50000   0.88050   0.00000  Uiso   1.00
Zn1305 Zn    0.50000   0.49999   0.88437   0.00000  Uiso   1.00
Zn1306 Zn    0.50000   0.50001   0.78229   0.00000  Uiso   1.00
C1307  C     0.54332   0.37637   0.75885   0.00000  Uiso   1.00
H1308  H     0.57102   0.40288   0.77209   0.00000  Uiso   1.00
H1309  H     0.56786   0.35432   0.74484   0.00000  Uiso   1.00
H1310  H     0.51375   0.38701   0.73107   0.00000  Uiso   1.00
C1311  C     0.45668   0.62363   0.90781   0.00000  Uiso   1.00
H1312  H     0.42899   0.59712   0.89458   0.00000  Uiso   1.00
H1313  H     0.48625   0.61299   0.93560   0.00000  Uiso   1.00
H1314  H     0.43214   0.64568   0.92183   0.00000  Uiso   1.00
C1315  C     0.48786   0.62930   0.74671   0.00000  Uiso   1.00
N1316  N     0.47816   0.61566   0.71067   0.00000  Uiso   1.00
C1317  C     0.51214   0.37070   0.91995   0.00000  Uiso   1.00
N1318  N     0.52185   0.38434   0.95599   0.00000  Uiso   1.00
C1319  C     0.57614   0.55442   0.72305   0.00000  Uiso   1.00
H1320  H     0.57466   0.58694   0.71054   0.00000  Uiso   1.00
H1321  H     0.57059   0.55642   0.75817   0.00000  Uiso   1.00
H1322  H     0.61607   0.54400   0.72208   0.00000  Uiso   1.00
C1323  C     0.42386   0.44558   0.94361   0.00000  Uiso   1.00
H1324  H     0.42534   0.41306   0.95612   0.00000  Uiso   1.00
H1325  H     0.38393   0.45600   0.94458   0.00000  Uiso   1.00
H1326  H     0.42941   0.44358   0.90850   0.00000  Uiso   1.00
C1327  C     0.57536   0.55514   0.96094   0.00000  Uiso   1.00
H1328  H     0.57226   0.55516   0.92444   0.00000  Uiso   1.00
H1329  H     0.57042   0.58781   0.96958   0.00000  Uiso   1.00
H1330  H     0.61581   0.54697   0.97460   0.00000  Uiso   1.00
C1331  C     0.42464   0.44486   0.70572   0.00000  Uiso   1.00
H1332  H     0.42774   0.44484   0.74222   0.00000  Uiso   1.00
H1333  H     0.38419   0.45303   0.69207   0.00000  Uiso   1.00
H1334  H     0.42958   0.41219   0.69708   0.00000  Uiso   1.00
C1335  C     0.83841   0.42041   0.83440   0.00000  Uiso   1.00
C1336  C     0.82825   0.57959   0.83227   0.00000  Uiso   1.00
C1337  C     0.73385   0.49969   0.82147   0.00000  Uiso   1.00
C1338  C     0.93282   0.50031   0.84519   0.00000  Uiso   1.00
C1339  C     0.67868   0.49905   0.81521   0.00000  Uiso   1.00
C1340  C     0.98799   0.50095   0.85146   0.00000  Uiso   1.00
C1341  C     0.84948   0.35538   0.79592   0.00000  Uiso   1.00
C1342  C     0.81719   0.64462   0.87074   0.00000  Uiso   1.00
C1343  C     0.83262   0.64692   0.79176   0.00000  Uiso   1.00
C1344  C     0.83405   0.35308   0.87490   0.00000  Uiso   1.00
C1345  C     0.82245   0.62406   0.83060   0.00000  Uiso   1.00
C1346  C     0.84421   0.37594   0.83607   0.00000  Uiso   1.00
C1347  C     0.86879   0.52582   0.69462   0.00000  Uiso   1.00
C1348  C     0.79787   0.47418   0.97205   0.00000  Uiso   1.00
C1349  C     0.86873   0.52586   0.98010   0.00000  Uiso   1.00
C1350  C     0.79794   0.47414   0.68657   0.00000  Uiso   1.00
H1351  H     0.99131   0.49671   0.78086   0.00000  Uiso   1.00
H1352  H     0.67535   0.50329   0.88581   0.00000  Uiso   1.00
N1353  N     0.83332   0.49999   0.95240   0.00000  Uiso   1.00
N1354  N     0.83335   0.50001   0.71427   0.00000  Uiso   1.00
O1355  O     0.83333   0.43892   0.87154   0.00000  Uiso   1.00
O1356  O     0.83334   0.56108   0.79513   0.00000  Uiso   1.00
O1357  O     0.83333   0.43893   0.79510   0.00000  Uiso   1.00
O1358  O     0.83334   0.56107   0.87157   0.00000  Uiso   1.00
O1359  O     0.75725   0.50000   0.86261   0.00000  Uiso   1.00
O1360  O     0.90942   0.50000   0.80405   0.00000  Uiso   1.00
O1361  O     0.75725   0.50000   0.78617   0.00000  Uiso   1.00
O1362  O     0.90942   0.50000   0.88050   0.00000  Uiso   1.00
Zn1363 Zn    0.83333   0.49999   0.88437   0.00000  Uiso   1.00
Zn1364 Zn    0.83333   0.50001   0.78229   0.00000  Uiso   1.00
C1365  C     0.87665   0.37637   0.75885   0.00000  Uiso   1.00
H1366  H     0.90435   0.40288   0.77209   0.00000  Uiso   1.00
H1367  H     0.90119   0.35432   0.74484   0.00000  Uiso   1.00
H1368  H     0.84708   0.38701   0.73107   0.00000  Uiso   1.00
C1369  C     0.79001   0.62363   0.90781   0.00000  Uiso   1.00
H1370  H     0.76232   0.59712   0.89458   0.00000  Uiso   1.00
H1371  H     0.81959   0.61299   0.93560   0.00000  Uiso   1.00
H1372  H     0.76547   0.64568   0.92183   0.00000  Uiso   1.00
C1373  C     0.82119   0.62930   0.74671   0.00000  Uiso   1.00
N1374  N     0.81149   0.61566   0.71067   0.00000  Uiso   1.00
C1375  C     0.84548   0.37070   0.91995   0.00000  Uiso   1.00
N1376  N     0.85518   0.38434   0.95599   0.00000  Uiso   1.00
C1377  C     0.90947   0.55442   0.72305   0.00000  Uiso   1.00
H1378  H     0.90799   0.58694   0.71054   0.00000  Uiso   1.00
H1379  H     0.90392   0.55642   0.75817   0.00000  Uiso   1.00
H1380  H     0.94940   0.54400   0.72208   0.00000  Uiso   1.00
C1381  C     0.75720   0.44558   0.94361   0.00000  Uiso   1.00
H1382  H     0.75867   0.41306   0.95612   0.00000  Uiso   1.00
H1383  H     0.71727   0.45600   0.94458   0.00000  Uiso   1.00
H1384  H     0.76274   0.44358   0.90850   0.00000  Uiso   1.00
C1385  C     0.90869   0.55514   0.96094   0.00000  Uiso   1.00
H1386  H     0.90559   0.55516   0.92444   0.00000  Uiso   1.00
H1387  H     0.90375   0.58781   0.96958   0.00000  Uiso   1.00
H1388  H     0.94915   0.54697   0.97460   0.00000  Uiso   1.00
C1389  C     0.75797   0.44486   0.70572   0.00000  Uiso   1.00
H1390  H     0.76108   0.44484   0.74222   0.00000  Uiso   1.00
H1391  H     0.71752   0.45303   0.69207   0.00000  Uiso   1.00
H1392  H     0.76291   0.41219   0.69708   0.00000  Uiso   1.00
C1393  C     0.17175   0.75374   0.83440   0.00000  Uiso   1.00
C1394  C     0.16159   0.91292   0.83227   0.00000  Uiso   1.00
C1395  C     0.06718   0.83302   0.82147   0.00000  Uiso   1.00
C1396  C     0.26615   0.83365   0.84519   0.00000  Uiso   1.00
C1397  C     0.01201   0.83238   0.81521   0.00000  Uiso   1.00
C1398  C     0.32132   0.83429   0.85146   0.00000  Uiso   1.00
C1399  C     0.18281   0.68871   0.79592   0.00000  Uiso   1.00
C1400  C     0.15052   0.97796   0.87074   0.00000  Uiso   1.00
C1401  C     0.16595   0.98025   0.79176   0.00000  Uiso   1.00
C1402  C     0.16738   0.68642   0.87490   0.00000  Uiso   1.00
C1403  C     0.15579   0.95740   0.83060   0.00000  Uiso   1.00
C1404  C     0.17755   0.70927   0.83607   0.00000  Uiso   1.00
C1405  C     0.20213   0.85915   0.69462   0.00000  Uiso   1.00
C1406  C     0.13121   0.80752   0.97205   0.00000  Uiso   1.00
C1407  C     0.20206   0.85919   0.98010   0.00000  Uiso   1.00
C1408  C     0.13127   0.80748   0.68657   0.00000  Uiso   1.00
H1409  H     0.32465   0.83004   0.78086   0.00000  Uiso   1.00
H1410  H     0.00869   0.83663   0.88581   0.00000  Uiso   1.00
N1411  N     0.16665   0.83332   0.95240   0.00000  Uiso   1.00
N1412  N     0.16668   0.83334   0.71427   0.00000  Uiso   1.00
O1413  O     0.16666   0.77225   0.87154   0.00000  Uiso   1.00
O1414  O     0.16667   0.89442   0.79513   0.00000  Uiso   1.00
O1415  O     0.16666   0.77226   0.79510   0.00000  Uiso   1.00
O1416  O     0.16667   0.89441   0.87157   0.00000  Uiso   1.00
O1417  O     0.09058   0.83333   0.86261   0.00000  Uiso   1.00
O1418  O     0.24275   0.83334   0.80405   0.00000  Uiso   1.00
O1419  O     0.09058   0.83334   0.78617   0.00000  Uiso   1.00
O1420  O     0.24275   0.83333   0.88050   0.00000  Uiso   1.00
Zn1421 Zn    0.16667   0.83333   0.88437   0.00000  Uiso   1.00
Zn1422 Zn    0.16667   0.83334   0.78229   0.00000  Uiso   1.00
C1423  C     0.20999   0.70970   0.75885   0.00000  Uiso   1.00
H1424  H     0.23768   0.73621   0.77209   0.00000  Uiso   1.00
H1425  H     0.23453   0.68765   0.74484   0.00000  Uiso   1.00
H1426  H     0.18041   0.72035   0.73107   0.00000  Uiso   1.00
C1427  C     0.12335   0.95696   0.90781   0.00000  Uiso   1.00
H1428  H     0.09565   0.93045   0.89458   0.00000  Uiso   1.00
H1429  H     0.15292   0.94632   0.93560   0.00000  Uiso   1.00
H1430  H     0.09881   0.97901   0.92183   0.00000  Uiso   1.00
C1431  C     0.15453   0.96263   0.74671   0.00000  Uiso   1.00
N1432  N     0.14482   0.94900   0.71067   0.00000  Uiso   1.00
C1433  C     0.17881   0.70403   0.91995   0.00000  Uiso   1.00
N1434  N     0.18851   0.71767   0.95599   0.00000  Uiso   1.00
C1435  C     0.24280   0.88775   0.72305   0.00000  Uiso   1.00
H1436  H     0.24133   0.92027   0.71054   0.00000  Uiso   1.00
H1437  H     0.23726   0.88975   0.75817   0.00000  Uiso   1.00
H1438  H     0.28274   0.87733   0.72208   0.00000  Uiso   1.00
C1439  C     0.09053   0.77892   0.94361   0.00000  Uiso   1.00
H1440  H     0.09201   0.74639   0.95612   0.00000  Uiso   1.00
H1441  H     0.05060   0.78933   0.94458   0.00000  Uiso   1.00
H1442  H     0.09608   0.77692   0.90850   0.00000  Uiso   1.00
C1443  C     0.24203   0.88848   0.96094   0.00000  Uiso   1.00
H1444  H     0.23892   0.88850   0.92444   0.00000  Uiso   1.00
H1445  H     0.23709   0.92114   0.96958   0.00000  Uiso   1.00
H1446  H     0.28248   0.88031   0.97460   0.00000  Uiso   1.00
C1447  C     0.09131   0.77819   0.70572   0.00000  Uiso   1.00
H1448  H     0.09441   0.77817   0.74222   0.00000  Uiso   1.00
H1449  H     0.05085   0.78636   0.69207   0.00000  Uiso   1.00
H1450  H     0.09625   0.74552   0.69708   0.00000  Uiso   1.00
C1451  C     0.50508   0.75374   0.83440   0.00000  Uiso   1.00
C1452  C     0.49492   0.91292   0.83227   0.00000  Uiso   1.00
C1453  C     0.40052   0.83302   0.82147   0.00000  Uiso   1.00
C1454  C     0.59949   0.83365   0.84519   0.00000  Uiso   1.00
C1455  C     0.34535   0.83238   0.81521   0.00000  Uiso   1.00
C1456  C     0.65465   0.83429   0.85146   0.00000  Uiso   1.00
C1457  C     0.51614   0.68871   0.79592   0.00000  Uiso   1.00
C1458  C     0.48386   0.97796   0.87074   0.00000  Uiso   1.00
C1459  C     0.49928   0.98025   0.79176   0.00000  Uiso   1.00
C1460  C     0.50072   0.68642   0.87490   0.00000  Uiso   1.00
C1461  C     0.48912   0.95740   0.83060   0.00000  Uiso   1.00
C1462  C     0.51088   0.70927   0.83607   0.00000  Uiso   1.00
C1463  C     0.53546   0.85915   0.69462   0.00000  Uiso   1.00
C1464  C     0.46454   0.80752   0.97205   0.00000  Uiso   1.00
C1465  C     0.53540   0.85919   0.98010   0.00000  Uiso   1.00
C1466  C     0.46460   0.80748   0.68657   0.00000  Uiso   1.00
H1467  H     0.65798   0.83004   0.78086   0.00000  Uiso   1.00
H1468  H     0.34202   0.83663   0.88581   0.00000  Uiso   1.00
N1469  N     0.49999   0.83332   0.95240   0.00000  Uiso   1.00
N1470  N     0.50001   0.83334   0.71427   0.00000  Uiso   1.00
O1471  O     0.50000   0.77225   0.87154   0.00000  Uiso   1.00
O1472  O     0.50000   0.89442   0.79513   0.00000  Uiso   1.00
O1473  O     0.50000   0.77226   0.79510   0.00000  Uiso   1.00
O1474  O     0.50000   0.89441   0.87157   0.00000  Uiso   1.00
O1475  O     0.42392   0.83333   0.86261   0.00000  Uiso   1.00
O1476  O     0.57608   0.83334   0.80405   0.00000  Uiso   1.00
O1477  O     0.42392   0.83334   0.78617   0.00000  Uiso   1.00
O1478  O     0.57608   0.83333   0.88050   0.00000  Uiso   1.00
Zn1479 Zn    0.50000   0.83333   0.88437   0.00000  Uiso   1.00
Zn1480 Zn    0.50000   0.83334   0.78229   0.00000  Uiso   1.00
C1481  C     0.54332   0.70970   0.75885   0.00000  Uiso   1.00
H1482  H     0.57102   0.73621   0.77209   0.00000  Uiso   1.00
H1483  H     0.56786   0.68765   0.74484   0.00000  Uiso   1.00
H1484  H     0.51375   0.72035   0.73107   0.00000  Uiso   1.00
C1485  C     0.45668   0.95696   0.90781   0.00000  Uiso   1.00
H1486  H     0.42899   0.93045   0.89458   0.00000  Uiso   1.00
H1487  H     0.48625   0.94632   0.93560   0.00000  Uiso   1.00
H1488  H     0.43214   0.97901   0.92183   0.00000  Uiso   1.00
C1489  C     0.48786   0.96263   0.74671   0.00000  Uiso   1.00
N1490  N     0.47816   0.94900   0.71067   0.00000  Uiso   1.00
C1491  C     0.51214   0.70403   0.91995   0.00000  Uiso   1.00
N1492  N     0.52185   0.71767   0.95599   0.00000  Uiso   1.00
C1493  C     0.57614   0.88775   0.72305   0.00000  Uiso   1.00
H1494  H     0.57466   0.92027   0.71054   0.00000  Uiso   1.00
H1495  H     0.57059   0.88975   0.75817   0.00000  Uiso   1.00
H1496  H     0.61607   0.87733   0.72208   0.00000  Uiso   1.00
C1497  C     0.42386   0.77892   0.94361   0.00000  Uiso   1.00
H1498  H     0.42534   0.74639   0.95612   0.00000  Uiso   1.00
H1499  H     0.38393   0.78933   0.94458   0.00000  Uiso   1.00
H1500  H     0.42941   0.77692   0.90850   0.00000  Uiso   1.00
C1501  C     0.57536   0.88848   0.96094   0.00000  Uiso   1.00
H1502  H     0.57226   0.88850   0.92444   0.00000  Uiso   1.00
H1503  H     0.57042   0.92114   0.96958   0.00000  Uiso   1.00
H1504  H     0.61581   0.88031   0.97460   0.00000  Uiso   1.00
C1505  C     0.42464   0.77819   0.70572   0.00000  Uiso   1.00
H1506  H     0.42774   0.77817   0.74222   0.00000  Uiso   1.00
H1507  H     0.38419   0.78636   0.69207   0.00000  Uiso   1.00
H1508  H     0.42958   0.74552   0.69708   0.00000  Uiso   1.00
C1509  C     0.83841   0.75374   0.83440   0.00000  Uiso   1.00
C1510  C     0.82825   0.91292   0.83227   0.00000  Uiso   1.00
C1511  C     0.73385   0.83302   0.82147   0.00000  Uiso   1.00
C1512  C     0.93282   0.83365   0.84519   0.00000  Uiso   1.00
C1513  C     0.67868   0.83238   0.81521   0.00000  Uiso   1.00
C1514  C     0.98799   0.83429   0.85146   0.00000  Uiso   1.00
C1515  C     0.84948   0.68871   0.79592   0.00000  Uiso   1.00
C1516  C     0.81719   0.97796   0.87074   0.00000  Uiso   1.00
C1517  C     0.83262   0.98025   0.79176   0.00000  Uiso   1.00
C1518  C     0.83405   0.68642   0.87490   0.00000  Uiso   1.00
C1519  C     0.82245   0.95740   0.83060   0.00000  Uiso   1.00
C1520  C     0.84421   0.70927   0.83607   0.00000  Uiso   1.00
C1521  C     0.86879   0.85915   0.69462   0.00000  Uiso   1.00
C1522  C     0.79787   0.80752   0.97205   0.00000  Uiso   1.00
C1523  C     0.86873   0.85919   0.98010   0.00000  Uiso   1.00
C1524  C     0.79794   0.80748   0.68657   0.00000  Uiso   1.00
H1525  H     0.99131   0.83004   0.78086   0.00000  Uiso   1.00
H1526  H     0.67535   0.83663   0.88581   0.00000  Uiso   1.00
N1527  N     0.83332   0.83332   0.95240   0.00000  Uiso   1.00
N1528  N     0.83335   0.83334   0.71427   0.00000  Uiso   1.00
O1529  O     0.83333   0.77225   0.87154   0.00000  Uiso   1.00
O1530  O     0.83334   0.89442   0.79513   0.00000  Uiso   1.00
O1531  O     0.83333   0.77226   0.79510   0.00000  Uiso   1.00
O1532  O     0.83334   0.89441   0.87157   0.00000  Uiso   1.00
O1533  O     0.75725   0.83333   0.86261   0.00000  Uiso   1.00
O1534  O     0.90942   0.83334   0.80405   0.00000  Uiso   1.00
O1535  O     0.75725   0.83334   0.78617   0.00000  Uiso   1.00
O1536  O     0.90942   0.83333   0.88050   0.00000  Uiso   1.00
Zn1537 Zn    0.83333   0.83333   0.88437   0.00000  Uiso   1.00
Zn1538 Zn    0.83333   0.83334   0.78229   0.00000  Uiso   1.00
C1539  C     0.87665   0.70970   0.75885   0.00000  Uiso   1.00
H1540  H     0.90435   0.73621   0.77209   0.00000  Uiso   1.00
H1541  H     0.90119   0.68765   0.74484   0.00000  Uiso   1.00
H1542  H     0.84708   0.72035   0.73107   0.00000  Uiso   1.00
C1543  C     0.79001   0.95696   0.90781   0.00000  Uiso   1.00
H1544  H     0.76232   0.93045   0.89458   0.00000  Uiso   1.00
H1545  H     0.81959   0.94632   0.93560   0.00000  Uiso   1.00
H1546  H     0.76547   0.97901   0.92183   0.00000  Uiso   1.00
C1547  C     0.82119   0.96263   0.74671   0.00000  Uiso   1.00
N1548  N     0.81149   0.94900   0.71067   0.00000  Uiso   1.00
C1549  C     0.84548   0.70403   0.91995   0.00000  Uiso   1.00
N1550  N     0.85518   0.71767   0.95599   0.00000  Uiso   1.00
C1551  C     0.90947   0.88775   0.72305   0.00000  Uiso   1.00
H1552  H     0.90799   0.92027   0.71054   0.00000  Uiso   1.00
H1553  H     0.90392   0.88975   0.75817   0.00000  Uiso   1.00
H1554  H     0.94940   0.87733   0.72208   0.00000  Uiso   1.00
C1555  C     0.75720   0.77892   0.94361   0.00000  Uiso   1.00
H1556  H     0.75867   0.74639   0.95612   0.00000  Uiso   1.00
H1557  H     0.71727   0.78933   0.94458   0.00000  Uiso   1.00
H1558  H     0.76274   0.77692   0.90850   0.00000  Uiso   1.00
C1559  C     0.90869   0.88848   0.96094   0.00000  Uiso   1.00
H1560  H     0.90559   0.88850   0.92444   0.00000  Uiso   1.00
H1561  H     0.90375   0.92114   0.96958   0.00000  Uiso   1.00
H1562  H     0.94915   0.88031   0.97460   0.00000  Uiso   1.00
C1563  C     0.75797   0.77819   0.70572   0.00000  Uiso   1.00
H1564  H     0.76108   0.77817   0.74222   0.00000  Uiso   1.00
H1565  H     0.71752   0.78636   0.69207   0.00000  Uiso   1.00
H1566  H     0.76291   0.74552   0.69708   0.00000  Uiso   1.00
loop_
_geom_bond_atom_site_label_1
_geom_bond_atom_site_label_2
_geom_bond_distance
_geom_bond_site_symmetry_2
_ccdc_geom_bond_type
C1     O21     1.299   .     A
C1     C12     1.450   .     S
C1     O23     1.303   .     A
C2     O22     1.299   .     A
C2     C11     1.450   .     S
C2     O24     1.303   .     A
C3     O27     1.291   .     A
C3     C5      1.404   .     S
C3     O25     1.288   .     A
C4     O26     1.288   .     A
C4     O28     1.291   .     A
C4     C6      1.404   .     S
C5     C122    1.331   1_455 S
C5     H133    1.087   1_455 S
C6     C63     1.331   .     S
C6     H76     1.087   .     S
C7     C12     1.411   .     A
C7     C31     1.521   .     S
C7     C357    1.385   1_545 S
C8     C11     1.411   .     A
C8     C35     1.521   .     S
C8     C184    1.385   .     S
C9     C11     1.412   .     A
C9     C39     1.453   .     S
C9     C181    1.385   .     S
C10    C12     1.412   .     A
C10    C41     1.453   .     S
C10    C356    1.385   1_545 S
C13    C43     1.514   .     S
C13    N20     1.379   .     A
C13    C1059   1.432   1_554 S
C14    C47     1.514   .     S
C14    N19     1.379   .     A
C14    C538    1.432   .     S
C15    C51     1.514   .     S
C15    N19     1.379   .     A
C15    C535    1.432   .     S
C16    N20     1.379   .     A
C16    C55     1.514   .     S
C16    C1058   1.432   1_554 S
H17    C63     1.087   .     S
H18    C122    1.087   1_455 S
N19    Zn29    2.036   .     S
N20    Zn30    2.036   .     S
O21    Zn29    2.010   .     S
O22    Zn30    2.010   .     S
O23    Zn30    1.997   .     S
O24    Zn29    1.997   .     S
O25    Zn29    1.971   .     S
O26    Zn30    1.971   .     S
O27    Zn30    1.980   .     S
O28    Zn29    1.980   .     S
C31    H33     1.111   .     S
C31    H32     1.111   .     S
C31    H34     1.109   .     S
C35    H38     1.111   .     S
C35    H37     1.109   .     S
C35    H36     1.111   .     S
C39    N40     1.158   .     T
C41    N42     1.158   .     T
C43    H44     1.107   .     S
C43    H45     1.085   .     S
C43    H46     1.110   .     S
C47    H48     1.107   .     S
C47    H49     1.110   .     S
C47    H50     1.085   .     S
C51    H54     1.110   .     S
C51    H53     1.108   .     S
C51    H52     1.084   .     S
C55    H56     1.084   .     S
C55    H57     1.110   .     S
C55    H58     1.108   .     S
C59    O79     1.299   .     A
C59    C70     1.450   .     S
C59    O81     1.303   .     A
C60    O80     1.299   .     A
C60    C69     1.450   .     S
C60    O82     1.303   .     A
C61    O85     1.291   .     A
C61    C63     1.404   .     S
C61    O83     1.288   .     A
C62    O84     1.288   .     A
C62    O86     1.291   .     A
C62    C64     1.404   .     S
C64    C121    1.331   .     S
C64    H134    1.087   .     S
C65    C70     1.411   .     A
C65    C89     1.521   .     S
C65    C415    1.385   1_545 S
C66    C69     1.411   .     A
C66    C93     1.521   .     S
C66    C242    1.385   .     S
C67    C69     1.412   .     A
C67    C97     1.453   .     S
C67    C239    1.385   .     S
C68    C70     1.412   .     A
C68    C99     1.453   .     S
C68    C414    1.385   1_545 S
C71    C101    1.514   .     S
C71    N78     1.379   .     A
C71    C1117   1.432   1_554 S
C72    C105    1.514   .     S
C72    N77     1.379   .     A
C72    C596    1.432   .     S
C73    C109    1.514   .     S
C73    N77     1.379   .     A
C73    C593    1.432   .     S
C74    N78     1.379   .     A
C74    C113    1.514   .     S
C74    C1116   1.432   1_554 S
H75    C121    1.087   .     S
N77    Zn87    2.036   .     S
N78    Zn88    2.036   .     S
O79    Zn87    2.010   .     S
O80    Zn88    2.010   .     S
O81    Zn88    1.997   .     S
O82    Zn87    1.997   .     S
O83    Zn87    1.971   .     S
O84    Zn88    1.971   .     S
O85    Zn88    1.980   .     S
O86    Zn87    1.980   .     S
C89    H91     1.111   .     S
C89    H90     1.111   .     S
C89    H92     1.109   .     S
C93    H96     1.111   .     S
C93    H95     1.109   .     S
C93    H94     1.111   .     S
C97    N98     1.158   .     T
C99    N100    1.158   .     T
C101   H102    1.107   .     S
C101   H103    1.085   .     S
C101   H104    1.110   .     S
C105   H106    1.107   .     S
C105   H107    1.110   .     S
C105   H108    1.085   .     S
C109   H112    1.110   .     S
C109   H111    1.108   .     S
C109   H110    1.084   .     S
C113   H114    1.084   .     S
C113   H115    1.110   .     S
C113   H116    1.108   .     S
C117   O137    1.299   .     A
C117   C128    1.450   .     S
C117   O139    1.303   .     A
C118   O138    1.299   .     A
C118   C127    1.450   .     S
C118   O140    1.303   .     A
C119   O143    1.291   .     A
C119   C121    1.404   .     S
C119   O141    1.288   .     A
C120   O142    1.288   .     A
C120   O144    1.291   .     A
C120   C122    1.404   .     S
C122   C5      1.331   1_655 S
C122   H18     1.087   1_655 S
C123   C128    1.411   .     A
C123   C147    1.521   .     S
C123   C473    1.385   1_545 S
C124   C127    1.411   .     A
C124   C151    1.521   .     S
C124   C300    1.385   .     S
C125   C127    1.412   .     A
C125   C155    1.453   .     S
C125   C297    1.385   .     S
C126   C128    1.412   .     A
C126   C157    1.453   .     S
C126   C472    1.385   1_545 S
C129   C159    1.514   .     S
C129   N136    1.379   .     A
C129   C1175   1.432   1_554 S
C130   C163    1.514   .     S
C130   N135    1.379   .     A
C130   C654    1.432   .     S
C131   C167    1.514   .     S
C131   N135    1.379   .     A
C131   C651    1.432   .     S
C132   N136    1.379   .     A
C132   C171    1.514   .     S
C132   C1174   1.432   1_554 S
H133   C5      1.087   1_655 S
N135   Zn145   2.036   .     S
N136   Zn146   2.036   .     S
O137   Zn145   2.010   .     S
O138   Zn146   2.010   .     S
O139   Zn146   1.997   .     S
O140   Zn145   1.997   .     S
O141   Zn145   1.971   .     S
O142   Zn146   1.971   .     S
O143   Zn146   1.980   .     S
O144   Zn145   1.980   .     S
C147   H149    1.111   .     S
C147   H148    1.111   .     S
C147   H150    1.109   .     S
C151   H154    1.111   .     S
C151   H153    1.109   .     S
C151   H152    1.111   .     S
C155   N156    1.158   .     T
C157   N158    1.158   .     T
C159   H160    1.107   .     S
C159   H161    1.085   .     S
C159   H162    1.110   .     S
C163   H164    1.107   .     S
C163   H165    1.110   .     S
C163   H166    1.085   .     S
C167   H170    1.110   .     S
C167   H169    1.108   .     S
C167   H168    1.084   .     S
C171   H172    1.084   .     S
C171   H173    1.110   .     S
C171   H174    1.108   .     S
C175   O195    1.299   .     A
C175   C186    1.450   .     S
C175   O197    1.303   .     A
C176   O196    1.299   .     A
C176   C185    1.450   .     S
C176   O198    1.303   .     A
C177   O201    1.291   .     A
C177   C179    1.404   .     S
C177   O199    1.288   .     A
C178   O200    1.288   .     A
C178   O202    1.291   .     A
C178   C180    1.404   .     S
C179   C296    1.331   1_455 S
C179   H307    1.087   1_455 S
C180   C237    1.331   .     S
C180   H250    1.087   .     S
C181   C186    1.411   .     A
C181   C205    1.521   .     S
C182   C185    1.411   .     A
C182   C209    1.521   .     S
C182   C358    1.385   .     S
C183   C185    1.412   .     A
C183   C213    1.453   .     S
C183   C355    1.385   .     S
C184   C186    1.412   .     A
C184   C215    1.453   .     S
C187   C217    1.514   .     S
C187   N194    1.379   .     A
C187   C1233   1.432   1_554 S
C188   C221    1.514   .     S
C188   N193    1.379   .     A
C188   C712    1.432   .     S
C189   C225    1.514   .     S
C189   N193    1.379   .     A
C189   C709    1.432   .     S
C190   N194    1.379   .     A
C190   C229    1.514   .     S
C190   C1232   1.432   1_554 S
H191   C237    1.087   .     S
H192   C296    1.087   1_455 S
N193   Zn203   2.036   .     S
N194   Zn204   2.036   .     S
O195   Zn203   2.010   .     S
O196   Zn204   2.010   .     S
O197   Zn204   1.997   .     S
O198   Zn203   1.997   .     S
O199   Zn203   1.971   .     S
O200   Zn204   1.971   .     S
O201   Zn204   1.980   .     S
O202   Zn203   1.980   .     S
C205   H207    1.111   .     S
C205   H206    1.111   .     S
C205   H208    1.109   .     S
C209   H212    1.111   .     S
C209   H211    1.109   .     S
C209   H210    1.111   .     S
C213   N214    1.158   .     T
C215   N216    1.158   .     T
C217   H218    1.107   .     S
C217   H219    1.085   .     S
C217   H220    1.110   .     S
C221   H222    1.107   .     S
C221   H223    1.110   .     S
C221   H224    1.085   .     S
C225   H228    1.110   .     S
C225   H227    1.108   .     S
C225   H226    1.084   .     S
C229   H230    1.084   .     S
C229   H231    1.110   .     S
C229   H232    1.108   .     S
C233   O253    1.299   .     A
C233   C244    1.450   .     S
C233   O255    1.303   .     A
C234   O254    1.299   .     A
C234   C243    1.450   .     S
C234   O256    1.303   .     A
C235   O259    1.291   .     A
C235   C237    1.404   .     S
C235   O257    1.288   .     A
C236   O258    1.288   .     A
C236   O260    1.291   .     A
C236   C238    1.404   .     S
C238   C295    1.331   .     S
C238   H308    1.087   .     S
C239   C244    1.411   .     A
C239   C263    1.521   .     S
C240   C243    1.411   .     A
C240   C267    1.521   .     S
C240   C416    1.385   .     S
C241   C243    1.412   .     A
C241   C271    1.453   .     S
C241   C413    1.385   .     S
C242   C244    1.412   .     A
C242   C273    1.453   .     S
C245   C275    1.514   .     S
C245   N252    1.379   .     A
C245   C1291   1.432   1_554 S
C246   C279    1.514   .     S
C246   N251    1.379   .     A
C246   C770    1.432   .     S
C247   C283    1.514   .     S
C247   N251    1.379   .     A
C247   C767    1.432   .     S
C248   N252    1.379   .     A
C248   C287    1.514   .     S
C248   C1290   1.432   1_554 S
H249   C295    1.087   .     S
N251   Zn261   2.036   .     S
N252   Zn262   2.036   .     S
O253   Zn261   2.010   .     S
O254   Zn262   2.010   .     S
O255   Zn262   1.997   .     S
O256   Zn261   1.997   .     S
O257   Zn261   1.971   .     S
O258   Zn262   1.971   .     S
O259   Zn262   1.980   .     S
O260   Zn261   1.980   .     S
C263   H265    1.111   .     S
C263   H264    1.111   .     S
C263   H266    1.109   .     S
C267   H270    1.111   .     S
C267   H269    1.109   .     S
C267   H268    1.111   .     S
C271   N272    1.158   .     T
C273   N274    1.158   .     T
C275   H276    1.107   .     S
C275   H277    1.085   .     S
C275   H278    1.110   .     S
C279   H280    1.107   .     S
C279   H281    1.110   .     S
C279   H282    1.085   .     S
C283   H286    1.110   .     S
C283   H285    1.108   .     S
C283   H284    1.084   .     S
C287   H288    1.084   .     S
C287   H289    1.110   .     S
C287   H290    1.108   .     S
C291   O311    1.299   .     A
C291   C302    1.450   .     S
C291   O313    1.303   .     A
C292   O312    1.299   .     A
C292   C301    1.450   .     S
C292   O314    1.303   .     A
C293   O317    1.291   .     A
C293   C295    1.404   .     S
C293   O315    1.288   .     A
C294   O316    1.288   .     A
C294   O318    1.291   .     A
C294   C296    1.404   .     S
C296   C179    1.331   1_655 S
C296   H192    1.087   1_655 S
C297   C302    1.411   .     A
C297   C321    1.521   .     S
C298   C301    1.411   .     A
C298   C325    1.521   .     S
C298   C474    1.385   .     S
C299   C301    1.412   .     A
C299   C329    1.453   .     S
C299   C471    1.385   .     S
C300   C302    1.412   .     A
C300   C331    1.453   .     S
C303   C333    1.514   .     S
C303   N310    1.379   .     A
C303   C1349   1.432   1_554 S
C304   C337    1.514   .     S
C304   N309    1.379   .     A
C304   C828    1.432   .     S
C305   C341    1.514   .     S
C305   N309    1.379   .     A
C305   C825    1.432   .     S
C306   N310    1.379   .     A
C306   C345    1.514   .     S
C306   C1348   1.432   1_554 S
H307   C179    1.087   1_655 S
N309   Zn319   2.036   .     S
N310   Zn320   2.036   .     S
O311   Zn319   2.010   .     S
O312   Zn320   2.010   .     S
O313   Zn320   1.997   .     S
O314   Zn319   1.997   .     S
O315   Zn319   1.971   .     S
O316   Zn320   1.971   .     S
O317   Zn320   1.980   .     S
O318   Zn319   1.980   .     S
C321   H323    1.111   .     S
C321   H322    1.111   .     S
C321   H324    1.109   .     S
C325   H328    1.111   .     S
C325   H327    1.109   .     S
C325   H326    1.111   .     S
C329   N330    1.158   .     T
C331   N332    1.158   .     T
C333   H334    1.107   .     S
C333   H335    1.085   .     S
C333   H336    1.110   .     S
C337   H338    1.107   .     S
C337   H339    1.110   .     S
C337   H340    1.085   .     S
C341   H344    1.110   .     S
C341   H343    1.108   .     S
C341   H342    1.084   .     S
C345   H346    1.084   .     S
C345   H347    1.110   .     S
C345   H348    1.108   .     S
C349   O369    1.299   .     A
C349   C360    1.450   .     S
C349   O371    1.303   .     A
C350   O370    1.299   .     A
C350   C359    1.450   .     S
C350   O372    1.303   .     A
C351   O375    1.291   .     A
C351   C353    1.404   .     S
C351   O373    1.288   .     A
C352   O374    1.288   .     A
C352   O376    1.291   .     A
C352   C354    1.404   .     S
C353   C470    1.331   1_455 S
C353   H481    1.087   1_455 S
C354   C411    1.331   .     S
C354   H424    1.087   .     S
C355   C360    1.411   .     A
C355   C379    1.521   .     S
C356   C359    1.411   .     A
C356   C383    1.521   .     S
C356   C10     1.385   1_565 S
C357   C359    1.412   .     A
C357   C387    1.453   .     S
C357   C7      1.385   1_565 S
C358   C360    1.412   .     A
C358   C389    1.453   .     S
C361   C391    1.514   .     S
C361   N368    1.379   .     A
C361   C1407   1.432   1_554 S
C362   C395    1.514   .     S
C362   N367    1.379   .     A
C362   C886    1.432   .     S
C363   C399    1.514   .     S
C363   N367    1.379   .     A
C363   C883    1.432   .     S
C364   N368    1.379   .     A
C364   C403    1.514   .     S
C364   C1406   1.432   1_554 S
H365   C411    1.087   .     S
H366   C470    1.087   1_455 S
N367   Zn377   2.036   .     S
N368   Zn378   2.036   .     S
O369   Zn377   2.010   .     S
O370   Zn378   2.010   .     S
O371   Zn378   1.997   .     S
O372   Zn377   1.997   .     S
O373   Zn377   1.971   .     S
O374   Zn378   1.971   .     S
O375   Zn378   1.980   .     S
O376   Zn377   1.980   .     S
C379   H381    1.111   .     S
C379   H380    1.111   .     S
C379   H382    1.109   .     S
C383   H386    1.111   .     S
C383   H385    1.109   .     S
C383   H384    1.111   .     S
C387   N388    1.158   .     T
C389   N390    1.158   .     T
C391   H392    1.107   .     S
C391   H393    1.085   .     S
C391   H394    1.110   .     S
C395   H396    1.107   .     S
C395   H397    1.110   .     S
C395   H398    1.085   .     S
C399   H402    1.110   .     S
C399   H401    1.108   .     S
C399   H400    1.084   .     S
C403   H404    1.084   .     S
C403   H405    1.110   .     S
C403   H406    1.108   .     S
C407   O427    1.299   .     A
C407   C418    1.450   .     S
C407   O429    1.303   .     A
C408   O428    1.299   .     A
C408   C417    1.450   .     S
C408   O430    1.303   .     A
C409   O433    1.291   .     A
C409   C411    1.404   .     S
C409   O431    1.288   .     A
C410   O432    1.288   .     A
C410   O434    1.291   .     A
C410   C412    1.404   .     S
C412   C469    1.331   .     S
C412   H482    1.087   .     S
C413   C418    1.411   .     A
C413   C437    1.521   .     S
C414   C417    1.411   .     A
C414   C441    1.521   .     S
C414   C68     1.385   1_565 S
C415   C417    1.412   .     A
C415   C445    1.453   .     S
C415   C65     1.385   1_565 S
C416   C418    1.412   .     A
C416   C447    1.453   .     S
C419   C449    1.514   .     S
C419   N426    1.379   .     A
C419   C1465   1.432   1_554 S
C420   C453    1.514   .     S
C420   N425    1.379   .     A
C420   C944    1.432   .     S
C421   C457    1.514   .     S
C421   N425    1.379   .     A
C421   C941    1.432   .     S
C422   N426    1.379   .     A
C422   C461    1.514   .     S
C422   C1464   1.432   1_554 S
H423   C469    1.087   .     S
N425   Zn435   2.036   .     S
N426   Zn436   2.036   .     S
O427   Zn435   2.010   .     S
O428   Zn436   2.010   .     S
O429   Zn436   1.997   .     S
O430   Zn435   1.997   .     S
O431   Zn435   1.971   .     S
O432   Zn436   1.971   .     S
O433   Zn436   1.980   .     S
O434   Zn435   1.980   .     S
C437   H439    1.111   .     S
C437   H438    1.111   .     S
C437   H440    1.109   .     S
C441   H444    1.111   .     S
C441   H443    1.109   .     S
C441   H442    1.111   .     S
C445   N446    1.158   .     T
C447   N448    1.158   .     T
C449   H450    1.107   .     S
C449   H451    1.085   .     S
C449   H452    1.110   .     S
C453   H454    1.107   .     S
C453   H455    1.110   .     S
C453   H456    1.085   .     S
C457   H460    1.110   .     S
C457   H459    1.108   .     S
C457   H458    1.084   .     S
C461   H462    1.084   .     S
C461   H463    1.110   .     S
C461   H464    1.108   .     S
C465   O485    1.299   .     A
C465   C476    1.450   .     S
C465   O487    1.303   .     A
C466   O486    1.299   .     A
C466   C475    1.450   .     S
C466   O488    1.303   .     A
C467   O491    1.291   .     A
C467   C469    1.404   .     S
C467   O489    1.288   .     A
C468   O490    1.288   .     A
C468   O492    1.291   .     A
C468   C470    1.404   .     S
C470   C353    1.331   1_655 S
C470   H366    1.087   1_655 S
C471   C476    1.411   .     A
C471   C495    1.521   .     S
C472   C475    1.411   .     A
C472   C499    1.521   .     S
C472   C126    1.385   1_565 S
C473   C475    1.412   .     A
C473   C503    1.453   .     S
C473   C123    1.385   1_565 S
C474   C476    1.412   .     A
C474   C505    1.453   .     S
C477   C507    1.514   .     S
C477   N484    1.379   .     A
C477   C1523   1.432   1_554 S
C478   C511    1.514   .     S
C478   N483    1.379   .     A
C478   C1002   1.432   .     S
C479   C515    1.514   .     S
C479   N483    1.379   .     A
C479   C999    1.432   .     S
C480   N484    1.379   .     A
C480   C519    1.514   .     S
C480   C1522   1.432   1_554 S
H481   C353    1.087   1_655 S
N483   Zn493   2.036   .     S
N484   Zn494   2.036   .     S
O485   Zn493   2.010   .     S
O486   Zn494   2.010   .     S
O487   Zn494   1.997   .     S
O488   Zn493   1.997   .     S
O489   Zn493   1.971   .     S
O490   Zn494   1.971   .     S
O491   Zn494   1.980   .     S
O492   Zn493   1.980   .     S
C495   H497    1.111   .     S
C495   H496    1.111   .     S
C495   H498    1.109   .     S
C499   H502    1.111   .     S
C499   H501    1.109   .     S
C499   H500    1.111   .     S
C503   N504    1.158   .     T
C505   N506    1.158   .     T
C507   H508    1.107   .     S
C507   H509    1.085   .     S
C507   H510    1.110   .     S
C511   H512    1.107   .     S
C511   H513    1.110   .     S
C511   H514    1.085   .     S
C515   H518    1.110   .     S
C515   H517    1.108   .     S
C515   H516    1.084   .     S
C519   H520    1.084   .     S
C519   H521    1.110   .     S
C519   H522    1.108   .     S
C523   O543    1.299   .     A
C523   C534    1.450   .     S
C523   O545    1.303   .     A
C524   O544    1.299   .     A
C524   C533    1.450   .     S
C524   O546    1.303   .     A
C525   O549    1.291   .     A
C525   C527    1.404   .     S
C525   O547    1.288   .     A
C526   O548    1.288   .     A
C526   O550    1.291   .     A
C526   C528    1.404   .     S
C527   C644    1.331   1_455 S
C527   H655    1.087   1_455 S
C528   C585    1.331   .     S
C528   H598    1.087   .     S
C529   C534    1.411   .     A
C529   C553    1.521   .     S
C529   C879    1.385   1_545 S
C530   C533    1.411   .     A
C530   C557    1.521   .     S
C530   C706    1.385   .     S
C531   C533    1.412   .     A
C531   C561    1.453   .     S
C531   C703    1.385   .     S
C532   C534    1.412   .     A
C532   C563    1.453   .     S
C532   C878    1.385   1_545 S
C535   C565    1.514   .     S
C535   N542    1.379   .     A
C536   C569    1.514   .     S
C536   N541    1.379   .     A
C536   C1060   1.432   .     S
C537   C573    1.514   .     S
C537   N541    1.379   .     A
C537   C1057   1.432   .     S
C538   N542    1.379   .     A
C538   C577    1.514   .     S
H539   C585    1.087   .     S
H540   C644    1.087   1_455 S
N541   Zn551   2.036   .     S
N542   Zn552   2.036   .     S
O543   Zn551   2.010   .     S
O544   Zn552   2.010   .     S
O545   Zn552   1.997   .     S
O546   Zn551   1.997   .     S
O547   Zn551   1.971   .     S
O548   Zn552   1.971   .     S
O549   Zn552   1.980   .     S
O550   Zn551   1.980   .     S
C553   H555    1.111   .     S
C553   H554    1.111   .     S
C553   H556    1.109   .     S
C557   H560    1.111   .     S
C557   H559    1.109   .     S
C557   H558    1.111   .     S
C561   N562    1.158   .     T
C563   N564    1.158   .     T
C565   H566    1.107   .     S
C565   H567    1.085   .     S
C565   H568    1.110   .     S
C569   H570    1.107   .     S
C569   H571    1.110   .     S
C569   H572    1.085   .     S
C573   H576    1.110   .     S
C573   H575    1.108   .     S
C573   H574    1.084   .     S
C577   H578    1.084   .     S
C577   H579    1.110   .     S
C577   H580    1.108   .     S
C581   O601    1.299   .     A
C581   C592    1.450   .     S
C581   O603    1.303   .     A
C582   O602    1.299   .     A
C582   C591    1.450   .     S
C582   O604    1.303   .     A
C583   O607    1.291   .     A
C583   C585    1.404   .     S
C583   O605    1.288   .     A
C584   O606    1.288   .     A
C584   O608    1.291   .     A
C584   C586    1.404   .     S
C586   C643    1.331   .     S
C586   H656    1.087   .     S
C587   C592    1.411   .     A
C587   C611    1.521   .     S
C587   C937    1.385   1_545 S
C588   C591    1.411   .     A
C588   C615    1.521   .     S
C588   C764    1.385   .     S
C589   C591    1.412   .     A
C589   C619    1.453   .     S
C589   C761    1.385   .     S
C590   C592    1.412   .     A
C590   C621    1.453   .     S
C590   C936    1.385   1_545 S
C593   C623    1.514   .     S
C593   N600    1.379   .     A
C594   C627    1.514   .     S
C594   N599    1.379   .     A
C594   C1118   1.432   .     S
C595   C631    1.514   .     S
C595   N599    1.379   .     A
C595   C1115   1.432   .     S
C596   N600    1.379   .     A
C596   C635    1.514   .     S
H597   C643    1.087   .     S
N599   Zn609   2.036   .     S
N600   Zn610   2.036   .     S
O601   Zn609   2.010   .     S
O602   Zn610   2.010   .     S
O603   Zn610   1.997   .     S
O604   Zn609   1.997   .     S
O605   Zn609   1.971   .     S
O606   Zn610   1.971   .     S
O607   Zn610   1.980   .     S
O608   Zn609   1.980   .     S
C611   H613    1.111   .     S
C611   H612    1.111   .     S
C611   H614    1.109   .     S
C615   H618    1.111   .     S
C615   H617    1.109   .     S
C615   H616    1.111   .     S
C619   N620    1.158   .     T
C621   N622    1.158   .     T
C623   H624    1.107   .     S
C623   H625    1.085   .     S
C623   H626    1.110   .     S
C627   H628    1.107   .     S
C627   H629    1.110   .     S
C627   H630    1.085   .     S
C631   H634    1.110   .     S
C631   H633    1.108   .     S
C631   H632    1.084   .     S
C635   H636    1.084   .     S
C635   H637    1.110   .     S
C635   H638    1.108   .     S
C639   O659    1.299   .     A
C639   C650    1.450   .     S
C639   O661    1.303   .     A
C640   O660    1.299   .     A
C640   C649    1.450   .     S
C640   O662    1.303   .     A
C641   O665    1.291   .     A
C641   C643    1.404   .     S
C641   O663    1.288   .     A
C642   O664    1.288   .     A
C642   O666    1.291   .     A
C642   C644    1.404   .     S
C644   C527    1.331   1_655 S
C644   H540    1.087   1_655 S
C645   C650    1.411   .     A
C645   C669    1.521   .     S
C645   C995    1.385   1_545 S
C646   C649    1.411   .     A
C646   C673    1.521   .     S
C646   C822    1.385   .     S
C647   C649    1.412   .     A
C647   C677    1.453   .     S
C647   C819    1.385   .     S
C648   C650    1.412   .     A
C648   C679    1.453   .     S
C648   C994    1.385   1_545 S
C651   C681    1.514   .     S
C651   N658    1.379   .     A
C652   C685    1.514   .     S
C652   N657    1.379   .     A
C652   C1176   1.432   .     S
C653   C689    1.514   .     S
C653   N657    1.379   .     A
C653   C1173   1.432   .     S
C654   N658    1.379   .     A
C654   C693    1.514   .     S
H655   C527    1.087   1_655 S
N657   Zn667   2.036   .     S
N658   Zn668   2.036   .     S
O659   Zn667   2.010   .     S
O660   Zn668   2.010   .     S
O661   Zn668   1.997   .     S
O662   Zn667   1.997   .     S
O663   Zn667   1.971   .     S
O664   Zn668   1.971   .     S
O665   Zn668   1.980   .     S
O666   Zn667   1.980   .     S
C669   H671    1.111   .     S
C669   H670    1.111   .     S
C669   H672    1.109   .     S
C673   H676    1.111   .     S
C673   H675    1.109   .     S
C673   H674    1.111   .     S
C677   N678    1.158   .     T
C679   N680    1.158   .     T
C681   H682    1.107   .     S
C681   H683    1.085   .     S
C681   H684    1.110   .     S
C685   H686    1.107   .     S
C685   H687    1.110   .     S
C685   H688    1.085   .     S
C689   H692    1.110   .     S
C689   H691    1.108   .     S
C689   H690    1.084   .     S
C693   H694    1.084   .     S
C693   H695    1.110   .     S
C693   H696    1.108   .     S
C697   O717    1.299   .     A
C697   C708    1.450   .     S
C697   O719    1.303   .     A
C698   O718    1.299   .     A
C698   C707    1.450   .     S
C698   O720    1.303   .     A
C699   O723    1.291   .     A
C699   C701    1.404   .     S
C699   O721    1.288   .     A
C700   O722    1.288   .     A
C700   O724    1.291   .     A
C700   C702    1.404   .     S
C701   C818    1.331   1_455 S
C701   H829    1.087   1_455 S
C702   C759    1.331   .     S
C702   H772    1.087   .     S
C703   C708    1.411   .     A
C703   C727    1.521   .     S
C704   C707    1.411   .     A
C704   C731    1.521   .     S
C704   C880    1.385   .     S
C705   C707    1.412   .     A
C705   C735    1.453   .     S
C705   C877    1.385   .     S
C706   C708    1.412   .     A
C706   C737    1.453   .     S
C709   C739    1.514   .     S
C709   N716    1.379   .     A
C710   C743    1.514   .     S
C710   N715    1.379   .     A
C710   C1234   1.432   .     S
C711   C747    1.514   .     S
C711   N715    1.379   .     A
C711   C1231   1.432   .     S
C712   N716    1.379   .     A
C712   C751    1.514   .     S
H713   C759    1.087   .     S
H714   C818    1.087   1_455 S
N715   Zn725   2.036   .     S
N716   Zn726   2.036   .     S
O717   Zn725   2.010   .     S
O718   Zn726   2.010   .     S
O719   Zn726   1.997   .     S
O720   Zn725   1.997   .     S
O721   Zn725   1.971   .     S
O722   Zn726   1.971   .     S
O723   Zn726   1.980   .     S
O724   Zn725   1.980   .     S
C727   H729    1.111   .     S
C727   H728    1.111   .     S
C727   H730    1.109   .     S
C731   H734    1.111   .     S
C731   H733    1.109   .     S
C731   H732    1.111   .     S
C735   N736    1.158   .     T
C737   N738    1.158   .     T
C739   H740    1.107   .     S
C739   H741    1.085   .     S
C739   H742    1.110   .     S
C743   H744    1.107   .     S
C743   H745    1.110   .     S
C743   H746    1.085   .     S
C747   H750    1.110   .     S
C747   H749    1.108   .     S
C747   H748    1.084   .     S
C751   H752    1.084   .     S
C751   H753    1.110   .     S
C751   H754    1.108   .     S
C755   O775    1.299   .     A
C755   C766    1.450   .     S
C755   O777    1.303   .     A
C756   O776    1.299   .     A
C756   C765    1.450   .     S
C756   O778    1.303   .     A
C757   O781    1.291   .     A
C757   C759    1.404   .     S
C757   O779    1.288   .     A
C758   O780    1.288   .     A
C758   O782    1.291   .     A
C758   C760    1.404   .     S
C760   C817    1.331   .     S
C760   H830    1.087   .     S
C761   C766    1.411   .     A
C761   C785    1.521   .     S
C762   C765    1.411   .     A
C762   C789    1.521   .     S
C762   C938    1.385   .     S
C763   C765    1.412   .     A
C763   C793    1.453   .     S
C763   C935    1.385   .     S
C764   C766    1.412   .     A
C764   C795    1.453   .     S
C767   C797    1.514   .     S
C767   N774    1.379   .     A
C768   C801    1.514   .     S
C768   N773    1.379   .     A
C768   C1292   1.432   .     S
C769   C805    1.514   .     S
C769   N773    1.379   .     A
C769   C1289   1.432   .     S
C770   N774    1.379   .     A
C770   C809    1.514   .     S
H771   C817    1.087   .     S
N773   Zn783   2.036   .     S
N774   Zn784   2.036   .     S
O775   Zn783   2.010   .     S
O776   Zn784   2.010   .     S
O777   Zn784   1.997   .     S
O778   Zn783   1.997   .     S
O779   Zn783   1.971   .     S
O780   Zn784   1.971   .     S
O781   Zn784   1.980   .     S
O782   Zn783   1.980   .     S
C785   H787    1.111   .     S
C785   H786    1.111   .     S
C785   H788    1.109   .     S
C789   H792    1.111   .     S
C789   H791    1.109   .     S
C789   H790    1.111   .     S
C793   N794    1.158   .     T
C795   N796    1.158   .     T
C797   H798    1.107   .     S
C797   H799    1.085   .     S
C797   H800    1.110   .     S
C801   H802    1.107   .     S
C801   H803    1.110   .     S
C801   H804    1.085   .     S
C805   H808    1.110   .     S
C805   H807    1.108   .     S
C805   H806    1.084   .     S
C809   H810    1.084   .     S
C809   H811    1.110   .     S
C809   H812    1.108   .     S
C813   O833    1.299   .     A
C813   C824    1.450   .     S
C813   O835    1.303   .     A
C814   O834    1.299   .     A
C814   C823    1.450   .     S
C814   O836    1.303   .     A
C815   O839    1.291   .     A
C815   C817    1.404   .     S
C815   O837    1.288   .     A
C816   O838    1.288   .     A
C816   O840    1.291   .     A
C816   C818    1.404   .     S
C818   C701    1.331   1_655 S
C818   H714    1.087   1_655 S
C819   C824    1.411   .     A
C819   C843    1.521   .     S
C820   C823    1.411   .     A
C820   C847    1.521   .     S
C820   C996    1.385   .     S
C821   C823    1.412   .     A
C821   C851    1.453   .     S
C821   C993    1.385   .     S
C822   C824    1.412   .     A
C822   C853    1.453   .     S
C825   C855    1.514   .     S
C825   N832    1.379   .     A
C826   C859    1.514   .     S
C826   N831    1.379   .     A
C826   C1350   1.432   .     S
C827   C863    1.514   .     S
C827   N831    1.379   .     A
C827   C1347   1.432   .     S
C828   N832    1.379   .     A
C828   C867    1.514   .     S
H829   C701    1.087   1_655 S
N831   Zn841   2.036   .     S
N832   Zn842   2.036   .     S
O833   Zn841   2.010   .     S
O834   Zn842   2.010   .     S
O835   Zn842   1.997   .     S
O836   Zn841   1.997   .     S
O837   Zn841   1.971   .     S
O838   Zn842   1.971   .     S
O839   Zn842   1.980   .     S
O840   Zn841   1.980   .     S
C843   H845    1.111   .     S
C843   H844    1.111   .     S
C843   H846    1.109   .     S
C847   H850    1.111   .     S
C847   H849    1.109   .     S
C847   H848    1.111   .     S
C851   N852    1.158   .     T
C853   N854    1.158   .     T
C855   H856    1.107   .     S
C855   H857    1.085   .     S
C855   H858    1.110   .     S
C859   H860    1.107   .     S
C859   H861    1.110   .     S
C859   H862    1.085   .     S
C863   H866    1.110   .     S
C863   H865    1.108   .     S
C863   H864    1.084   .     S
C867   H868    1.084   .     S
C867   H869    1.110   .     S
C867   H870    1.108   .     S
C871   O891    1.299   .     A
C871   C882    1.450   .     S
C871   O893    1.303   .     A
C872   O892    1.299   .     A
C872   C881    1.450   .     S
C872   O894    1.303   .     A
C873   O897    1.291   .     A
C873   C875    1.404   .     S
C873   O895    1.288   .     A
C874   O896    1.288   .     A
C874   O898    1.291   .     A
C874   C876    1.404   .     S
C875   C992    1.331   1_455 S
C875   H1003   1.087   1_455 S
C876   C933    1.331   .     S
C876   H946    1.087   .     S
C877   C882    1.411   .     A
C877   C901    1.521   .     S
C878   C881    1.411   .     A
C878   C905    1.521   .     S
C878   C532    1.385   1_565 S
C879   C881    1.412   .     A
C879   C909    1.453   .     S
C879   C529    1.385   1_565 S
C880   C882    1.412   .     A
C880   C911    1.453   .     S
C883   C913    1.514   .     S
C883   N890    1.379   .     A
C884   C917    1.514   .     S
C884   N889    1.379   .     A
C884   C1408   1.432   .     S
C885   C921    1.514   .     S
C885   N889    1.379   .     A
C885   C1405   1.432   .     S
C886   N890    1.379   .     A
C886   C925    1.514   .     S
H887   C933    1.087   .     S
H888   C992    1.087   1_455 S
N889   Zn899   2.036   .     S
N890   Zn900   2.036   .     S
O891   Zn899   2.010   .     S
O892   Zn900   2.010   .     S
O893   Zn900   1.997   .     S
O894   Zn899   1.997   .     S
O895   Zn899   1.971   .     S
O896   Zn900   1.971   .     S
O897   Zn900   1.980   .     S
O898   Zn899   1.980   .     S
C901   H903    1.111   .     S
C901   H902    1.111   .     S
C901   H904    1.109   .     S
C905   H908    1.111   .     S
C905   H907    1.109   .     S
C905   H906    1.111   .     S
C909   N910    1.158   .     T
C911   N912    1.158   .     T
C913   H914    1.107   .     S
C913   H915    1.085   .     S
C913   H916    1.110   .     S
C917   H918    1.107   .     S
C917   H919    1.110   .     S
C917   H920    1.085   .     S
C921   H924    1.110   .     S
C921   H923    1.108   .     S
C921   H922    1.084   .     S
C925   H926    1.084   .     S
C925   H927    1.110   .     S
C925   H928    1.108   .     S
C929   O949    1.299   .     A
C929   C940    1.450   .     S
C929   O951    1.303   .     A
C930   O950    1.299   .     A
C930   C939    1.450   .     S
C930   O952    1.303   .     A
C931   O955    1.291   .     A
C931   C933    1.404   .     S
C931   O953    1.288   .     A
C932   O954    1.288   .     A
C932   O956    1.291   .     A
C932   C934    1.404   .     S
C934   C991    1.331   .     S
C934   H1004   1.087   .     S
C935   C940    1.411   .     A
C935   C959    1.521   .     S
C936   C939    1.411   .     A
C936   C963    1.521   .     S
C936   C590    1.385   1_565 S
C937   C939    1.412   .     A
C937   C967    1.453   .     S
C937   C587    1.385   1_565 S
C938   C940    1.412   .     A
C938   C969    1.453   .     S
C941   C971    1.514   .     S
C941   N948    1.379   .     A
C942   C975    1.514   .     S
C942   N947    1.379   .     A
C942   C1466   1.432   .     S
C943   C979    1.514   .     S
C943   N947    1.379   .     A
C943   C1463   1.432   .     S
C944   N948    1.379   .     A
C944   C983    1.514   .     S
H945   C991    1.087   .     S
N947   Zn957   2.036   .     S
N948   Zn958   2.036   .     S
O949   Zn957   2.010   .     S
O950   Zn958   2.010   .     S
O951   Zn958   1.997   .     S
O952   Zn957   1.997   .     S
O953   Zn957   1.971   .     S
O954   Zn958   1.971   .     S
O955   Zn958   1.980   .     S
O956   Zn957   1.980   .     S
C959   H961    1.111   .     S
C959   H960    1.111   .     S
C959   H962    1.109   .     S
C963   H966    1.111   .     S
C963   H965    1.109   .     S
C963   H964    1.111   .     S
C967   N968    1.158   .     T
C969   N970    1.158   .     T
C971   H972    1.107   .     S
C971   H973    1.085   .     S
C971   H974    1.110   .     S
C975   H976    1.107   .     S
C975   H977    1.110   .     S
C975   H978    1.085   .     S
C979   H982    1.110   .     S
C979   H981    1.108   .     S
C979   H980    1.084   .     S
C983   H984    1.084   .     S
C983   H985    1.110   .     S
C983   H986    1.108   .     S
C987   O1007   1.299   .     A
C987   C998    1.450   .     S
C987   O1009   1.303   .     A
C988   O1008   1.299   .     A
C988   C997    1.450   .     S
C988   O1010   1.303   .     A
C989   O1013   1.291   .     A
C989   C991    1.404   .     S
C989   O1011   1.288   .     A
C990   O1012   1.288   .     A
C990   O1014   1.291   .     A
C990   C992    1.404   .     S
C992   C875    1.331   1_655 S
C992   H888    1.087   1_655 S
C993   C998    1.411   .     A
C993   C1017   1.521   .     S
C994   C997    1.411   .     A
C994   C1021   1.521   .     S
C994   C648    1.385   1_565 S
C995   C997    1.412   .     A
C995   C1025   1.453   .     S
C995   C645    1.385   1_565 S
C996   C998    1.412   .     A
C996   C1027   1.453   .     S
C999   C1029   1.514   .     S
C999   N1006   1.379   .     A
C1000  C1033   1.514   .     S
C1000  N1005   1.379   .     A
C1000  C1524   1.432   .     S
C1001  C1037   1.514   .     S
C1001  N1005   1.379   .     A
C1001  C1521   1.432   .     S
C1002  N1006   1.379   .     A
C1002  C1041   1.514   .     S
H1003  C875    1.087   1_655 S
N1005  Zn1015  2.036   .     S
N1006  Zn1016  2.036   .     S
O1007  Zn1015  2.010   .     S
O1008  Zn1016  2.010   .     S
O1009  Zn1016  1.997   .     S
O1010  Zn1015  1.997   .     S
O1011  Zn1015  1.971   .     S
O1012  Zn1016  1.971   .     S
O1013  Zn1016  1.980   .     S
O1014  Zn1015  1.980   .     S
C1017  H1019   1.111   .     S
C1017  H1018   1.111   .     S
C1017  H1020   1.109   .     S
C1021  H1024   1.111   .     S
C1021  H1023   1.109   .     S
C1021  H1022   1.111   .     S
C1025  N1026   1.158   .     T
C1027  N1028   1.158   .     T
C1029  H1030   1.107   .     S
C1029  H1031   1.085   .     S
C1029  H1032   1.110   .     S
C1033  H1034   1.107   .     S
C1033  H1035   1.110   .     S
C1033  H1036   1.085   .     S
C1037  H1040   1.110   .     S
C1037  H1039   1.108   .     S
C1037  H1038   1.084   .     S
C1041  H1042   1.084   .     S
C1041  H1043   1.110   .     S
C1041  H1044   1.108   .     S
C1045  O1065   1.299   .     A
C1045  C1056   1.450   .     S
C1045  O1067   1.303   .     A
C1046  O1066   1.299   .     A
C1046  C1055   1.450   .     S
C1046  O1068   1.303   .     A
C1047  O1071   1.291   .     A
C1047  C1049   1.404   .     S
C1047  O1069   1.288   .     A
C1048  O1070   1.288   .     A
C1048  O1072   1.291   .     A
C1048  C1050   1.404   .     S
C1049  C1166   1.331   1_455 S
C1049  H1177   1.087   1_455 S
C1050  C1107   1.331   .     S
C1050  H1120   1.087   .     S
C1051  C1056   1.411   .     A
C1051  C1075   1.521   .     S
C1051  C1401   1.385   1_545 S
C1052  C1055   1.411   .     A
C1052  C1079   1.521   .     S
C1052  C1228   1.385   .     S
C1053  C1055   1.412   .     A
C1053  C1083   1.453   .     S
C1053  C1225   1.385   .     S
C1054  C1056   1.412   .     A
C1054  C1085   1.453   .     S
C1054  C1400   1.385   1_545 S
C1057  C1087   1.514   .     S
C1057  N1064   1.379   .     A
C1058  C1091   1.514   .     S
C1058  N1063   1.379   .     A
C1058  C16     1.432   1_556 S
C1059  C1095   1.514   .     S
C1059  N1063   1.379   .     A
C1059  C13     1.432   1_556 S
C1060  N1064   1.379   .     A
C1060  C1099   1.514   .     S
H1061  C1107   1.087   .     S
H1062  C1166   1.087   1_455 S
N1063  Zn1073  2.036   .     S
N1064  Zn1074  2.036   .     S
O1065  Zn1073  2.010   .     S
O1066  Zn1074  2.010   .     S
O1067  Zn1074  1.997   .     S
O1068  Zn1073  1.997   .     S
O1069  Zn1073  1.971   .     S
O1070  Zn1074  1.971   .     S
O1071  Zn1074  1.980   .     S
O1072  Zn1073  1.980   .     S
C1075  H1077   1.111   .     S
C1075  H1076   1.111   .     S
C1075  H1078   1.109   .     S
C1079  H1082   1.111   .     S
C1079  H1081   1.109   .     S
C1079  H1080   1.111   .     S
C1083  N1084   1.158   .     T
C1085  N1086   1.158   .     T
C1087  H1088   1.107   .     S
C1087  H1089   1.085   .     S
C1087  H1090   1.110   .     S
C1091  H1092   1.107   .     S
C1091  H1093   1.110   .     S
C1091  H1094   1.085   .     S
C1095  H1098   1.110   .     S
C1095  H1097   1.108   .     S
C1095  H1096   1.084   .     S
C1099  H1100   1.084   .     S
C1099  H1101   1.110   .     S
C1099  H1102   1.108   .     S
C1103  O1123   1.299   .     A
C1103  C1114   1.450   .     S
C1103  O1125   1.303   .     A
C1104  O1124   1.299   .     A
C1104  C1113   1.450   .     S
C1104  O1126   1.303   .     A
C1105  O1129   1.291   .     A
C1105  C1107   1.404   .     S
C1105  O1127   1.288   .     A
C1106  O1128   1.288   .     A
C1106  O1130   1.291   .     A
C1106  C1108   1.404   .     S
C1108  C1165   1.331   .     S
C1108  H1178   1.087   .     S
C1109  C1114   1.411   .     A
C1109  C1133   1.521   .     S
C1109  C1459   1.385   1_545 S
C1110  C1113   1.411   .     A
C1110  C1137   1.521   .     S
C1110  C1286   1.385   .     S
C1111  C1113   1.412   .     A
C1111  C1141   1.453   .     S
C1111  C1283   1.385   .     S
C1112  C1114   1.412   .     A
C1112  C1143   1.453   .     S
C1112  C1458   1.385   1_545 S
C1115  C1145   1.514   .     S
C1115  N1122   1.379   .     A
C1116  C1149   1.514   .     S
C1116  N1121   1.379   .     A
C1116  C74     1.432   1_556 S
C1117  C1153   1.514   .     S
C1117  N1121   1.379   .     A
C1117  C71     1.432   1_556 S
C1118  N1122   1.379   .     A
C1118  C1157   1.514   .     S
H1119  C1165   1.087   .     S
N1121  Zn1131  2.036   .     S
N1122  Zn1132  2.036   .     S
O1123  Zn1131  2.010   .     S
O1124  Zn1132  2.010   .     S
O1125  Zn1132  1.997   .     S
O1126  Zn1131  1.997   .     S
O1127  Zn1131  1.971   .     S
O1128  Zn1132  1.971   .     S
O1129  Zn1132  1.980   .     S
O1130  Zn1131  1.980   .     S
C1133  H1135   1.111   .     S
C1133  H1134   1.111   .     S
C1133  H1136   1.109   .     S
C1137  H1140   1.111   .     S
C1137  H1139   1.109   .     S
C1137  H1138   1.111   .     S
C1141  N1142   1.158   .     T
C1143  N1144   1.158   .     T
C1145  H1146   1.107   .     S
C1145  H1147   1.085   .     S
C1145  H1148   1.110   .     S
C1149  H1150   1.107   .     S
C1149  H1151   1.110   .     S
C1149  H1152   1.085   .     S
C1153  H1156   1.110   .     S
C1153  H1155   1.108   .     S
C1153  H1154   1.084   .     S
C1157  H1158   1.084   .     S
C1157  H1159   1.110   .     S
C1157  H1160   1.108   .     S
C1161  O1181   1.299   .     A
C1161  C1172   1.450   .     S
C1161  O1183   1.303   .     A
C1162  O1182   1.299   .     A
C1162  C1171   1.450   .     S
C1162  O1184   1.303   .     A
C1163  O1187   1.291   .     A
C1163  C1165   1.404   .     S
C1163  O1185   1.288   .     A
C1164  O1186   1.288   .     A
C1164  O1188   1.291   .     A
C1164  C1166   1.404   .     S
C1166  C1049   1.331   1_655 S
C1166  H1062   1.087   1_655 S
C1167  C1172   1.411   .     A
C1167  C1191   1.521   .     S
C1167  C1517   1.385   1_545 S
C1168  C1171   1.411   .     A
C1168  C1195   1.521   .     S
C1168  C1344   1.385   .     S
C1169  C1171   1.412   .     A
C1169  C1199   1.453   .     S
C1169  C1341   1.385   .     S
C1170  C1172   1.412   .     A
C1170  C1201   1.453   .     S
C1170  C1516   1.385   1_545 S
C1173  C1203   1.514   .     S
C1173  N1180   1.379   .     A
C1174  C1207   1.514   .     S
C1174  N1179   1.379   .     A
C1174  C132    1.432   1_556 S
C1175  C1211   1.514   .     S
C1175  N1179   1.379   .     A
C1175  C129    1.432   1_556 S
C1176  N1180   1.379   .     A
C1176  C1215   1.514   .     S
H1177  C1049   1.087   1_655 S
N1179  Zn1189  2.036   .     S
N1180  Zn1190  2.036   .     S
O1181  Zn1189  2.010   .     S
O1182  Zn1190  2.010   .     S
O1183  Zn1190  1.997   .     S
O1184  Zn1189  1.997   .     S
O1185  Zn1189  1.971   .     S
O1186  Zn1190  1.971   .     S
O1187  Zn1190  1.980   .     S
O1188  Zn1189  1.980   .     S
C1191  H1193   1.111   .     S
C1191  H1192   1.111   .     S
C1191  H1194   1.109   .     S
C1195  H1198   1.111   .     S
C1195  H1197   1.109   .     S
C1195  H1196   1.111   .     S
C1199  N1200   1.158   .     T
C1201  N1202   1.158   .     T
C1203  H1204   1.107   .     S
C1203  H1205   1.085   .     S
C1203  H1206   1.110   .     S
C1207  H1208   1.107   .     S
C1207  H1209   1.110   .     S
C1207  H1210   1.085   .     S
C1211  H1214   1.110   .     S
C1211  H1213   1.108   .     S
C1211  H1212   1.084   .     S
C1215  H1216   1.084   .     S
C1215  H1217   1.110   .     S
C1215  H1218   1.108   .     S
C1219  O1239   1.299   .     A
C1219  C1230   1.450   .     S
C1219  O1241   1.303   .     A
C1220  O1240   1.299   .     A
C1220  C1229   1.450   .     S
C1220  O1242   1.303   .     A
C1221  O1245   1.291   .     A
C1221  C1223   1.404   .     S
C1221  O1243   1.288   .     A
C1222  O1244   1.288   .     A
C1222  O1246   1.291   .     A
C1222  C1224   1.404   .     S
C1223  C1340   1.331   1_455 S
C1223  H1351   1.087   1_455 S
C1224  C1281   1.331   .     S
C1224  H1294   1.087   .     S
C1225  C1230   1.411   .     A
C1225  C1249   1.521   .     S
C1226  C1229   1.411   .     A
C1226  C1253   1.521   .     S
C1226  C1402   1.385   .     S
C1227  C1229   1.412   .     A
C1227  C1257   1.453   .     S
C1227  C1399   1.385   .     S
C1228  C1230   1.412   .     A
C1228  C1259   1.453   .     S
C1231  C1261   1.514   .     S
C1231  N1238   1.379   .     A
C1232  C1265   1.514   .     S
C1232  N1237   1.379   .     A
C1232  C190    1.432   1_556 S
C1233  C1269   1.514   .     S
C1233  N1237   1.379   .     A
C1233  C187    1.432   1_556 S
C1234  N1238   1.379   .     A
C1234  C1273   1.514   .     S
H1235  C1281   1.087   .     S
H1236  C1340   1.087   1_455 S
N1237  Zn1247  2.036   .     S
N1238  Zn1248  2.036   .     S
O1239  Zn1247  2.010   .     S
O1240  Zn1248  2.010   .     S
O1241  Zn1248  1.997   .     S
O1242  Zn1247  1.997   .     S
O1243  Zn1247  1.971   .     S
O1244  Zn1248  1.971   .     S
O1245  Zn1248  1.980   .     S
O1246  Zn1247  1.980   .     S
C1249  H1251   1.111   .     S
C1249  H1250   1.111   .     S
C1249  H1252   1.109   .     S
C1253  H1256   1.111   .     S
C1253  H1255   1.109   .     S
C1253  H1254   1.111   .     S
C1257  N1258   1.158   .     T
C1259  N1260   1.158   .     T
C1261  H1262   1.107   .     S
C1261  H1263   1.085   .     S
C1261  H1264   1.110   .     S
C1265  H1266   1.107   .     S
C1265  H1267   1.110   .     S
C1265  H1268   1.085   .     S
C1269  H1272   1.110   .     S
C1269  H1271   1.108   .     S
C1269  H1270   1.084   .     S
C1273  H1274   1.084   .     S
C1273  H1275   1.110   .     S
C1273  H1276   1.108   .     S
C1277  O1297   1.299   .     A
C1277  C1288   1.450   .     S
C1277  O1299   1.303   .     A
C1278  O1298   1.299   .     A
C1278  C1287   1.450   .     S
C1278  O1300   1.303   .     A
C1279  O1303   1.291   .     A
C1279  C1281   1.404   .     S
C1279  O1301   1.288   .     A
C1280  O1302   1.288   .     A
C1280  O1304   1.291   .     A
C1280  C1282   1.404   .     S
C1282  C1339   1.331   .     S
C1282  H1352   1.087   .     S
C1283  C1288   1.411   .     A
C1283  C1307   1.521   .     S
C1284  C1287   1.411   .     A
C1284  C1311   1.521   .     S
C1284  C1460   1.385   .     S
C1285  C1287   1.412   .     A
C1285  C1315   1.453   .     S
C1285  C1457   1.385   .     S
C1286  C1288   1.412   .     A
C1286  C1317   1.453   .     S
C1289  C1319   1.514   .     S
C1289  N1296   1.379   .     A
C1290  C1323   1.514   .     S
C1290  N1295   1.379   .     A
C1290  C248    1.432   1_556 S
C1291  C1327   1.514   .     S
C1291  N1295   1.379   .     A
C1291  C245    1.432   1_556 S
C1292  N1296   1.379   .     A
C1292  C1331   1.514   .     S
H1293  C1339   1.087   .     S
N1295  Zn1305  2.036   .     S
N1296  Zn1306  2.036   .     S
O1297  Zn1305  2.010   .     S
O1298  Zn1306  2.010   .     S
O1299  Zn1306  1.997   .     S
O1300  Zn1305  1.997   .     S
O1301  Zn1305  1.971   .     S
O1302  Zn1306  1.971   .     S
O1303  Zn1306  1.980   .     S
O1304  Zn1305  1.980   .     S
C1307  H1309   1.111   .     S
C1307  H1308   1.111   .     S
C1307  H1310   1.109   .     S
C1311  H1314   1.111   .     S
C1311  H1313   1.109   .     S
C1311  H1312   1.111   .     S
C1315  N1316   1.158   .     T
C1317  N1318   1.158   .     T
C1319  H1320   1.107   .     S
C1319  H1321   1.085   .     S
C1319  H1322   1.110   .     S
C1323  H1324   1.107   .     S
C1323  H1325   1.110   .     S
C1323  H1326   1.085   .     S
C1327  H1330   1.110   .     S
C1327  H1329   1.108   .     S
C1327  H1328   1.084   .     S
C1331  H1332   1.084   .     S
C1331  H1333   1.110   .     S
C1331  H1334   1.108   .     S
C1335  O1355   1.299   .     A
C1335  C1346   1.450   .     S
C1335  O1357   1.303   .     A
C1336  O1356   1.299   .     A
C1336  C1345   1.450   .     S
C1336  O1358   1.303   .     A
C1337  O1361   1.291   .     A
C1337  C1339   1.404   .     S
C1337  O1359   1.288   .     A
C1338  O1360   1.288   .     A
C1338  O1362   1.291   .     A
C1338  C1340   1.404   .     S
C1340  C1223   1.331   1_655 S
C1340  H1236   1.087   1_655 S
C1341  C1346   1.411   .     A
C1341  C1365   1.521   .     S
C1342  C1345   1.411   .     A
C1342  C1369   1.521   .     S
C1342  C1518   1.385   .     S
C1343  C1345   1.412   .     A
C1343  C1373   1.453   .     S
C1343  C1515   1.385   .     S
C1344  C1346   1.412   .     A
C1344  C1375   1.453   .     S
C1347  C1377   1.514   .     S
C1347  N1354   1.379   .     A
C1348  C1381   1.514   .     S
C1348  N1353   1.379   .     A
C1348  C306    1.432   1_556 S
C1349  C1385   1.514   .     S
C1349  N1353   1.379   .     A
C1349  C303    1.432   1_556 S
C1350  N1354   1.379   .     A
C1350  C1389   1.514   .     S
H1351  C1223   1.087   1_655 S
N1353  Zn1363  2.036   .     S
N1354  Zn1364  2.036   .     S
O1355  Zn1363  2.010   .     S
O1356  Zn1364  2.010   .     S
O1357  Zn1364  1.997   .     S
O1358  Zn1363  1.997   .     S
O1359  Zn1363  1.971   .     S
O1360  Zn1364  1.971   .     S
O1361  Zn1364  1.980   .     S
O1362  Zn1363  1.980   .     S
C1365  H1367   1.111   .     S
C1365  H1366   1.111   .     S
C1365  H1368   1.109   .     S
C1369  H1372   1.111   .     S
C1369  H1371   1.109   .     S
C1369  H1370   1.111   .     S
C1373  N1374   1.158   .     T
C1375  N1376   1.158   .     T
C1377  H1378   1.107   .     S
C1377  H1379   1.085   .     S
C1377  H1380   1.110   .     S
C1381  H1382   1.107   .     S
C1381  H1383   1.110   .     S
C1381  H1384   1.085   .     S
C1385  H1388   1.110   .     S
C1385  H1387   1.108   .     S
C1385  H1386   1.084   .     S
C1389  H1390   1.084   .     S
C1389  H1391   1.110   .     S
C1389  H1392   1.108   .     S
C1393  O1413   1.299   .     A
C1393  C1404   1.450   .     S
C1393  O1415   1.303   .     A
C1394  O1414   1.299   .     A
C1394  C1403   1.450   .     S
C1394  O1416   1.303   .     A
C1395  O1419   1.291   .     A
C1395  C1397   1.404   .     S
C1395  O1417   1.288   .     A
C1396  O1418   1.288   .     A
C1396  O1420   1.291   .     A
C1396  C1398   1.404   .     S
C1397  C1514   1.331   1_455 S
C1397  H1525   1.087   1_455 S
C1398  C1455   1.331   .     S
C1398  H1468   1.087   .     S
C1399  C1404   1.411   .     A
C1399  C1423   1.521   .     S
C1400  C1403   1.411   .     A
C1400  C1427   1.521   .     S
C1400  C1054   1.385   1_565 S
C1401  C1403   1.412   .     A
C1401  C1431   1.453   .     S
C1401  C1051   1.385   1_565 S
C1402  C1404   1.412   .     A
C1402  C1433   1.453   .     S
C1405  C1435   1.514   .     S
C1405  N1412   1.379   .     A
C1406  C1439   1.514   .     S
C1406  N1411   1.379   .     A
C1406  C364    1.432   1_556 S
C1407  C1443   1.514   .     S
C1407  N1411   1.379   .     A
C1407  C361    1.432   1_556 S
C1408  N1412   1.379   .     A
C1408  C1447   1.514   .     S
H1409  C1455   1.087   .     S
H1410  C1514   1.087   1_455 S
N1411  Zn1421  2.036   .     S
N1412  Zn1422  2.036   .     S
O1413  Zn1421  2.010   .     S
O1414  Zn1422  2.010   .     S
O1415  Zn1422  1.997   .     S
O1416  Zn1421  1.997   .     S
O1417  Zn1421  1.971   .     S
O1418  Zn1422  1.971   .     S
O1419  Zn1422  1.980   .     S
O1420  Zn1421  1.980   .     S
C1423  H1425   1.111   .     S
C1423  H1424   1.111   .     S
C1423  H1426   1.109   .     S
C1427  H1430   1.111   .     S
C1427  H1429   1.109   .     S
C1427  H1428   1.111   .     S
C1431  N1432   1.158   .     T
C1433  N1434   1.158   .     T
C1435  H1436   1.107   .     S
C1435  H1437   1.085   .     S
C1435  H1438   1.110   .     S
C1439  H1440   1.107   .     S
C1439  H1441   1.110   .     S
C1439  H1442   1.085   .     S
C1443  H1446   1.110   .     S
C1443  H1445   1.108   .     S
C1443  H1444   1.084   .     S
C1447  H1448   1.084   .     S
C1447  H1449   1.110   .     S
C1447  H1450   1.108   .     S
C1451  O1471   1.299   .     A
C1451  C1462   1.450   .     S
C1451  O1473   1.303   .     A
C1452  O1472   1.299   .     A
C1452  C1461   1.450   .     S
C1452  O1474   1.303   .     A
C1453  O1477   1.291   .     A
C1453  C1455   1.404   .     S
C1453  O1475   1.288   .     A
C1454  O1476   1.288   .     A
C1454  O1478   1.291   .     A
C1454  C1456   1.404   .     S
C1456  C1513   1.331   .     S
C1456  H1526   1.087   .     S
C1457  C1462   1.411   .     A
C1457  C1481   1.521   .     S
C1458  C1461   1.411   .     A
C1458  C1485   1.521   .     S
C1458  C1112   1.385   1_565 S
C1459  C1461   1.412   .     A
C1459  C1489   1.453   .     S
C1459  C1109   1.385   1_565 S
C1460  C1462   1.412   .     A
C1460  C1491   1.453   .     S
C1463  C1493   1.514   .     S
C1463  N1470   1.379   .     A
C1464  C1497   1.514   .     S
C1464  N1469   1.379   .     A
C1464  C422    1.432   1_556 S
C1465  C1501   1.514   .     S
C1465  N1469   1.379   .     A
C1465  C419    1.432   1_556 S
C1466  N1470   1.379   .     A
C1466  C1505   1.514   .     S
H1467  C1513   1.087   .     S
N1469  Zn1479  2.036   .     S
N1470  Zn1480  2.036   .     S
O1471  Zn1479  2.010   .     S
O1472  Zn1480  2.010   .     S
O1473  Zn1480  1.997   .     S
O1474  Zn1479  1.997   .     S
O1475  Zn1479  1.971   .     S
O1476  Zn1480  1.971   .     S
O1477  Zn1480  1.980   .     S
O1478  Zn1479  1.980   .     S
C1481  H1483   1.111   .     S
C1481  H1482   1.111   .     S
C1481  H1484   1.109   .     S
C1485  H1488   1.111   .     S
C1485  H1487   1.109   .     S
C1485  H1486   1.111   .     S
C1489  N1490   1.158   .     T
C1491  N1492   1.158   .     T
C1493  H1494   1.107   .     S
C1493  H1495   1.085   .     S
C1493  H1496   1.110   .     S
C1497  H1498   1.107   .     S
C1497  H1499   1.110   .     S
C1497  H1500   1.085   .     S
C1501  H1504   1.110   .     S
C1501  H1503   1.108   .     S
C1501  H1502   1.084   .     S
C1505  H1506   1.084   .     S
C1505  H1507   1.110   .     S
C1505  H1508   1.108   .     S
C1509  O1529   1.299   .     A
C1509  C1520   1.450   .     S
C1509  O1531   1.303   .     A
C1510  O1530   1.299   .     A
C1510  C1519   1.450   .     S
C1510  O1532   1.303   .     A
C1511  O1535   1.291   .     A
C1511  C1513   1.404   .     S
C1511  O1533   1.288   .     A
C1512  O1534   1.288   .     A
C1512  O1536   1.291   .     A
C1512  C1514   1.404   .     S
C1514  C1397   1.331   1_655 S
C1514  H1410   1.087   1_655 S
C1515  C1520   1.411   .     A
C1515  C1539   1.521   .     S
C1516  C1519   1.411   .     A
C1516  C1543   1.521   .     S
C1516  C1170   1.385   1_565 S
C1517  C1519   1.412   .     A
C1517  C1547   1.453   .     S
C1517  C1167   1.385   1_565 S
C1518  C1520   1.412   .     A
C1518  C1549   1.453   .     S
C1521  C1551   1.514   .     S
C1521  N1528   1.379   .     A
C1522  C1555   1.514   .     S
C1522  N1527   1.379   .     A
C1522  C480    1.432   1_556 S
C1523  C1559   1.514   .     S
C1523  N1527   1.379   .     A
C1523  C477    1.432   1_556 S
C1524  N1528   1.379   .     A
C1524  C1563   1.514   .     S
H1525  C1397   1.087   1_655 S
N1527  Zn1537  2.036   .     S
N1528  Zn1538  2.036   .     S
O1529  Zn1537  2.010   .     S
O1530  Zn1538  2.010   .     S
O1531  Zn1538  1.997   .     S
O1532  Zn1537  1.997   .     S
O1533  Zn1537  1.971   .     S
O1534  Zn1538  1.971   .     S
O1535  Zn1538  1.980   .     S
O1536  Zn1537  1.980   .     S
C1539  H1541   1.111   .     S
C1539  H1540   1.111   .     S
C1539  H1542   1.109   .     S
C1543  H1546   1.111   .     S
C1543  H1545   1.109   .     S
C1543  H1544   1.111   .     S
C1547  N1548   1.158   .     T
C1549  N1550   1.158   .     T
C1551  H1552   1.107   .     S
C1551  H1553   1.085   .     S
C1551  H1554   1.110   .     S
C1555  H1556   1.107   .     S
C1555  H1557   1.110   .     S
C1555  H1558   1.085   .     S
C1559  H1562   1.110   .     S
C1559  H1561   1.108   .     S
C1559  H1560   1.084   .     S
C1563  H1564   1.084   .     S
C1563  H1565   1.110   .     S
C1563  H1566   1.108   .     S
