data_str_m2_o10_o16_pcu_sym.169
_audit_creation_date              2020-01-03
_audit_creation_method            'Materials Studio'
_symmetry_space_group_name_H-M    'P1'
_symmetry_Int_Tables_number       1
_symmetry_cell_setting            triclinic
loop_
_symmetry_equiv_pos_as_xyz
  x,y,z
_cell_length_a                    22.4455
_cell_length_b                    26.1254
_cell_length_c                    26.8775
_cell_angle_alpha                 95.4850
_cell_angle_beta                  78.7808
_cell_angle_gamma                 102.4091
loop_
_atom_site_label
_atom_site_type_symbol
_atom_site_fract_x
_atom_site_fract_y
_atom_site_fract_z
_atom_site_U_iso_or_equiv
_atom_site_adp_type
_atom_site_occupancy
C1     C     0.18250   0.26650   0.24916   0.00000  Uiso   1.00
C2     C     0.13795   0.15959   0.48722   0.00000  Uiso   1.00
C3     C     0.14869   0.17969   0.43834   0.00000  Uiso   1.00
C4     C     0.18245   0.17801   0.01955   0.00000  Uiso   1.00
C5     C     0.23327   0.21965   0.00455   0.00000  Uiso   1.00
C6     C     0.23500   0.24490   0.46079   0.00000  Uiso   1.00
C7     C     0.19401   0.22527   0.42792   0.00000  Uiso   1.00
C8     C     0.17700   0.15762   0.06696   0.00000  Uiso   1.00
C9     C     0.27049   0.21738   0.08301   0.00000  Uiso   1.00
C10    C     0.11083   0.15635   0.40250   0.00000  Uiso   1.00
C11    C     0.19212   0.32236   0.24731   0.00000  Uiso   1.00
C12    C     0.13298   0.16309   0.34709   0.00000  Uiso   1.00
C13    C     0.14688   0.01090   0.23942   0.00000  Uiso   1.00
C14    C     0.15285   0.06675   0.24566   0.00000  Uiso   1.00
C15    C     0.19960   0.16976   0.15333   0.00000  Uiso   1.00
C16    C     0.27978   0.23763   0.03462   0.00000  Uiso   1.00
C17    C     0.21828   0.17933   0.09944   0.00000  Uiso   1.00
C18    C     0.05345   0.12272   0.41976   0.00000  Uiso   1.00
C19    C     0.04082   0.10567   0.46928   0.00000  Uiso   1.00
C20    C     0.08260   0.12287   0.00209   0.00000  Uiso   1.00
Cu21   Cu    0.10710   0.16105   0.24435   0.00000  Uiso   1.00
Cu22   Cu    0.22623   0.17228   0.25564   0.00000  Uiso   1.00
H23    H     0.30098   0.23331   0.10971   0.00000  Uiso   1.00
H24    H     0.10372   0.32074   0.23038   0.00000  Uiso   1.00
H25    H     0.32720   0.11803   0.22128   0.00000  Uiso   1.00
H26    H     0.26600   0.28176   0.45354   0.00000  Uiso   1.00
H27    H     0.13940   0.12641   0.08103   0.00000  Uiso   1.00
H28    H     0.06893   0.10771   0.03936   0.00000  Uiso   1.00
H29    H     0.33189   0.07792   0.48229   0.00000  Uiso   1.00
H30    H     0.23615   0.01243   0.25458   0.00000  Uiso   1.00
N31    N     0.31574   0.18074   0.26416   0.00000  Uiso   1.00
N32    N     0.01759   0.15259   0.23584   0.00000  Uiso   1.00
O33    O     0.12797   0.23807   0.24633   0.00000  Uiso   1.00
O34    O     0.22858   0.24755   0.25586   0.00000  Uiso   1.00
O35    O     0.09181   0.15960   0.31839   0.00000  Uiso   1.00
O36    O     0.19242   0.16908   0.32793   0.00000  Uiso   1.00
O37    O     0.10476   0.08578   0.24413   0.00000  Uiso   1.00
O38    O     0.20536   0.09526   0.25367   0.00000  Uiso   1.00
O39    O     0.14092   0.16425   0.17207   0.00000  Uiso   1.00
O40    O     0.24152   0.17373   0.18160   0.00000  Uiso   1.00
O41    O     0.01285   0.23036   0.27185   0.00000  Uiso   1.00
C42    C     0.33245   0.24540   0.32385   0.00000  Uiso   1.00
H43    H     0.00154   0.21406   0.34806   0.00000  Uiso   1.00
H44    H     0.28602   0.25521   0.33247   0.00000  Uiso   1.00
C45    C     0.04704   0.29436   0.33534   0.00000  Uiso   1.00
H46    H     0.09370   0.28491   0.32636   0.00000  Uiso   1.00
H47    H     0.04465   0.32647   0.31205   0.00000  Uiso   1.00
C48    C     0.03812   0.31421   0.39055   0.00000  Uiso   1.00
H49    H     0.32976   0.33167   0.39943   0.00000  Uiso   1.00
H50    H     0.07819   0.01236   0.39700   0.00000  Uiso   1.00
H51    H     0.03506   0.28193   0.41550   0.00000  Uiso   1.00
O52    O     0.33041   0.27671   0.01590   0.00000  Uiso   1.00
C53    C     0.04705   0.28431   0.04252   0.00000  Uiso   1.00
H54    H     0.05940   0.24621   0.04751   0.00000  Uiso   1.00
H55    H     0.03463   0.30515   0.07999   0.00000  Uiso   1.00
C56    C     0.10406   0.31844   0.01245   0.00000  Uiso   1.00
H57    H     0.12098   0.29637   0.47705   0.00000  Uiso   1.00
H58    H     0.09134   0.02060   0.00151   0.00000  Uiso   1.00
C59    C     0.15566   0.00178   0.04379   0.00000  Uiso   1.00
H60    H     0.14014   0.02596   0.07820   0.00000  Uiso   1.00
H61    H     0.19707   0.02558   0.02099   0.00000  Uiso   1.00
H62    H     0.16878   0.30011   0.05563   0.00000  Uiso   1.00
O63    O     0.01174   0.10374   0.38712   0.00000  Uiso   1.00
C64    C     0.28628   0.11658   0.40717   0.00000  Uiso   1.00
H65    H     0.27510   0.14102   0.38018   0.00000  Uiso   1.00
H66    H     0.28404   0.14021   0.44404   0.00000  Uiso   1.00
C67    C     0.23564   0.06690   0.41356   0.00000  Uiso   1.00
H68    H     0.24852   0.03901   0.43614   0.00000  Uiso   1.00
H69    H     0.19180   0.07738   0.43453   0.00000  Uiso   1.00
C70    C     0.22423   0.04054   0.36236   0.00000  Uiso   1.00
H71    H     0.21188   0.06855   0.33963   0.00000  Uiso   1.00
H72    H     0.18481   0.00676   0.36798   0.00000  Uiso   1.00
H73    H     0.26608   0.02663   0.34143   0.00000  Uiso   1.00
F74    F     0.19340   0.25475   0.38938   0.00000  Uiso   1.00
C75    C     0.51583   0.26650   0.24916   0.00000  Uiso   1.00
C76    C     0.47128   0.15959   0.48722   0.00000  Uiso   1.00
C77    C     0.48203   0.17969   0.43834   0.00000  Uiso   1.00
C78    C     0.51579   0.17801   0.01955   0.00000  Uiso   1.00
C79    C     0.56661   0.21965   0.00455   0.00000  Uiso   1.00
C80    C     0.56834   0.24490   0.46079   0.00000  Uiso   1.00
C81    C     0.52734   0.22527   0.42792   0.00000  Uiso   1.00
C82    C     0.51033   0.15762   0.06696   0.00000  Uiso   1.00
C83    C     0.60383   0.21738   0.08301   0.00000  Uiso   1.00
C84    C     0.44416   0.15635   0.40250   0.00000  Uiso   1.00
C85    C     0.52546   0.32236   0.24731   0.00000  Uiso   1.00
C86    C     0.46631   0.16309   0.34709   0.00000  Uiso   1.00
C87    C     0.48021   0.01090   0.23942   0.00000  Uiso   1.00
C88    C     0.48618   0.06675   0.24566   0.00000  Uiso   1.00
C89    C     0.53294   0.16976   0.15333   0.00000  Uiso   1.00
C90    C     0.61311   0.23763   0.03462   0.00000  Uiso   1.00
C91    C     0.55161   0.17933   0.09944   0.00000  Uiso   1.00
C92    C     0.38678   0.12272   0.41976   0.00000  Uiso   1.00
C93    C     0.37416   0.10567   0.46928   0.00000  Uiso   1.00
C94    C     0.41593   0.12287   0.00209   0.00000  Uiso   1.00
Cu95   Cu    0.44043   0.16105   0.24435   0.00000  Uiso   1.00
Cu96   Cu    0.55957   0.17228   0.25564   0.00000  Uiso   1.00
H97    H     0.63432   0.23331   0.10971   0.00000  Uiso   1.00
H98    H     0.43706   0.32074   0.23038   0.00000  Uiso   1.00
H99    H     0.66053   0.11803   0.22128   0.00000  Uiso   1.00
H100   H     0.59933   0.28176   0.45354   0.00000  Uiso   1.00
H101   H     0.47273   0.12641   0.08103   0.00000  Uiso   1.00
H102   H     0.40227   0.10771   0.03936   0.00000  Uiso   1.00
H103   H     0.66522   0.07792   0.48229   0.00000  Uiso   1.00
H104   H     0.56948   0.01243   0.25458   0.00000  Uiso   1.00
N105   N     0.64908   0.18074   0.26416   0.00000  Uiso   1.00
N106   N     0.35092   0.15259   0.23584   0.00000  Uiso   1.00
O107   O     0.46131   0.23807   0.24633   0.00000  Uiso   1.00
O108   O     0.56191   0.24755   0.25586   0.00000  Uiso   1.00
O109   O     0.42515   0.15960   0.31839   0.00000  Uiso   1.00
O110   O     0.52575   0.16908   0.32793   0.00000  Uiso   1.00
O111   O     0.43809   0.08578   0.24413   0.00000  Uiso   1.00
O112   O     0.53869   0.09526   0.25367   0.00000  Uiso   1.00
O113   O     0.47425   0.16425   0.17207   0.00000  Uiso   1.00
O114   O     0.57485   0.17373   0.18160   0.00000  Uiso   1.00
O115   O     0.34619   0.23036   0.27185   0.00000  Uiso   1.00
C116   C     0.66578   0.24540   0.32385   0.00000  Uiso   1.00
H117   H     0.33488   0.21406   0.34806   0.00000  Uiso   1.00
H118   H     0.61935   0.25521   0.33247   0.00000  Uiso   1.00
C119   C     0.38037   0.29436   0.33534   0.00000  Uiso   1.00
H120   H     0.42703   0.28491   0.32636   0.00000  Uiso   1.00
H121   H     0.37799   0.32647   0.31205   0.00000  Uiso   1.00
C122   C     0.37145   0.31421   0.39055   0.00000  Uiso   1.00
H123   H     0.66309   0.33167   0.39943   0.00000  Uiso   1.00
H124   H     0.41152   0.01236   0.39700   0.00000  Uiso   1.00
H125   H     0.36840   0.28193   0.41550   0.00000  Uiso   1.00
O126   O     0.66375   0.27671   0.01590   0.00000  Uiso   1.00
C127   C     0.38038   0.28431   0.04252   0.00000  Uiso   1.00
H128   H     0.39273   0.24621   0.04751   0.00000  Uiso   1.00
H129   H     0.36796   0.30515   0.07999   0.00000  Uiso   1.00
C130   C     0.43739   0.31844   0.01245   0.00000  Uiso   1.00
H131   H     0.45432   0.29637   0.47705   0.00000  Uiso   1.00
H132   H     0.42468   0.02060   0.00151   0.00000  Uiso   1.00
C133   C     0.48899   0.00178   0.04379   0.00000  Uiso   1.00
H134   H     0.47347   0.02596   0.07820   0.00000  Uiso   1.00
H135   H     0.53040   0.02558   0.02099   0.00000  Uiso   1.00
H136   H     0.50211   0.30011   0.05563   0.00000  Uiso   1.00
O137   O     0.34508   0.10374   0.38712   0.00000  Uiso   1.00
C138   C     0.61961   0.11658   0.40717   0.00000  Uiso   1.00
H139   H     0.60844   0.14102   0.38018   0.00000  Uiso   1.00
H140   H     0.61737   0.14021   0.44404   0.00000  Uiso   1.00
C141   C     0.56898   0.06690   0.41356   0.00000  Uiso   1.00
H142   H     0.58185   0.03901   0.43614   0.00000  Uiso   1.00
H143   H     0.52513   0.07738   0.43453   0.00000  Uiso   1.00
C144   C     0.55756   0.04054   0.36236   0.00000  Uiso   1.00
H145   H     0.54521   0.06855   0.33963   0.00000  Uiso   1.00
H146   H     0.51814   0.00676   0.36798   0.00000  Uiso   1.00
H147   H     0.59941   0.02663   0.34143   0.00000  Uiso   1.00
F148   F     0.52673   0.25475   0.38938   0.00000  Uiso   1.00
C149   C     0.84916   0.26650   0.24916   0.00000  Uiso   1.00
C150   C     0.80462   0.15959   0.48722   0.00000  Uiso   1.00
C151   C     0.81536   0.17969   0.43834   0.00000  Uiso   1.00
C152   C     0.84912   0.17801   0.01955   0.00000  Uiso   1.00
C153   C     0.89994   0.21965   0.00455   0.00000  Uiso   1.00
C154   C     0.90167   0.24490   0.46079   0.00000  Uiso   1.00
C155   C     0.86067   0.22527   0.42792   0.00000  Uiso   1.00
C156   C     0.84367   0.15762   0.06696   0.00000  Uiso   1.00
C157   C     0.93716   0.21738   0.08301   0.00000  Uiso   1.00
C158   C     0.77749   0.15635   0.40250   0.00000  Uiso   1.00
C159   C     0.85879   0.32236   0.24731   0.00000  Uiso   1.00
C160   C     0.79964   0.16309   0.34709   0.00000  Uiso   1.00
C161   C     0.81354   0.01090   0.23942   0.00000  Uiso   1.00
C162   C     0.81952   0.06675   0.24566   0.00000  Uiso   1.00
C163   C     0.86627   0.16976   0.15333   0.00000  Uiso   1.00
C164   C     0.94645   0.23763   0.03462   0.00000  Uiso   1.00
C165   C     0.88494   0.17933   0.09944   0.00000  Uiso   1.00
C166   C     0.72011   0.12272   0.41976   0.00000  Uiso   1.00
C167   C     0.70749   0.10567   0.46928   0.00000  Uiso   1.00
C168   C     0.74926   0.12287   0.00209   0.00000  Uiso   1.00
Cu169  Cu    0.77377   0.16105   0.24435   0.00000  Uiso   1.00
Cu170  Cu    0.89290   0.17228   0.25564   0.00000  Uiso   1.00
H171   H     0.96765   0.23331   0.10971   0.00000  Uiso   1.00
H172   H     0.77039   0.32074   0.23038   0.00000  Uiso   1.00
H173   H     0.99386   0.11803   0.22128   0.00000  Uiso   1.00
H174   H     0.93267   0.28176   0.45354   0.00000  Uiso   1.00
H175   H     0.80607   0.12641   0.08103   0.00000  Uiso   1.00
H176   H     0.73560   0.10771   0.03936   0.00000  Uiso   1.00
H177   H     0.99855   0.07792   0.48229   0.00000  Uiso   1.00
H178   H     0.90281   0.01243   0.25458   0.00000  Uiso   1.00
N179   N     0.98241   0.18074   0.26416   0.00000  Uiso   1.00
N180   N     0.68426   0.15259   0.23584   0.00000  Uiso   1.00
O181   O     0.79464   0.23807   0.24633   0.00000  Uiso   1.00
O182   O     0.89524   0.24755   0.25586   0.00000  Uiso   1.00
O183   O     0.75848   0.15960   0.31839   0.00000  Uiso   1.00
O184   O     0.85908   0.16908   0.32793   0.00000  Uiso   1.00
O185   O     0.77142   0.08578   0.24413   0.00000  Uiso   1.00
O186   O     0.87203   0.09526   0.25367   0.00000  Uiso   1.00
O187   O     0.80758   0.16425   0.17207   0.00000  Uiso   1.00
O188   O     0.90819   0.17373   0.18160   0.00000  Uiso   1.00
O189   O     0.67952   0.23036   0.27185   0.00000  Uiso   1.00
C190   C     0.99911   0.24540   0.32385   0.00000  Uiso   1.00
H191   H     0.66821   0.21406   0.34806   0.00000  Uiso   1.00
H192   H     0.95268   0.25521   0.33247   0.00000  Uiso   1.00
C193   C     0.71371   0.29436   0.33534   0.00000  Uiso   1.00
H194   H     0.76036   0.28491   0.32636   0.00000  Uiso   1.00
H195   H     0.71132   0.32647   0.31205   0.00000  Uiso   1.00
C196   C     0.70478   0.31421   0.39055   0.00000  Uiso   1.00
H197   H     0.99643   0.33167   0.39943   0.00000  Uiso   1.00
H198   H     0.74485   0.01236   0.39700   0.00000  Uiso   1.00
H199   H     0.70173   0.28193   0.41550   0.00000  Uiso   1.00
O200   O     0.99708   0.27671   0.01590   0.00000  Uiso   1.00
C201   C     0.71371   0.28431   0.04252   0.00000  Uiso   1.00
H202   H     0.72607   0.24621   0.04751   0.00000  Uiso   1.00
H203   H     0.70129   0.30515   0.07999   0.00000  Uiso   1.00
C204   C     0.77072   0.31844   0.01245   0.00000  Uiso   1.00
H205   H     0.78765   0.29637   0.47705   0.00000  Uiso   1.00
H206   H     0.75801   0.02060   0.00151   0.00000  Uiso   1.00
C207   C     0.82233   0.00178   0.04379   0.00000  Uiso   1.00
H208   H     0.80680   0.02596   0.07820   0.00000  Uiso   1.00
H209   H     0.86373   0.02558   0.02099   0.00000  Uiso   1.00
H210   H     0.83545   0.30011   0.05563   0.00000  Uiso   1.00
O211   O     0.67841   0.10374   0.38712   0.00000  Uiso   1.00
C212   C     0.95295   0.11658   0.40717   0.00000  Uiso   1.00
H213   H     0.94177   0.14102   0.38018   0.00000  Uiso   1.00
H214   H     0.95070   0.14021   0.44404   0.00000  Uiso   1.00
C215   C     0.90231   0.06690   0.41356   0.00000  Uiso   1.00
H216   H     0.91518   0.03901   0.43614   0.00000  Uiso   1.00
H217   H     0.85846   0.07738   0.43453   0.00000  Uiso   1.00
C218   C     0.89090   0.04054   0.36236   0.00000  Uiso   1.00
H219   H     0.87855   0.06855   0.33963   0.00000  Uiso   1.00
H220   H     0.85148   0.00676   0.36798   0.00000  Uiso   1.00
H221   H     0.93275   0.02663   0.34143   0.00000  Uiso   1.00
F222   F     0.86006   0.25475   0.38938   0.00000  Uiso   1.00
C223   C     0.18250   0.59983   0.24916   0.00000  Uiso   1.00
C224   C     0.13795   0.49292   0.48722   0.00000  Uiso   1.00
C225   C     0.14869   0.51302   0.43834   0.00000  Uiso   1.00
C226   C     0.18245   0.51134   0.01955   0.00000  Uiso   1.00
C227   C     0.23327   0.55298   0.00455   0.00000  Uiso   1.00
C228   C     0.23500   0.57823   0.46079   0.00000  Uiso   1.00
C229   C     0.19401   0.55860   0.42792   0.00000  Uiso   1.00
C230   C     0.17700   0.49095   0.06696   0.00000  Uiso   1.00
C231   C     0.27049   0.55072   0.08301   0.00000  Uiso   1.00
C232   C     0.11083   0.48969   0.40250   0.00000  Uiso   1.00
C233   C     0.19212   0.65569   0.24731   0.00000  Uiso   1.00
C234   C     0.13298   0.49642   0.34709   0.00000  Uiso   1.00
C235   C     0.14688   0.34424   0.23942   0.00000  Uiso   1.00
C236   C     0.15285   0.40009   0.24566   0.00000  Uiso   1.00
C237   C     0.19960   0.50309   0.15333   0.00000  Uiso   1.00
C238   C     0.27978   0.57096   0.03462   0.00000  Uiso   1.00
C239   C     0.21828   0.51266   0.09944   0.00000  Uiso   1.00
C240   C     0.05345   0.45605   0.41976   0.00000  Uiso   1.00
C241   C     0.04082   0.43901   0.46928   0.00000  Uiso   1.00
C242   C     0.08260   0.45621   0.00209   0.00000  Uiso   1.00
Cu243  Cu    0.10710   0.49439   0.24435   0.00000  Uiso   1.00
Cu244  Cu    0.22623   0.50561   0.25564   0.00000  Uiso   1.00
H245   H     0.30098   0.56665   0.10971   0.00000  Uiso   1.00
H246   H     0.10372   0.65407   0.23038   0.00000  Uiso   1.00
H247   H     0.32720   0.45137   0.22128   0.00000  Uiso   1.00
H248   H     0.26600   0.61509   0.45354   0.00000  Uiso   1.00
H249   H     0.13940   0.45974   0.08103   0.00000  Uiso   1.00
H250   H     0.06893   0.44105   0.03936   0.00000  Uiso   1.00
H251   H     0.33189   0.41125   0.48229   0.00000  Uiso   1.00
H252   H     0.23615   0.34576   0.25458   0.00000  Uiso   1.00
N253   N     0.31574   0.51407   0.26416   0.00000  Uiso   1.00
N254   N     0.01759   0.48593   0.23584   0.00000  Uiso   1.00
O255   O     0.12797   0.57141   0.24633   0.00000  Uiso   1.00
O256   O     0.22858   0.58089   0.25586   0.00000  Uiso   1.00
O257   O     0.09181   0.49293   0.31839   0.00000  Uiso   1.00
O258   O     0.19242   0.50241   0.32793   0.00000  Uiso   1.00
O259   O     0.10476   0.41911   0.24413   0.00000  Uiso   1.00
O260   O     0.20536   0.42859   0.25367   0.00000  Uiso   1.00
O261   O     0.14092   0.49759   0.17207   0.00000  Uiso   1.00
O262   O     0.24152   0.50707   0.18160   0.00000  Uiso   1.00
O263   O     0.01285   0.56369   0.27185   0.00000  Uiso   1.00
C264   C     0.33245   0.57873   0.32385   0.00000  Uiso   1.00
H265   H     0.00154   0.54739   0.34806   0.00000  Uiso   1.00
H266   H     0.28602   0.58854   0.33247   0.00000  Uiso   1.00
C267   C     0.04704   0.62769   0.33534   0.00000  Uiso   1.00
H268   H     0.09370   0.61825   0.32636   0.00000  Uiso   1.00
H269   H     0.04465   0.65980   0.31205   0.00000  Uiso   1.00
C270   C     0.03812   0.64754   0.39055   0.00000  Uiso   1.00
H271   H     0.32976   0.66500   0.39943   0.00000  Uiso   1.00
H272   H     0.07819   0.34570   0.39700   0.00000  Uiso   1.00
H273   H     0.03506   0.61526   0.41550   0.00000  Uiso   1.00
O274   O     0.33041   0.61004   0.01590   0.00000  Uiso   1.00
C275   C     0.04705   0.61764   0.04252   0.00000  Uiso   1.00
H276   H     0.05940   0.57955   0.04751   0.00000  Uiso   1.00
H277   H     0.03463   0.63848   0.07999   0.00000  Uiso   1.00
C278   C     0.10406   0.65178   0.01245   0.00000  Uiso   1.00
H279   H     0.12098   0.62970   0.47705   0.00000  Uiso   1.00
H280   H     0.09134   0.35393   0.00151   0.00000  Uiso   1.00
C281   C     0.15566   0.33511   0.04379   0.00000  Uiso   1.00
H282   H     0.14014   0.35930   0.07820   0.00000  Uiso   1.00
H283   H     0.19707   0.35891   0.02099   0.00000  Uiso   1.00
H284   H     0.16878   0.63344   0.05563   0.00000  Uiso   1.00
O285   O     0.01174   0.43707   0.38712   0.00000  Uiso   1.00
C286   C     0.28628   0.44991   0.40717   0.00000  Uiso   1.00
H287   H     0.27510   0.47436   0.38018   0.00000  Uiso   1.00
H288   H     0.28404   0.47355   0.44404   0.00000  Uiso   1.00
C289   C     0.23564   0.40024   0.41356   0.00000  Uiso   1.00
H290   H     0.24852   0.37235   0.43614   0.00000  Uiso   1.00
H291   H     0.19180   0.41072   0.43453   0.00000  Uiso   1.00
C292   C     0.22423   0.37388   0.36236   0.00000  Uiso   1.00
H293   H     0.21188   0.40188   0.33963   0.00000  Uiso   1.00
H294   H     0.18481   0.34010   0.36798   0.00000  Uiso   1.00
H295   H     0.26608   0.35997   0.34143   0.00000  Uiso   1.00
F296   F     0.19340   0.58808   0.38938   0.00000  Uiso   1.00
C297   C     0.51583   0.59983   0.24916   0.00000  Uiso   1.00
C298   C     0.47128   0.49292   0.48722   0.00000  Uiso   1.00
C299   C     0.48203   0.51302   0.43834   0.00000  Uiso   1.00
C300   C     0.51579   0.51134   0.01955   0.00000  Uiso   1.00
C301   C     0.56661   0.55298   0.00455   0.00000  Uiso   1.00
C302   C     0.56834   0.57823   0.46079   0.00000  Uiso   1.00
C303   C     0.52734   0.55860   0.42792   0.00000  Uiso   1.00
C304   C     0.51033   0.49095   0.06696   0.00000  Uiso   1.00
C305   C     0.60383   0.55072   0.08301   0.00000  Uiso   1.00
C306   C     0.44416   0.48969   0.40250   0.00000  Uiso   1.00
C307   C     0.52546   0.65569   0.24731   0.00000  Uiso   1.00
C308   C     0.46631   0.49642   0.34709   0.00000  Uiso   1.00
C309   C     0.48021   0.34424   0.23942   0.00000  Uiso   1.00
C310   C     0.48618   0.40009   0.24566   0.00000  Uiso   1.00
C311   C     0.53294   0.50309   0.15333   0.00000  Uiso   1.00
C312   C     0.61311   0.57096   0.03462   0.00000  Uiso   1.00
C313   C     0.55161   0.51266   0.09944   0.00000  Uiso   1.00
C314   C     0.38678   0.45605   0.41976   0.00000  Uiso   1.00
C315   C     0.37416   0.43901   0.46928   0.00000  Uiso   1.00
C316   C     0.41593   0.45621   0.00209   0.00000  Uiso   1.00
Cu317  Cu    0.44043   0.49439   0.24435   0.00000  Uiso   1.00
Cu318  Cu    0.55957   0.50561   0.25564   0.00000  Uiso   1.00
H319   H     0.63432   0.56665   0.10971   0.00000  Uiso   1.00
H320   H     0.43706   0.65407   0.23038   0.00000  Uiso   1.00
H321   H     0.66053   0.45137   0.22128   0.00000  Uiso   1.00
H322   H     0.59933   0.61509   0.45354   0.00000  Uiso   1.00
H323   H     0.47273   0.45974   0.08103   0.00000  Uiso   1.00
H324   H     0.40227   0.44105   0.03936   0.00000  Uiso   1.00
H325   H     0.66522   0.41125   0.48229   0.00000  Uiso   1.00
H326   H     0.56948   0.34576   0.25458   0.00000  Uiso   1.00
N327   N     0.64908   0.51407   0.26416   0.00000  Uiso   1.00
N328   N     0.35092   0.48593   0.23584   0.00000  Uiso   1.00
O329   O     0.46131   0.57141   0.24633   0.00000  Uiso   1.00
O330   O     0.56191   0.58089   0.25586   0.00000  Uiso   1.00
O331   O     0.42515   0.49293   0.31839   0.00000  Uiso   1.00
O332   O     0.52575   0.50241   0.32793   0.00000  Uiso   1.00
O333   O     0.43809   0.41911   0.24413   0.00000  Uiso   1.00
O334   O     0.53869   0.42859   0.25367   0.00000  Uiso   1.00
O335   O     0.47425   0.49759   0.17207   0.00000  Uiso   1.00
O336   O     0.57485   0.50707   0.18160   0.00000  Uiso   1.00
O337   O     0.34619   0.56369   0.27185   0.00000  Uiso   1.00
C338   C     0.66578   0.57873   0.32385   0.00000  Uiso   1.00
H339   H     0.33488   0.54739   0.34806   0.00000  Uiso   1.00
H340   H     0.61935   0.58854   0.33247   0.00000  Uiso   1.00
C341   C     0.38037   0.62769   0.33534   0.00000  Uiso   1.00
H342   H     0.42703   0.61825   0.32636   0.00000  Uiso   1.00
H343   H     0.37799   0.65980   0.31205   0.00000  Uiso   1.00
C344   C     0.37145   0.64754   0.39055   0.00000  Uiso   1.00
H345   H     0.66309   0.66500   0.39943   0.00000  Uiso   1.00
H346   H     0.41152   0.34570   0.39700   0.00000  Uiso   1.00
H347   H     0.36840   0.61526   0.41550   0.00000  Uiso   1.00
O348   O     0.66375   0.61004   0.01590   0.00000  Uiso   1.00
C349   C     0.38038   0.61764   0.04252   0.00000  Uiso   1.00
H350   H     0.39273   0.57955   0.04751   0.00000  Uiso   1.00
H351   H     0.36796   0.63848   0.07999   0.00000  Uiso   1.00
C352   C     0.43739   0.65178   0.01245   0.00000  Uiso   1.00
H353   H     0.45432   0.62970   0.47705   0.00000  Uiso   1.00
H354   H     0.42468   0.35393   0.00151   0.00000  Uiso   1.00
C355   C     0.48899   0.33511   0.04379   0.00000  Uiso   1.00
H356   H     0.47347   0.35930   0.07820   0.00000  Uiso   1.00
H357   H     0.53040   0.35891   0.02099   0.00000  Uiso   1.00
H358   H     0.50211   0.63344   0.05563   0.00000  Uiso   1.00
O359   O     0.34508   0.43707   0.38712   0.00000  Uiso   1.00
C360   C     0.61961   0.44991   0.40717   0.00000  Uiso   1.00
H361   H     0.60844   0.47436   0.38018   0.00000  Uiso   1.00
H362   H     0.61737   0.47355   0.44404   0.00000  Uiso   1.00
C363   C     0.56898   0.40024   0.41356   0.00000  Uiso   1.00
H364   H     0.58185   0.37235   0.43614   0.00000  Uiso   1.00
H365   H     0.52513   0.41072   0.43453   0.00000  Uiso   1.00
C366   C     0.55756   0.37388   0.36236   0.00000  Uiso   1.00
H367   H     0.54521   0.40188   0.33963   0.00000  Uiso   1.00
H368   H     0.51814   0.34010   0.36798   0.00000  Uiso   1.00
H369   H     0.59941   0.35997   0.34143   0.00000  Uiso   1.00
F370   F     0.52673   0.58808   0.38938   0.00000  Uiso   1.00
C371   C     0.84916   0.59983   0.24916   0.00000  Uiso   1.00
C372   C     0.80462   0.49292   0.48722   0.00000  Uiso   1.00
C373   C     0.81536   0.51302   0.43834   0.00000  Uiso   1.00
C374   C     0.84912   0.51134   0.01955   0.00000  Uiso   1.00
C375   C     0.89994   0.55298   0.00455   0.00000  Uiso   1.00
C376   C     0.90167   0.57823   0.46079   0.00000  Uiso   1.00
C377   C     0.86067   0.55860   0.42792   0.00000  Uiso   1.00
C378   C     0.84367   0.49095   0.06696   0.00000  Uiso   1.00
C379   C     0.93716   0.55072   0.08301   0.00000  Uiso   1.00
C380   C     0.77749   0.48969   0.40250   0.00000  Uiso   1.00
C381   C     0.85879   0.65569   0.24731   0.00000  Uiso   1.00
C382   C     0.79964   0.49642   0.34709   0.00000  Uiso   1.00
C383   C     0.81354   0.34424   0.23942   0.00000  Uiso   1.00
C384   C     0.81952   0.40009   0.24566   0.00000  Uiso   1.00
C385   C     0.86627   0.50309   0.15333   0.00000  Uiso   1.00
C386   C     0.94645   0.57096   0.03462   0.00000  Uiso   1.00
C387   C     0.88494   0.51266   0.09944   0.00000  Uiso   1.00
C388   C     0.72011   0.45605   0.41976   0.00000  Uiso   1.00
C389   C     0.70749   0.43901   0.46928   0.00000  Uiso   1.00
C390   C     0.74926   0.45621   0.00209   0.00000  Uiso   1.00
Cu391  Cu    0.77377   0.49439   0.24435   0.00000  Uiso   1.00
Cu392  Cu    0.89290   0.50561   0.25564   0.00000  Uiso   1.00
H393   H     0.96765   0.56665   0.10971   0.00000  Uiso   1.00
H394   H     0.77039   0.65407   0.23038   0.00000  Uiso   1.00
H395   H     0.99386   0.45137   0.22128   0.00000  Uiso   1.00
H396   H     0.93267   0.61509   0.45354   0.00000  Uiso   1.00
H397   H     0.80607   0.45974   0.08103   0.00000  Uiso   1.00
H398   H     0.73560   0.44105   0.03936   0.00000  Uiso   1.00
H399   H     0.99855   0.41125   0.48229   0.00000  Uiso   1.00
H400   H     0.90281   0.34576   0.25458   0.00000  Uiso   1.00
N401   N     0.98241   0.51407   0.26416   0.00000  Uiso   1.00
N402   N     0.68426   0.48593   0.23584   0.00000  Uiso   1.00
O403   O     0.79464   0.57141   0.24633   0.00000  Uiso   1.00
O404   O     0.89524   0.58089   0.25586   0.00000  Uiso   1.00
O405   O     0.75848   0.49293   0.31839   0.00000  Uiso   1.00
O406   O     0.85908   0.50241   0.32793   0.00000  Uiso   1.00
O407   O     0.77142   0.41911   0.24413   0.00000  Uiso   1.00
O408   O     0.87203   0.42859   0.25367   0.00000  Uiso   1.00
O409   O     0.80758   0.49759   0.17207   0.00000  Uiso   1.00
O410   O     0.90819   0.50707   0.18160   0.00000  Uiso   1.00
O411   O     0.67952   0.56369   0.27185   0.00000  Uiso   1.00
C412   C     0.99911   0.57873   0.32385   0.00000  Uiso   1.00
H413   H     0.66821   0.54739   0.34806   0.00000  Uiso   1.00
H414   H     0.95268   0.58854   0.33247   0.00000  Uiso   1.00
C415   C     0.71371   0.62769   0.33534   0.00000  Uiso   1.00
H416   H     0.76036   0.61825   0.32636   0.00000  Uiso   1.00
H417   H     0.71132   0.65980   0.31205   0.00000  Uiso   1.00
C418   C     0.70478   0.64754   0.39055   0.00000  Uiso   1.00
H419   H     0.99643   0.66500   0.39943   0.00000  Uiso   1.00
H420   H     0.74485   0.34570   0.39700   0.00000  Uiso   1.00
H421   H     0.70173   0.61526   0.41550   0.00000  Uiso   1.00
O422   O     0.99708   0.61004   0.01590   0.00000  Uiso   1.00
C423   C     0.71371   0.61764   0.04252   0.00000  Uiso   1.00
H424   H     0.72607   0.57955   0.04751   0.00000  Uiso   1.00
H425   H     0.70129   0.63848   0.07999   0.00000  Uiso   1.00
C426   C     0.77072   0.65178   0.01245   0.00000  Uiso   1.00
H427   H     0.78765   0.62970   0.47705   0.00000  Uiso   1.00
H428   H     0.75801   0.35393   0.00151   0.00000  Uiso   1.00
C429   C     0.82233   0.33511   0.04379   0.00000  Uiso   1.00
H430   H     0.80680   0.35930   0.07820   0.00000  Uiso   1.00
H431   H     0.86373   0.35891   0.02099   0.00000  Uiso   1.00
H432   H     0.83545   0.63344   0.05563   0.00000  Uiso   1.00
O433   O     0.67841   0.43707   0.38712   0.00000  Uiso   1.00
C434   C     0.95295   0.44991   0.40717   0.00000  Uiso   1.00
H435   H     0.94177   0.47436   0.38018   0.00000  Uiso   1.00
H436   H     0.95070   0.47355   0.44404   0.00000  Uiso   1.00
C437   C     0.90231   0.40024   0.41356   0.00000  Uiso   1.00
H438   H     0.91518   0.37235   0.43614   0.00000  Uiso   1.00
H439   H     0.85846   0.41072   0.43453   0.00000  Uiso   1.00
C440   C     0.89090   0.37388   0.36236   0.00000  Uiso   1.00
H441   H     0.87855   0.40188   0.33963   0.00000  Uiso   1.00
H442   H     0.85148   0.34010   0.36798   0.00000  Uiso   1.00
H443   H     0.93275   0.35997   0.34143   0.00000  Uiso   1.00
F444   F     0.86006   0.58808   0.38938   0.00000  Uiso   1.00
C445   C     0.18250   0.93317   0.24916   0.00000  Uiso   1.00
C446   C     0.13795   0.82626   0.48722   0.00000  Uiso   1.00
C447   C     0.14869   0.84636   0.43834   0.00000  Uiso   1.00
C448   C     0.18245   0.84468   0.01955   0.00000  Uiso   1.00
C449   C     0.23327   0.88631   0.00455   0.00000  Uiso   1.00
C450   C     0.23500   0.91156   0.46079   0.00000  Uiso   1.00
C451   C     0.19401   0.89194   0.42792   0.00000  Uiso   1.00
C452   C     0.17700   0.82428   0.06696   0.00000  Uiso   1.00
C453   C     0.27049   0.88405   0.08301   0.00000  Uiso   1.00
C454   C     0.11083   0.82302   0.40250   0.00000  Uiso   1.00
C455   C     0.19212   0.98902   0.24731   0.00000  Uiso   1.00
C456   C     0.13298   0.82976   0.34709   0.00000  Uiso   1.00
C457   C     0.14688   0.67757   0.23942   0.00000  Uiso   1.00
C458   C     0.15285   0.73342   0.24566   0.00000  Uiso   1.00
C459   C     0.19960   0.83642   0.15333   0.00000  Uiso   1.00
C460   C     0.27978   0.90429   0.03462   0.00000  Uiso   1.00
C461   C     0.21828   0.84599   0.09944   0.00000  Uiso   1.00
C462   C     0.05345   0.78939   0.41976   0.00000  Uiso   1.00
C463   C     0.04082   0.77234   0.46928   0.00000  Uiso   1.00
C464   C     0.08260   0.78954   0.00209   0.00000  Uiso   1.00
Cu465  Cu    0.10710   0.82772   0.24435   0.00000  Uiso   1.00
Cu466  Cu    0.22623   0.83895   0.25564   0.00000  Uiso   1.00
H467   H     0.30098   0.89998   0.10971   0.00000  Uiso   1.00
H468   H     0.10372   0.98741   0.23038   0.00000  Uiso   1.00
H469   H     0.32720   0.78470   0.22128   0.00000  Uiso   1.00
H470   H     0.26600   0.94842   0.45354   0.00000  Uiso   1.00
H471   H     0.13940   0.79307   0.08103   0.00000  Uiso   1.00
H472   H     0.06893   0.77438   0.03936   0.00000  Uiso   1.00
H473   H     0.33189   0.74459   0.48229   0.00000  Uiso   1.00
H474   H     0.23615   0.67909   0.25458   0.00000  Uiso   1.00
N475   N     0.31574   0.84741   0.26416   0.00000  Uiso   1.00
N476   N     0.01759   0.81926   0.23584   0.00000  Uiso   1.00
O477   O     0.12797   0.90474   0.24633   0.00000  Uiso   1.00
O478   O     0.22858   0.91422   0.25586   0.00000  Uiso   1.00
O479   O     0.09181   0.82627   0.31839   0.00000  Uiso   1.00
O480   O     0.19242   0.83575   0.32793   0.00000  Uiso   1.00
O481   O     0.10476   0.75245   0.24413   0.00000  Uiso   1.00
O482   O     0.20536   0.76193   0.25367   0.00000  Uiso   1.00
O483   O     0.14092   0.83092   0.17207   0.00000  Uiso   1.00
O484   O     0.24152   0.84040   0.18160   0.00000  Uiso   1.00
O485   O     0.01285   0.89703   0.27185   0.00000  Uiso   1.00
C486   C     0.33245   0.91206   0.32385   0.00000  Uiso   1.00
H487   H     0.00154   0.88073   0.34806   0.00000  Uiso   1.00
H488   H     0.28602   0.92187   0.33247   0.00000  Uiso   1.00
C489   C     0.04704   0.96102   0.33534   0.00000  Uiso   1.00
H490   H     0.09370   0.95158   0.32636   0.00000  Uiso   1.00
H491   H     0.04465   0.99313   0.31205   0.00000  Uiso   1.00
C492   C     0.03812   0.98088   0.39055   0.00000  Uiso   1.00
H493   H     0.32976   0.99834   0.39943   0.00000  Uiso   1.00
H494   H     0.07819   0.67903   0.39700   0.00000  Uiso   1.00
H495   H     0.03506   0.94859   0.41550   0.00000  Uiso   1.00
O496   O     0.33041   0.94337   0.01590   0.00000  Uiso   1.00
C497   C     0.04705   0.95098   0.04252   0.00000  Uiso   1.00
H498   H     0.05940   0.91288   0.04751   0.00000  Uiso   1.00
H499   H     0.03463   0.97181   0.07999   0.00000  Uiso   1.00
C500   C     0.10406   0.98511   0.01245   0.00000  Uiso   1.00
H501   H     0.12098   0.96303   0.47705   0.00000  Uiso   1.00
H502   H     0.09134   0.68726   0.00151   0.00000  Uiso   1.00
C503   C     0.15566   0.66845   0.04379   0.00000  Uiso   1.00
H504   H     0.14014   0.69263   0.07820   0.00000  Uiso   1.00
H505   H     0.19707   0.69224   0.02099   0.00000  Uiso   1.00
H506   H     0.16878   0.96677   0.05563   0.00000  Uiso   1.00
O507   O     0.01174   0.77040   0.38712   0.00000  Uiso   1.00
C508   C     0.28628   0.78324   0.40717   0.00000  Uiso   1.00
H509   H     0.27510   0.80769   0.38018   0.00000  Uiso   1.00
H510   H     0.28404   0.80688   0.44404   0.00000  Uiso   1.00
C511   C     0.23564   0.73357   0.41356   0.00000  Uiso   1.00
H512   H     0.24852   0.70568   0.43614   0.00000  Uiso   1.00
H513   H     0.19180   0.74405   0.43453   0.00000  Uiso   1.00
C514   C     0.22423   0.70721   0.36236   0.00000  Uiso   1.00
H515   H     0.21188   0.73521   0.33963   0.00000  Uiso   1.00
H516   H     0.18481   0.67343   0.36798   0.00000  Uiso   1.00
H517   H     0.26608   0.69330   0.34143   0.00000  Uiso   1.00
F518   F     0.19340   0.92141   0.38938   0.00000  Uiso   1.00
C519   C     0.51583   0.93317   0.24916   0.00000  Uiso   1.00
C520   C     0.47128   0.82626   0.48722   0.00000  Uiso   1.00
C521   C     0.48203   0.84636   0.43834   0.00000  Uiso   1.00
C522   C     0.51579   0.84468   0.01955   0.00000  Uiso   1.00
C523   C     0.56661   0.88631   0.00455   0.00000  Uiso   1.00
C524   C     0.56834   0.91156   0.46079   0.00000  Uiso   1.00
C525   C     0.52734   0.89194   0.42792   0.00000  Uiso   1.00
C526   C     0.51033   0.82428   0.06696   0.00000  Uiso   1.00
C527   C     0.60383   0.88405   0.08301   0.00000  Uiso   1.00
C528   C     0.44416   0.82302   0.40250   0.00000  Uiso   1.00
C529   C     0.52546   0.98902   0.24731   0.00000  Uiso   1.00
C530   C     0.46631   0.82976   0.34709   0.00000  Uiso   1.00
C531   C     0.48021   0.67757   0.23942   0.00000  Uiso   1.00
C532   C     0.48618   0.73342   0.24566   0.00000  Uiso   1.00
C533   C     0.53294   0.83642   0.15333   0.00000  Uiso   1.00
C534   C     0.61311   0.90429   0.03462   0.00000  Uiso   1.00
C535   C     0.55161   0.84599   0.09944   0.00000  Uiso   1.00
C536   C     0.38678   0.78939   0.41976   0.00000  Uiso   1.00
C537   C     0.37416   0.77234   0.46928   0.00000  Uiso   1.00
C538   C     0.41593   0.78954   0.00209   0.00000  Uiso   1.00
Cu539  Cu    0.44043   0.82772   0.24435   0.00000  Uiso   1.00
Cu540  Cu    0.55957   0.83895   0.25564   0.00000  Uiso   1.00
H541   H     0.63432   0.89998   0.10971   0.00000  Uiso   1.00
H542   H     0.43706   0.98741   0.23038   0.00000  Uiso   1.00
H543   H     0.66053   0.78470   0.22128   0.00000  Uiso   1.00
H544   H     0.59933   0.94842   0.45354   0.00000  Uiso   1.00
H545   H     0.47273   0.79307   0.08103   0.00000  Uiso   1.00
H546   H     0.40227   0.77438   0.03936   0.00000  Uiso   1.00
H547   H     0.66522   0.74459   0.48229   0.00000  Uiso   1.00
H548   H     0.56948   0.67909   0.25458   0.00000  Uiso   1.00
N549   N     0.64908   0.84741   0.26416   0.00000  Uiso   1.00
N550   N     0.35092   0.81926   0.23584   0.00000  Uiso   1.00
O551   O     0.46131   0.90474   0.24633   0.00000  Uiso   1.00
O552   O     0.56191   0.91422   0.25586   0.00000  Uiso   1.00
O553   O     0.42515   0.82627   0.31839   0.00000  Uiso   1.00
O554   O     0.52575   0.83575   0.32793   0.00000  Uiso   1.00
O555   O     0.43809   0.75245   0.24413   0.00000  Uiso   1.00
O556   O     0.53869   0.76193   0.25367   0.00000  Uiso   1.00
O557   O     0.47425   0.83092   0.17207   0.00000  Uiso   1.00
O558   O     0.57485   0.84040   0.18160   0.00000  Uiso   1.00
O559   O     0.34619   0.89703   0.27185   0.00000  Uiso   1.00
C560   C     0.66578   0.91206   0.32385   0.00000  Uiso   1.00
H561   H     0.33488   0.88073   0.34806   0.00000  Uiso   1.00
H562   H     0.61935   0.92187   0.33247   0.00000  Uiso   1.00
C563   C     0.38037   0.96102   0.33534   0.00000  Uiso   1.00
H564   H     0.42703   0.95158   0.32636   0.00000  Uiso   1.00
H565   H     0.37799   0.99313   0.31205   0.00000  Uiso   1.00
C566   C     0.37145   0.98088   0.39055   0.00000  Uiso   1.00
H567   H     0.66309   0.99834   0.39943   0.00000  Uiso   1.00
H568   H     0.41152   0.67903   0.39700   0.00000  Uiso   1.00
H569   H     0.36840   0.94859   0.41550   0.00000  Uiso   1.00
O570   O     0.66375   0.94337   0.01590   0.00000  Uiso   1.00
C571   C     0.38038   0.95098   0.04252   0.00000  Uiso   1.00
H572   H     0.39273   0.91288   0.04751   0.00000  Uiso   1.00
H573   H     0.36796   0.97181   0.07999   0.00000  Uiso   1.00
C574   C     0.43739   0.98511   0.01245   0.00000  Uiso   1.00
H575   H     0.45432   0.96303   0.47705   0.00000  Uiso   1.00
H576   H     0.42468   0.68726   0.00151   0.00000  Uiso   1.00
C577   C     0.48899   0.66845   0.04379   0.00000  Uiso   1.00
H578   H     0.47347   0.69263   0.07820   0.00000  Uiso   1.00
H579   H     0.53040   0.69224   0.02099   0.00000  Uiso   1.00
H580   H     0.50211   0.96677   0.05563   0.00000  Uiso   1.00
O581   O     0.34508   0.77040   0.38712   0.00000  Uiso   1.00
C582   C     0.61961   0.78324   0.40717   0.00000  Uiso   1.00
H583   H     0.60844   0.80769   0.38018   0.00000  Uiso   1.00
H584   H     0.61737   0.80688   0.44404   0.00000  Uiso   1.00
C585   C     0.56898   0.73357   0.41356   0.00000  Uiso   1.00
H586   H     0.58185   0.70568   0.43614   0.00000  Uiso   1.00
H587   H     0.52513   0.74405   0.43453   0.00000  Uiso   1.00
C588   C     0.55756   0.70721   0.36236   0.00000  Uiso   1.00
H589   H     0.54521   0.73521   0.33963   0.00000  Uiso   1.00
H590   H     0.51814   0.67343   0.36798   0.00000  Uiso   1.00
H591   H     0.59941   0.69330   0.34143   0.00000  Uiso   1.00
F592   F     0.52673   0.92141   0.38938   0.00000  Uiso   1.00
C593   C     0.84916   0.93317   0.24916   0.00000  Uiso   1.00
C594   C     0.80462   0.82626   0.48722   0.00000  Uiso   1.00
C595   C     0.81536   0.84636   0.43834   0.00000  Uiso   1.00
C596   C     0.84912   0.84468   0.01955   0.00000  Uiso   1.00
C597   C     0.89994   0.88631   0.00455   0.00000  Uiso   1.00
C598   C     0.90167   0.91156   0.46079   0.00000  Uiso   1.00
C599   C     0.86067   0.89194   0.42792   0.00000  Uiso   1.00
C600   C     0.84367   0.82428   0.06696   0.00000  Uiso   1.00
C601   C     0.93716   0.88405   0.08301   0.00000  Uiso   1.00
C602   C     0.77749   0.82302   0.40250   0.00000  Uiso   1.00
C603   C     0.85879   0.98902   0.24731   0.00000  Uiso   1.00
C604   C     0.79964   0.82976   0.34709   0.00000  Uiso   1.00
C605   C     0.81354   0.67757   0.23942   0.00000  Uiso   1.00
C606   C     0.81952   0.73342   0.24566   0.00000  Uiso   1.00
C607   C     0.86627   0.83642   0.15333   0.00000  Uiso   1.00
C608   C     0.94645   0.90429   0.03462   0.00000  Uiso   1.00
C609   C     0.88494   0.84599   0.09944   0.00000  Uiso   1.00
C610   C     0.72011   0.78939   0.41976   0.00000  Uiso   1.00
C611   C     0.70749   0.77234   0.46928   0.00000  Uiso   1.00
C612   C     0.74926   0.78954   0.00209   0.00000  Uiso   1.00
Cu613  Cu    0.77377   0.82772   0.24435   0.00000  Uiso   1.00
Cu614  Cu    0.89290   0.83895   0.25564   0.00000  Uiso   1.00
H615   H     0.96765   0.89998   0.10971   0.00000  Uiso   1.00
H616   H     0.77039   0.98741   0.23038   0.00000  Uiso   1.00
H617   H     0.99386   0.78470   0.22128   0.00000  Uiso   1.00
H618   H     0.93267   0.94842   0.45354   0.00000  Uiso   1.00
H619   H     0.80607   0.79307   0.08103   0.00000  Uiso   1.00
H620   H     0.73560   0.77438   0.03936   0.00000  Uiso   1.00
H621   H     0.99855   0.74459   0.48229   0.00000  Uiso   1.00
H622   H     0.90281   0.67909   0.25458   0.00000  Uiso   1.00
N623   N     0.98241   0.84741   0.26416   0.00000  Uiso   1.00
N624   N     0.68426   0.81926   0.23584   0.00000  Uiso   1.00
O625   O     0.79464   0.90474   0.24633   0.00000  Uiso   1.00
O626   O     0.89524   0.91422   0.25586   0.00000  Uiso   1.00
O627   O     0.75848   0.82627   0.31839   0.00000  Uiso   1.00
O628   O     0.85908   0.83575   0.32793   0.00000  Uiso   1.00
O629   O     0.77142   0.75245   0.24413   0.00000  Uiso   1.00
O630   O     0.87203   0.76193   0.25367   0.00000  Uiso   1.00
O631   O     0.80758   0.83092   0.17207   0.00000  Uiso   1.00
O632   O     0.90819   0.84040   0.18160   0.00000  Uiso   1.00
O633   O     0.67952   0.89703   0.27185   0.00000  Uiso   1.00
C634   C     0.99911   0.91206   0.32385   0.00000  Uiso   1.00
H635   H     0.66821   0.88073   0.34806   0.00000  Uiso   1.00
H636   H     0.95268   0.92187   0.33247   0.00000  Uiso   1.00
C637   C     0.71371   0.96102   0.33534   0.00000  Uiso   1.00
H638   H     0.76036   0.95158   0.32636   0.00000  Uiso   1.00
H639   H     0.71132   0.99313   0.31205   0.00000  Uiso   1.00
C640   C     0.70478   0.98088   0.39055   0.00000  Uiso   1.00
H641   H     0.99643   0.99834   0.39943   0.00000  Uiso   1.00
H642   H     0.74485   0.67903   0.39700   0.00000  Uiso   1.00
H643   H     0.70173   0.94859   0.41550   0.00000  Uiso   1.00
O644   O     0.99708   0.94337   0.01590   0.00000  Uiso   1.00
C645   C     0.71371   0.95098   0.04252   0.00000  Uiso   1.00
H646   H     0.72607   0.91288   0.04751   0.00000  Uiso   1.00
H647   H     0.70129   0.97181   0.07999   0.00000  Uiso   1.00
C648   C     0.77072   0.98511   0.01245   0.00000  Uiso   1.00
H649   H     0.78765   0.96303   0.47705   0.00000  Uiso   1.00
H650   H     0.75801   0.68726   0.00151   0.00000  Uiso   1.00
C651   C     0.82233   0.66845   0.04379   0.00000  Uiso   1.00
H652   H     0.80680   0.69263   0.07820   0.00000  Uiso   1.00
H653   H     0.86373   0.69224   0.02099   0.00000  Uiso   1.00
H654   H     0.83545   0.96677   0.05563   0.00000  Uiso   1.00
O655   O     0.67841   0.77040   0.38712   0.00000  Uiso   1.00
C656   C     0.95295   0.78324   0.40717   0.00000  Uiso   1.00
H657   H     0.94177   0.80769   0.38018   0.00000  Uiso   1.00
H658   H     0.95070   0.80688   0.44404   0.00000  Uiso   1.00
C659   C     0.90231   0.73357   0.41356   0.00000  Uiso   1.00
H660   H     0.91518   0.70568   0.43614   0.00000  Uiso   1.00
H661   H     0.85846   0.74405   0.43453   0.00000  Uiso   1.00
C662   C     0.89090   0.70721   0.36236   0.00000  Uiso   1.00
H663   H     0.87855   0.73521   0.33963   0.00000  Uiso   1.00
H664   H     0.85148   0.67343   0.36798   0.00000  Uiso   1.00
H665   H     0.93275   0.69330   0.34143   0.00000  Uiso   1.00
F666   F     0.86006   0.92141   0.38938   0.00000  Uiso   1.00
C667   C     0.18250   0.26650   0.74916   0.00000  Uiso   1.00
C668   C     0.13795   0.15959   0.98722   0.00000  Uiso   1.00
C669   C     0.14869   0.17969   0.93834   0.00000  Uiso   1.00
C670   C     0.18245   0.17801   0.51955   0.00000  Uiso   1.00
C671   C     0.23327   0.21965   0.50455   0.00000  Uiso   1.00
C672   C     0.23500   0.24490   0.96079   0.00000  Uiso   1.00
C673   C     0.19401   0.22527   0.92792   0.00000  Uiso   1.00
C674   C     0.17700   0.15762   0.56696   0.00000  Uiso   1.00
C675   C     0.27049   0.21738   0.58301   0.00000  Uiso   1.00
C676   C     0.11083   0.15635   0.90250   0.00000  Uiso   1.00
C677   C     0.19212   0.32236   0.74731   0.00000  Uiso   1.00
C678   C     0.13298   0.16309   0.84709   0.00000  Uiso   1.00
C679   C     0.14688   0.01090   0.73942   0.00000  Uiso   1.00
C680   C     0.15285   0.06675   0.74566   0.00000  Uiso   1.00
C681   C     0.19960   0.16976   0.65333   0.00000  Uiso   1.00
C682   C     0.27978   0.23763   0.53462   0.00000  Uiso   1.00
C683   C     0.21828   0.17933   0.59944   0.00000  Uiso   1.00
C684   C     0.05345   0.12272   0.91976   0.00000  Uiso   1.00
C685   C     0.04082   0.10567   0.96928   0.00000  Uiso   1.00
C686   C     0.08260   0.12287   0.50209   0.00000  Uiso   1.00
Cu687  Cu    0.10710   0.16105   0.74435   0.00000  Uiso   1.00
Cu688  Cu    0.22623   0.17228   0.75564   0.00000  Uiso   1.00
H689   H     0.30098   0.23331   0.60971   0.00000  Uiso   1.00
H690   H     0.10372   0.32074   0.73038   0.00000  Uiso   1.00
H691   H     0.32720   0.11803   0.72128   0.00000  Uiso   1.00
H692   H     0.26600   0.28176   0.95354   0.00000  Uiso   1.00
H693   H     0.13940   0.12641   0.58103   0.00000  Uiso   1.00
H694   H     0.06893   0.10771   0.53936   0.00000  Uiso   1.00
H695   H     0.33189   0.07792   0.98229   0.00000  Uiso   1.00
H696   H     0.23615   0.01243   0.75458   0.00000  Uiso   1.00
N697   N     0.31574   0.18074   0.76416   0.00000  Uiso   1.00
N698   N     0.01759   0.15259   0.73584   0.00000  Uiso   1.00
O699   O     0.12797   0.23807   0.74633   0.00000  Uiso   1.00
O700   O     0.22858   0.24755   0.75586   0.00000  Uiso   1.00
O701   O     0.09181   0.15960   0.81839   0.00000  Uiso   1.00
O702   O     0.19242   0.16908   0.82793   0.00000  Uiso   1.00
O703   O     0.10476   0.08578   0.74413   0.00000  Uiso   1.00
O704   O     0.20536   0.09526   0.75367   0.00000  Uiso   1.00
O705   O     0.14092   0.16425   0.67207   0.00000  Uiso   1.00
O706   O     0.24152   0.17373   0.68160   0.00000  Uiso   1.00
O707   O     0.01285   0.23036   0.77185   0.00000  Uiso   1.00
C708   C     0.33245   0.24540   0.82385   0.00000  Uiso   1.00
H709   H     0.00154   0.21406   0.84806   0.00000  Uiso   1.00
H710   H     0.28602   0.25521   0.83247   0.00000  Uiso   1.00
C711   C     0.04704   0.29436   0.83534   0.00000  Uiso   1.00
H712   H     0.09370   0.28491   0.82636   0.00000  Uiso   1.00
H713   H     0.04465   0.32647   0.81205   0.00000  Uiso   1.00
C714   C     0.03812   0.31421   0.89055   0.00000  Uiso   1.00
H715   H     0.32976   0.33167   0.89943   0.00000  Uiso   1.00
H716   H     0.07819   0.01236   0.89700   0.00000  Uiso   1.00
H717   H     0.03506   0.28193   0.91550   0.00000  Uiso   1.00
O718   O     0.33041   0.27671   0.51590   0.00000  Uiso   1.00
C719   C     0.04705   0.28431   0.54252   0.00000  Uiso   1.00
H720   H     0.05940   0.24621   0.54751   0.00000  Uiso   1.00
H721   H     0.03463   0.30515   0.57999   0.00000  Uiso   1.00
C722   C     0.10406   0.31844   0.51245   0.00000  Uiso   1.00
H723   H     0.12098   0.29637   0.97705   0.00000  Uiso   1.00
H724   H     0.09134   0.02060   0.50151   0.00000  Uiso   1.00
C725   C     0.15566   0.00178   0.54379   0.00000  Uiso   1.00
H726   H     0.14014   0.02596   0.57820   0.00000  Uiso   1.00
H727   H     0.19707   0.02558   0.52099   0.00000  Uiso   1.00
H728   H     0.16878   0.30011   0.55563   0.00000  Uiso   1.00
O729   O     0.01174   0.10374   0.88712   0.00000  Uiso   1.00
C730   C     0.28628   0.11658   0.90717   0.00000  Uiso   1.00
H731   H     0.27510   0.14102   0.88018   0.00000  Uiso   1.00
H732   H     0.28404   0.14021   0.94404   0.00000  Uiso   1.00
C733   C     0.23564   0.06690   0.91356   0.00000  Uiso   1.00
H734   H     0.24852   0.03901   0.93614   0.00000  Uiso   1.00
H735   H     0.19180   0.07738   0.93453   0.00000  Uiso   1.00
C736   C     0.22423   0.04054   0.86236   0.00000  Uiso   1.00
H737   H     0.21188   0.06855   0.83963   0.00000  Uiso   1.00
H738   H     0.18481   0.00676   0.86798   0.00000  Uiso   1.00
H739   H     0.26608   0.02663   0.84143   0.00000  Uiso   1.00
F740   F     0.19340   0.25475   0.88938   0.00000  Uiso   1.00
C741   C     0.51583   0.26650   0.74916   0.00000  Uiso   1.00
C742   C     0.47128   0.15959   0.98722   0.00000  Uiso   1.00
C743   C     0.48203   0.17969   0.93834   0.00000  Uiso   1.00
C744   C     0.51579   0.17801   0.51955   0.00000  Uiso   1.00
C745   C     0.56661   0.21965   0.50455   0.00000  Uiso   1.00
C746   C     0.56834   0.24490   0.96079   0.00000  Uiso   1.00
C747   C     0.52734   0.22527   0.92792   0.00000  Uiso   1.00
C748   C     0.51033   0.15762   0.56696   0.00000  Uiso   1.00
C749   C     0.60383   0.21738   0.58301   0.00000  Uiso   1.00
C750   C     0.44416   0.15635   0.90250   0.00000  Uiso   1.00
C751   C     0.52546   0.32236   0.74731   0.00000  Uiso   1.00
C752   C     0.46631   0.16309   0.84709   0.00000  Uiso   1.00
C753   C     0.48021   0.01090   0.73942   0.00000  Uiso   1.00
C754   C     0.48618   0.06675   0.74566   0.00000  Uiso   1.00
C755   C     0.53294   0.16976   0.65333   0.00000  Uiso   1.00
C756   C     0.61311   0.23763   0.53462   0.00000  Uiso   1.00
C757   C     0.55161   0.17933   0.59944   0.00000  Uiso   1.00
C758   C     0.38678   0.12272   0.91976   0.00000  Uiso   1.00
C759   C     0.37416   0.10567   0.96928   0.00000  Uiso   1.00
C760   C     0.41593   0.12287   0.50209   0.00000  Uiso   1.00
Cu761  Cu    0.44043   0.16105   0.74435   0.00000  Uiso   1.00
Cu762  Cu    0.55957   0.17228   0.75564   0.00000  Uiso   1.00
H763   H     0.63432   0.23331   0.60971   0.00000  Uiso   1.00
H764   H     0.43706   0.32074   0.73038   0.00000  Uiso   1.00
H765   H     0.66053   0.11803   0.72128   0.00000  Uiso   1.00
H766   H     0.59933   0.28176   0.95354   0.00000  Uiso   1.00
H767   H     0.47273   0.12641   0.58103   0.00000  Uiso   1.00
H768   H     0.40227   0.10771   0.53936   0.00000  Uiso   1.00
H769   H     0.66522   0.07792   0.98229   0.00000  Uiso   1.00
H770   H     0.56948   0.01243   0.75458   0.00000  Uiso   1.00
N771   N     0.64908   0.18074   0.76416   0.00000  Uiso   1.00
N772   N     0.35092   0.15259   0.73584   0.00000  Uiso   1.00
O773   O     0.46131   0.23807   0.74633   0.00000  Uiso   1.00
O774   O     0.56191   0.24755   0.75586   0.00000  Uiso   1.00
O775   O     0.42515   0.15960   0.81839   0.00000  Uiso   1.00
O776   O     0.52575   0.16908   0.82793   0.00000  Uiso   1.00
O777   O     0.43809   0.08578   0.74413   0.00000  Uiso   1.00
O778   O     0.53869   0.09526   0.75367   0.00000  Uiso   1.00
O779   O     0.47425   0.16425   0.67207   0.00000  Uiso   1.00
O780   O     0.57485   0.17373   0.68160   0.00000  Uiso   1.00
O781   O     0.34619   0.23036   0.77185   0.00000  Uiso   1.00
C782   C     0.66578   0.24540   0.82385   0.00000  Uiso   1.00
H783   H     0.33488   0.21406   0.84806   0.00000  Uiso   1.00
H784   H     0.61935   0.25521   0.83247   0.00000  Uiso   1.00
C785   C     0.38037   0.29436   0.83534   0.00000  Uiso   1.00
H786   H     0.42703   0.28491   0.82636   0.00000  Uiso   1.00
H787   H     0.37799   0.32647   0.81205   0.00000  Uiso   1.00
C788   C     0.37145   0.31421   0.89055   0.00000  Uiso   1.00
H789   H     0.66309   0.33167   0.89943   0.00000  Uiso   1.00
H790   H     0.41152   0.01236   0.89700   0.00000  Uiso   1.00
H791   H     0.36840   0.28193   0.91550   0.00000  Uiso   1.00
O792   O     0.66375   0.27671   0.51590   0.00000  Uiso   1.00
C793   C     0.38038   0.28431   0.54252   0.00000  Uiso   1.00
H794   H     0.39273   0.24621   0.54751   0.00000  Uiso   1.00
H795   H     0.36796   0.30515   0.57999   0.00000  Uiso   1.00
C796   C     0.43739   0.31844   0.51245   0.00000  Uiso   1.00
H797   H     0.45432   0.29637   0.97705   0.00000  Uiso   1.00
H798   H     0.42468   0.02060   0.50151   0.00000  Uiso   1.00
C799   C     0.48899   0.00178   0.54379   0.00000  Uiso   1.00
H800   H     0.47347   0.02596   0.57820   0.00000  Uiso   1.00
H801   H     0.53040   0.02558   0.52099   0.00000  Uiso   1.00
H802   H     0.50211   0.30011   0.55563   0.00000  Uiso   1.00
O803   O     0.34508   0.10374   0.88712   0.00000  Uiso   1.00
C804   C     0.61961   0.11658   0.90717   0.00000  Uiso   1.00
H805   H     0.60844   0.14102   0.88018   0.00000  Uiso   1.00
H806   H     0.61737   0.14021   0.94404   0.00000  Uiso   1.00
C807   C     0.56898   0.06690   0.91356   0.00000  Uiso   1.00
H808   H     0.58185   0.03901   0.93614   0.00000  Uiso   1.00
H809   H     0.52513   0.07738   0.93453   0.00000  Uiso   1.00
C810   C     0.55756   0.04054   0.86236   0.00000  Uiso   1.00
H811   H     0.54521   0.06855   0.83963   0.00000  Uiso   1.00
H812   H     0.51814   0.00676   0.86798   0.00000  Uiso   1.00
H813   H     0.59941   0.02663   0.84143   0.00000  Uiso   1.00
F814   F     0.52673   0.25475   0.88938   0.00000  Uiso   1.00
C815   C     0.84916   0.26650   0.74916   0.00000  Uiso   1.00
C816   C     0.80462   0.15959   0.98722   0.00000  Uiso   1.00
C817   C     0.81536   0.17969   0.93834   0.00000  Uiso   1.00
C818   C     0.84912   0.17801   0.51955   0.00000  Uiso   1.00
C819   C     0.89994   0.21965   0.50455   0.00000  Uiso   1.00
C820   C     0.90167   0.24490   0.96079   0.00000  Uiso   1.00
C821   C     0.86067   0.22527   0.92792   0.00000  Uiso   1.00
C822   C     0.84367   0.15762   0.56696   0.00000  Uiso   1.00
C823   C     0.93716   0.21738   0.58301   0.00000  Uiso   1.00
C824   C     0.77749   0.15635   0.90250   0.00000  Uiso   1.00
C825   C     0.85879   0.32236   0.74731   0.00000  Uiso   1.00
C826   C     0.79964   0.16309   0.84709   0.00000  Uiso   1.00
C827   C     0.81354   0.01090   0.73942   0.00000  Uiso   1.00
C828   C     0.81952   0.06675   0.74566   0.00000  Uiso   1.00
C829   C     0.86627   0.16976   0.65333   0.00000  Uiso   1.00
C830   C     0.94645   0.23763   0.53462   0.00000  Uiso   1.00
C831   C     0.88494   0.17933   0.59944   0.00000  Uiso   1.00
C832   C     0.72011   0.12272   0.91976   0.00000  Uiso   1.00
C833   C     0.70749   0.10567   0.96928   0.00000  Uiso   1.00
C834   C     0.74926   0.12287   0.50209   0.00000  Uiso   1.00
Cu835  Cu    0.77377   0.16105   0.74435   0.00000  Uiso   1.00
Cu836  Cu    0.89290   0.17228   0.75564   0.00000  Uiso   1.00
H837   H     0.96765   0.23331   0.60971   0.00000  Uiso   1.00
H838   H     0.77039   0.32074   0.73038   0.00000  Uiso   1.00
H839   H     0.99386   0.11803   0.72128   0.00000  Uiso   1.00
H840   H     0.93267   0.28176   0.95354   0.00000  Uiso   1.00
H841   H     0.80607   0.12641   0.58103   0.00000  Uiso   1.00
H842   H     0.73560   0.10771   0.53936   0.00000  Uiso   1.00
H843   H     0.99855   0.07792   0.98229   0.00000  Uiso   1.00
H844   H     0.90281   0.01243   0.75458   0.00000  Uiso   1.00
N845   N     0.98241   0.18074   0.76416   0.00000  Uiso   1.00
N846   N     0.68426   0.15259   0.73584   0.00000  Uiso   1.00
O847   O     0.79464   0.23807   0.74633   0.00000  Uiso   1.00
O848   O     0.89524   0.24755   0.75586   0.00000  Uiso   1.00
O849   O     0.75848   0.15960   0.81839   0.00000  Uiso   1.00
O850   O     0.85908   0.16908   0.82793   0.00000  Uiso   1.00
O851   O     0.77142   0.08578   0.74413   0.00000  Uiso   1.00
O852   O     0.87203   0.09526   0.75367   0.00000  Uiso   1.00
O853   O     0.80758   0.16425   0.67207   0.00000  Uiso   1.00
O854   O     0.90819   0.17373   0.68160   0.00000  Uiso   1.00
O855   O     0.67952   0.23036   0.77185   0.00000  Uiso   1.00
C856   C     0.99911   0.24540   0.82385   0.00000  Uiso   1.00
H857   H     0.66821   0.21406   0.84806   0.00000  Uiso   1.00
H858   H     0.95268   0.25521   0.83247   0.00000  Uiso   1.00
C859   C     0.71371   0.29436   0.83534   0.00000  Uiso   1.00
H860   H     0.76036   0.28491   0.82636   0.00000  Uiso   1.00
H861   H     0.71132   0.32647   0.81205   0.00000  Uiso   1.00
C862   C     0.70478   0.31421   0.89055   0.00000  Uiso   1.00
H863   H     0.99643   0.33167   0.89943   0.00000  Uiso   1.00
H864   H     0.74485   0.01236   0.89700   0.00000  Uiso   1.00
H865   H     0.70173   0.28193   0.91550   0.00000  Uiso   1.00
O866   O     0.99708   0.27671   0.51590   0.00000  Uiso   1.00
C867   C     0.71371   0.28431   0.54252   0.00000  Uiso   1.00
H868   H     0.72607   0.24621   0.54751   0.00000  Uiso   1.00
H869   H     0.70129   0.30515   0.57999   0.00000  Uiso   1.00
C870   C     0.77072   0.31844   0.51245   0.00000  Uiso   1.00
H871   H     0.78765   0.29637   0.97705   0.00000  Uiso   1.00
H872   H     0.75801   0.02060   0.50151   0.00000  Uiso   1.00
C873   C     0.82233   0.00178   0.54379   0.00000  Uiso   1.00
H874   H     0.80680   0.02596   0.57820   0.00000  Uiso   1.00
H875   H     0.86373   0.02558   0.52099   0.00000  Uiso   1.00
H876   H     0.83545   0.30011   0.55563   0.00000  Uiso   1.00
O877   O     0.67841   0.10374   0.88712   0.00000  Uiso   1.00
C878   C     0.95295   0.11658   0.90717   0.00000  Uiso   1.00
H879   H     0.94177   0.14102   0.88018   0.00000  Uiso   1.00
H880   H     0.95070   0.14021   0.94404   0.00000  Uiso   1.00
C881   C     0.90231   0.06690   0.91356   0.00000  Uiso   1.00
H882   H     0.91518   0.03901   0.93614   0.00000  Uiso   1.00
H883   H     0.85846   0.07738   0.93453   0.00000  Uiso   1.00
C884   C     0.89090   0.04054   0.86236   0.00000  Uiso   1.00
H885   H     0.87855   0.06855   0.83963   0.00000  Uiso   1.00
H886   H     0.85148   0.00676   0.86798   0.00000  Uiso   1.00
H887   H     0.93275   0.02663   0.84143   0.00000  Uiso   1.00
F888   F     0.86006   0.25475   0.88938   0.00000  Uiso   1.00
C889   C     0.18250   0.59983   0.74916   0.00000  Uiso   1.00
C890   C     0.13795   0.49292   0.98722   0.00000  Uiso   1.00
C891   C     0.14869   0.51302   0.93834   0.00000  Uiso   1.00
C892   C     0.18245   0.51134   0.51955   0.00000  Uiso   1.00
C893   C     0.23327   0.55298   0.50455   0.00000  Uiso   1.00
C894   C     0.23500   0.57823   0.96079   0.00000  Uiso   1.00
C895   C     0.19401   0.55860   0.92792   0.00000  Uiso   1.00
C896   C     0.17700   0.49095   0.56696   0.00000  Uiso   1.00
C897   C     0.27049   0.55072   0.58301   0.00000  Uiso   1.00
C898   C     0.11083   0.48969   0.90250   0.00000  Uiso   1.00
C899   C     0.19212   0.65569   0.74731   0.00000  Uiso   1.00
C900   C     0.13298   0.49642   0.84709   0.00000  Uiso   1.00
C901   C     0.14688   0.34424   0.73942   0.00000  Uiso   1.00
C902   C     0.15285   0.40009   0.74566   0.00000  Uiso   1.00
C903   C     0.19960   0.50309   0.65333   0.00000  Uiso   1.00
C904   C     0.27978   0.57096   0.53462   0.00000  Uiso   1.00
C905   C     0.21828   0.51266   0.59944   0.00000  Uiso   1.00
C906   C     0.05345   0.45605   0.91976   0.00000  Uiso   1.00
C907   C     0.04082   0.43901   0.96928   0.00000  Uiso   1.00
C908   C     0.08260   0.45621   0.50209   0.00000  Uiso   1.00
Cu909  Cu    0.10710   0.49439   0.74435   0.00000  Uiso   1.00
Cu910  Cu    0.22623   0.50561   0.75564   0.00000  Uiso   1.00
H911   H     0.30098   0.56665   0.60971   0.00000  Uiso   1.00
H912   H     0.10372   0.65407   0.73038   0.00000  Uiso   1.00
H913   H     0.32720   0.45137   0.72128   0.00000  Uiso   1.00
H914   H     0.26600   0.61509   0.95354   0.00000  Uiso   1.00
H915   H     0.13940   0.45974   0.58103   0.00000  Uiso   1.00
H916   H     0.06893   0.44105   0.53936   0.00000  Uiso   1.00
H917   H     0.33189   0.41125   0.98229   0.00000  Uiso   1.00
H918   H     0.23615   0.34576   0.75458   0.00000  Uiso   1.00
N919   N     0.31574   0.51407   0.76416   0.00000  Uiso   1.00
N920   N     0.01759   0.48593   0.73584   0.00000  Uiso   1.00
O921   O     0.12797   0.57141   0.74633   0.00000  Uiso   1.00
O922   O     0.22858   0.58089   0.75586   0.00000  Uiso   1.00
O923   O     0.09181   0.49293   0.81839   0.00000  Uiso   1.00
O924   O     0.19242   0.50241   0.82793   0.00000  Uiso   1.00
O925   O     0.10476   0.41911   0.74413   0.00000  Uiso   1.00
O926   O     0.20536   0.42859   0.75367   0.00000  Uiso   1.00
O927   O     0.14092   0.49759   0.67207   0.00000  Uiso   1.00
O928   O     0.24152   0.50707   0.68160   0.00000  Uiso   1.00
O929   O     0.01285   0.56369   0.77185   0.00000  Uiso   1.00
C930   C     0.33245   0.57873   0.82385   0.00000  Uiso   1.00
H931   H     0.00154   0.54739   0.84806   0.00000  Uiso   1.00
H932   H     0.28602   0.58854   0.83247   0.00000  Uiso   1.00
C933   C     0.04704   0.62769   0.83534   0.00000  Uiso   1.00
H934   H     0.09370   0.61825   0.82636   0.00000  Uiso   1.00
H935   H     0.04465   0.65980   0.81205   0.00000  Uiso   1.00
C936   C     0.03812   0.64754   0.89055   0.00000  Uiso   1.00
H937   H     0.32976   0.66500   0.89943   0.00000  Uiso   1.00
H938   H     0.07819   0.34570   0.89700   0.00000  Uiso   1.00
H939   H     0.03506   0.61526   0.91550   0.00000  Uiso   1.00
O940   O     0.33041   0.61004   0.51590   0.00000  Uiso   1.00
C941   C     0.04705   0.61764   0.54252   0.00000  Uiso   1.00
H942   H     0.05940   0.57955   0.54751   0.00000  Uiso   1.00
H943   H     0.03463   0.63848   0.57999   0.00000  Uiso   1.00
C944   C     0.10406   0.65178   0.51245   0.00000  Uiso   1.00
H945   H     0.12098   0.62970   0.97705   0.00000  Uiso   1.00
H946   H     0.09134   0.35393   0.50151   0.00000  Uiso   1.00
C947   C     0.15566   0.33511   0.54379   0.00000  Uiso   1.00
H948   H     0.14014   0.35930   0.57820   0.00000  Uiso   1.00
H949   H     0.19707   0.35891   0.52099   0.00000  Uiso   1.00
H950   H     0.16878   0.63344   0.55563   0.00000  Uiso   1.00
O951   O     0.01174   0.43707   0.88712   0.00000  Uiso   1.00
C952   C     0.28628   0.44991   0.90717   0.00000  Uiso   1.00
H953   H     0.27510   0.47436   0.88018   0.00000  Uiso   1.00
H954   H     0.28404   0.47355   0.94404   0.00000  Uiso   1.00
C955   C     0.23564   0.40024   0.91356   0.00000  Uiso   1.00
H956   H     0.24852   0.37235   0.93614   0.00000  Uiso   1.00
H957   H     0.19180   0.41072   0.93453   0.00000  Uiso   1.00
C958   C     0.22423   0.37388   0.86236   0.00000  Uiso   1.00
H959   H     0.21188   0.40188   0.83963   0.00000  Uiso   1.00
H960   H     0.18481   0.34010   0.86798   0.00000  Uiso   1.00
H961   H     0.26608   0.35997   0.84143   0.00000  Uiso   1.00
F962   F     0.19340   0.58808   0.88938   0.00000  Uiso   1.00
C963   C     0.51583   0.59983   0.74916   0.00000  Uiso   1.00
C964   C     0.47128   0.49292   0.98722   0.00000  Uiso   1.00
C965   C     0.48203   0.51302   0.93834   0.00000  Uiso   1.00
C966   C     0.51579   0.51134   0.51955   0.00000  Uiso   1.00
C967   C     0.56661   0.55298   0.50455   0.00000  Uiso   1.00
C968   C     0.56834   0.57823   0.96079   0.00000  Uiso   1.00
C969   C     0.52734   0.55860   0.92792   0.00000  Uiso   1.00
C970   C     0.51033   0.49095   0.56696   0.00000  Uiso   1.00
C971   C     0.60383   0.55072   0.58301   0.00000  Uiso   1.00
C972   C     0.44416   0.48969   0.90250   0.00000  Uiso   1.00
C973   C     0.52546   0.65569   0.74731   0.00000  Uiso   1.00
C974   C     0.46631   0.49642   0.84709   0.00000  Uiso   1.00
C975   C     0.48021   0.34424   0.73942   0.00000  Uiso   1.00
C976   C     0.48618   0.40009   0.74566   0.00000  Uiso   1.00
C977   C     0.53294   0.50309   0.65333   0.00000  Uiso   1.00
C978   C     0.61311   0.57096   0.53462   0.00000  Uiso   1.00
C979   C     0.55161   0.51266   0.59944   0.00000  Uiso   1.00
C980   C     0.38678   0.45605   0.91976   0.00000  Uiso   1.00
C981   C     0.37416   0.43901   0.96928   0.00000  Uiso   1.00
C982   C     0.41593   0.45621   0.50209   0.00000  Uiso   1.00
Cu983  Cu    0.44043   0.49439   0.74435   0.00000  Uiso   1.00
Cu984  Cu    0.55957   0.50561   0.75564   0.00000  Uiso   1.00
H985   H     0.63432   0.56665   0.60971   0.00000  Uiso   1.00
H986   H     0.43706   0.65407   0.73038   0.00000  Uiso   1.00
H987   H     0.66053   0.45137   0.72128   0.00000  Uiso   1.00
H988   H     0.59933   0.61509   0.95354   0.00000  Uiso   1.00
H989   H     0.47273   0.45974   0.58103   0.00000  Uiso   1.00
H990   H     0.40227   0.44105   0.53936   0.00000  Uiso   1.00
H991   H     0.66522   0.41125   0.98229   0.00000  Uiso   1.00
H992   H     0.56948   0.34576   0.75458   0.00000  Uiso   1.00
N993   N     0.64908   0.51407   0.76416   0.00000  Uiso   1.00
N994   N     0.35092   0.48593   0.73584   0.00000  Uiso   1.00
O995   O     0.46131   0.57141   0.74633   0.00000  Uiso   1.00
O996   O     0.56191   0.58089   0.75586   0.00000  Uiso   1.00
O997   O     0.42515   0.49293   0.81839   0.00000  Uiso   1.00
O998   O     0.52575   0.50241   0.82793   0.00000  Uiso   1.00
O999   O     0.43809   0.41911   0.74413   0.00000  Uiso   1.00
O1000  O     0.53869   0.42859   0.75367   0.00000  Uiso   1.00
O1001  O     0.47425   0.49759   0.67207   0.00000  Uiso   1.00
O1002  O     0.57485   0.50707   0.68160   0.00000  Uiso   1.00
O1003  O     0.34619   0.56369   0.77185   0.00000  Uiso   1.00
C1004  C     0.66578   0.57873   0.82385   0.00000  Uiso   1.00
H1005  H     0.33488   0.54739   0.84806   0.00000  Uiso   1.00
H1006  H     0.61935   0.58854   0.83247   0.00000  Uiso   1.00
C1007  C     0.38037   0.62769   0.83534   0.00000  Uiso   1.00
H1008  H     0.42703   0.61825   0.82636   0.00000  Uiso   1.00
H1009  H     0.37799   0.65980   0.81205   0.00000  Uiso   1.00
C1010  C     0.37145   0.64754   0.89055   0.00000  Uiso   1.00
H1011  H     0.66309   0.66500   0.89943   0.00000  Uiso   1.00
H1012  H     0.41152   0.34570   0.89700   0.00000  Uiso   1.00
H1013  H     0.36840   0.61526   0.91550   0.00000  Uiso   1.00
O1014  O     0.66375   0.61004   0.51590   0.00000  Uiso   1.00
C1015  C     0.38038   0.61764   0.54252   0.00000  Uiso   1.00
H1016  H     0.39273   0.57955   0.54751   0.00000  Uiso   1.00
H1017  H     0.36796   0.63848   0.57999   0.00000  Uiso   1.00
C1018  C     0.43739   0.65178   0.51245   0.00000  Uiso   1.00
H1019  H     0.45432   0.62970   0.97705   0.00000  Uiso   1.00
H1020  H     0.42468   0.35393   0.50151   0.00000  Uiso   1.00
C1021  C     0.48899   0.33511   0.54379   0.00000  Uiso   1.00
H1022  H     0.47347   0.35930   0.57820   0.00000  Uiso   1.00
H1023  H     0.53040   0.35891   0.52099   0.00000  Uiso   1.00
H1024  H     0.50211   0.63344   0.55563   0.00000  Uiso   1.00
O1025  O     0.34508   0.43707   0.88712   0.00000  Uiso   1.00
C1026  C     0.61961   0.44991   0.90717   0.00000  Uiso   1.00
H1027  H     0.60844   0.47436   0.88018   0.00000  Uiso   1.00
H1028  H     0.61737   0.47355   0.94404   0.00000  Uiso   1.00
C1029  C     0.56898   0.40024   0.91356   0.00000  Uiso   1.00
H1030  H     0.58185   0.37235   0.93614   0.00000  Uiso   1.00
H1031  H     0.52513   0.41072   0.93453   0.00000  Uiso   1.00
C1032  C     0.55756   0.37388   0.86236   0.00000  Uiso   1.00
H1033  H     0.54521   0.40188   0.83963   0.00000  Uiso   1.00
H1034  H     0.51814   0.34010   0.86798   0.00000  Uiso   1.00
H1035  H     0.59941   0.35997   0.84143   0.00000  Uiso   1.00
F1036  F     0.52673   0.58808   0.88938   0.00000  Uiso   1.00
C1037  C     0.84916   0.59983   0.74916   0.00000  Uiso   1.00
C1038  C     0.80462   0.49292   0.98722   0.00000  Uiso   1.00
C1039  C     0.81536   0.51302   0.93834   0.00000  Uiso   1.00
C1040  C     0.84912   0.51134   0.51955   0.00000  Uiso   1.00
C1041  C     0.89994   0.55298   0.50455   0.00000  Uiso   1.00
C1042  C     0.90167   0.57823   0.96079   0.00000  Uiso   1.00
C1043  C     0.86067   0.55860   0.92792   0.00000  Uiso   1.00
C1044  C     0.84367   0.49095   0.56696   0.00000  Uiso   1.00
C1045  C     0.93716   0.55072   0.58301   0.00000  Uiso   1.00
C1046  C     0.77749   0.48969   0.90250   0.00000  Uiso   1.00
C1047  C     0.85879   0.65569   0.74731   0.00000  Uiso   1.00
C1048  C     0.79964   0.49642   0.84709   0.00000  Uiso   1.00
C1049  C     0.81354   0.34424   0.73942   0.00000  Uiso   1.00
C1050  C     0.81952   0.40009   0.74566   0.00000  Uiso   1.00
C1051  C     0.86627   0.50309   0.65333   0.00000  Uiso   1.00
C1052  C     0.94645   0.57096   0.53462   0.00000  Uiso   1.00
C1053  C     0.88494   0.51266   0.59944   0.00000  Uiso   1.00
C1054  C     0.72011   0.45605   0.91976   0.00000  Uiso   1.00
C1055  C     0.70749   0.43901   0.96928   0.00000  Uiso   1.00
C1056  C     0.74926   0.45621   0.50209   0.00000  Uiso   1.00
Cu1057 Cu    0.77377   0.49439   0.74435   0.00000  Uiso   1.00
Cu1058 Cu    0.89290   0.50561   0.75564   0.00000  Uiso   1.00
H1059  H     0.96765   0.56665   0.60971   0.00000  Uiso   1.00
H1060  H     0.77039   0.65407   0.73038   0.00000  Uiso   1.00
H1061  H     0.99386   0.45137   0.72128   0.00000  Uiso   1.00
H1062  H     0.93267   0.61509   0.95354   0.00000  Uiso   1.00
H1063  H     0.80607   0.45974   0.58103   0.00000  Uiso   1.00
H1064  H     0.73560   0.44105   0.53936   0.00000  Uiso   1.00
H1065  H     0.99855   0.41125   0.98229   0.00000  Uiso   1.00
H1066  H     0.90281   0.34576   0.75458   0.00000  Uiso   1.00
N1067  N     0.98241   0.51407   0.76416   0.00000  Uiso   1.00
N1068  N     0.68426   0.48593   0.73584   0.00000  Uiso   1.00
O1069  O     0.79464   0.57141   0.74633   0.00000  Uiso   1.00
O1070  O     0.89524   0.58089   0.75586   0.00000  Uiso   1.00
O1071  O     0.75848   0.49293   0.81839   0.00000  Uiso   1.00
O1072  O     0.85908   0.50241   0.82793   0.00000  Uiso   1.00
O1073  O     0.77142   0.41911   0.74413   0.00000  Uiso   1.00
O1074  O     0.87203   0.42859   0.75367   0.00000  Uiso   1.00
O1075  O     0.80758   0.49759   0.67207   0.00000  Uiso   1.00
O1076  O     0.90819   0.50707   0.68160   0.00000  Uiso   1.00
O1077  O     0.67952   0.56369   0.77185   0.00000  Uiso   1.00
C1078  C     0.99911   0.57873   0.82385   0.00000  Uiso   1.00
H1079  H     0.66821   0.54739   0.84806   0.00000  Uiso   1.00
H1080  H     0.95268   0.58854   0.83247   0.00000  Uiso   1.00
C1081  C     0.71371   0.62769   0.83534   0.00000  Uiso   1.00
H1082  H     0.76036   0.61825   0.82636   0.00000  Uiso   1.00
H1083  H     0.71132   0.65980   0.81205   0.00000  Uiso   1.00
C1084  C     0.70478   0.64754   0.89055   0.00000  Uiso   1.00
H1085  H     0.99643   0.66500   0.89943   0.00000  Uiso   1.00
H1086  H     0.74485   0.34570   0.89700   0.00000  Uiso   1.00
H1087  H     0.70173   0.61526   0.91550   0.00000  Uiso   1.00
O1088  O     0.99708   0.61004   0.51590   0.00000  Uiso   1.00
C1089  C     0.71371   0.61764   0.54252   0.00000  Uiso   1.00
H1090  H     0.72607   0.57955   0.54751   0.00000  Uiso   1.00
H1091  H     0.70129   0.63848   0.57999   0.00000  Uiso   1.00
C1092  C     0.77072   0.65178   0.51245   0.00000  Uiso   1.00
H1093  H     0.78765   0.62970   0.97705   0.00000  Uiso   1.00
H1094  H     0.75801   0.35393   0.50151   0.00000  Uiso   1.00
C1095  C     0.82233   0.33511   0.54379   0.00000  Uiso   1.00
H1096  H     0.80680   0.35930   0.57820   0.00000  Uiso   1.00
H1097  H     0.86373   0.35891   0.52099   0.00000  Uiso   1.00
H1098  H     0.83545   0.63344   0.55563   0.00000  Uiso   1.00
O1099  O     0.67841   0.43707   0.88712   0.00000  Uiso   1.00
C1100  C     0.95295   0.44991   0.90717   0.00000  Uiso   1.00
H1101  H     0.94177   0.47436   0.88018   0.00000  Uiso   1.00
H1102  H     0.95070   0.47355   0.94404   0.00000  Uiso   1.00
C1103  C     0.90231   0.40024   0.91356   0.00000  Uiso   1.00
H1104  H     0.91518   0.37235   0.93614   0.00000  Uiso   1.00
H1105  H     0.85846   0.41072   0.93453   0.00000  Uiso   1.00
C1106  C     0.89090   0.37388   0.86236   0.00000  Uiso   1.00
H1107  H     0.87855   0.40188   0.83963   0.00000  Uiso   1.00
H1108  H     0.85148   0.34010   0.86798   0.00000  Uiso   1.00
H1109  H     0.93275   0.35997   0.84143   0.00000  Uiso   1.00
F1110  F     0.86006   0.58808   0.88938   0.00000  Uiso   1.00
C1111  C     0.18250   0.93317   0.74916   0.00000  Uiso   1.00
C1112  C     0.13795   0.82626   0.98722   0.00000  Uiso   1.00
C1113  C     0.14869   0.84636   0.93834   0.00000  Uiso   1.00
C1114  C     0.18245   0.84468   0.51955   0.00000  Uiso   1.00
C1115  C     0.23327   0.88631   0.50455   0.00000  Uiso   1.00
C1116  C     0.23500   0.91156   0.96079   0.00000  Uiso   1.00
C1117  C     0.19401   0.89194   0.92792   0.00000  Uiso   1.00
C1118  C     0.17700   0.82428   0.56696   0.00000  Uiso   1.00
C1119  C     0.27049   0.88405   0.58301   0.00000  Uiso   1.00
C1120  C     0.11083   0.82302   0.90250   0.00000  Uiso   1.00
C1121  C     0.19212   0.98902   0.74731   0.00000  Uiso   1.00
C1122  C     0.13298   0.82976   0.84709   0.00000  Uiso   1.00
C1123  C     0.14688   0.67757   0.73942   0.00000  Uiso   1.00
C1124  C     0.15285   0.73342   0.74566   0.00000  Uiso   1.00
C1125  C     0.19960   0.83642   0.65333   0.00000  Uiso   1.00
C1126  C     0.27978   0.90429   0.53462   0.00000  Uiso   1.00
C1127  C     0.21828   0.84599   0.59944   0.00000  Uiso   1.00
C1128  C     0.05345   0.78939   0.91976   0.00000  Uiso   1.00
C1129  C     0.04082   0.77234   0.96928   0.00000  Uiso   1.00
C1130  C     0.08260   0.78954   0.50209   0.00000  Uiso   1.00
Cu1131 Cu    0.10710   0.82772   0.74435   0.00000  Uiso   1.00
Cu1132 Cu    0.22623   0.83895   0.75564   0.00000  Uiso   1.00
H1133  H     0.30098   0.89998   0.60971   0.00000  Uiso   1.00
H1134  H     0.10372   0.98741   0.73038   0.00000  Uiso   1.00
H1135  H     0.32720   0.78470   0.72128   0.00000  Uiso   1.00
H1136  H     0.26600   0.94842   0.95354   0.00000  Uiso   1.00
H1137  H     0.13940   0.79307   0.58103   0.00000  Uiso   1.00
H1138  H     0.06893   0.77438   0.53936   0.00000  Uiso   1.00
H1139  H     0.33189   0.74459   0.98229   0.00000  Uiso   1.00
H1140  H     0.23615   0.67909   0.75458   0.00000  Uiso   1.00
N1141  N     0.31574   0.84741   0.76416   0.00000  Uiso   1.00
N1142  N     0.01759   0.81926   0.73584   0.00000  Uiso   1.00
O1143  O     0.12797   0.90474   0.74633   0.00000  Uiso   1.00
O1144  O     0.22858   0.91422   0.75586   0.00000  Uiso   1.00
O1145  O     0.09181   0.82627   0.81839   0.00000  Uiso   1.00
O1146  O     0.19242   0.83575   0.82793   0.00000  Uiso   1.00
O1147  O     0.10476   0.75245   0.74413   0.00000  Uiso   1.00
O1148  O     0.20536   0.76193   0.75367   0.00000  Uiso   1.00
O1149  O     0.14092   0.83092   0.67207   0.00000  Uiso   1.00
O1150  O     0.24152   0.84040   0.68160   0.00000  Uiso   1.00
O1151  O     0.01285   0.89703   0.77185   0.00000  Uiso   1.00
C1152  C     0.33245   0.91206   0.82385   0.00000  Uiso   1.00
H1153  H     0.00154   0.88073   0.84806   0.00000  Uiso   1.00
H1154  H     0.28602   0.92187   0.83247   0.00000  Uiso   1.00
C1155  C     0.04704   0.96102   0.83534   0.00000  Uiso   1.00
H1156  H     0.09370   0.95158   0.82636   0.00000  Uiso   1.00
H1157  H     0.04465   0.99313   0.81205   0.00000  Uiso   1.00
C1158  C     0.03812   0.98088   0.89055   0.00000  Uiso   1.00
H1159  H     0.32976   0.99834   0.89943   0.00000  Uiso   1.00
H1160  H     0.07819   0.67903   0.89700   0.00000  Uiso   1.00
H1161  H     0.03506   0.94859   0.91550   0.00000  Uiso   1.00
O1162  O     0.33041   0.94337   0.51590   0.00000  Uiso   1.00
C1163  C     0.04705   0.95098   0.54252   0.00000  Uiso   1.00
H1164  H     0.05940   0.91288   0.54751   0.00000  Uiso   1.00
H1165  H     0.03463   0.97181   0.57999   0.00000  Uiso   1.00
C1166  C     0.10406   0.98511   0.51245   0.00000  Uiso   1.00
H1167  H     0.12098   0.96303   0.97705   0.00000  Uiso   1.00
H1168  H     0.09134   0.68726   0.50151   0.00000  Uiso   1.00
C1169  C     0.15566   0.66845   0.54379   0.00000  Uiso   1.00
H1170  H     0.14014   0.69263   0.57820   0.00000  Uiso   1.00
H1171  H     0.19707   0.69224   0.52099   0.00000  Uiso   1.00
H1172  H     0.16878   0.96677   0.55563   0.00000  Uiso   1.00
O1173  O     0.01174   0.77040   0.88712   0.00000  Uiso   1.00
C1174  C     0.28628   0.78324   0.90717   0.00000  Uiso   1.00
H1175  H     0.27510   0.80769   0.88018   0.00000  Uiso   1.00
H1176  H     0.28404   0.80688   0.94404   0.00000  Uiso   1.00
C1177  C     0.23564   0.73357   0.91356   0.00000  Uiso   1.00
H1178  H     0.24852   0.70568   0.93614   0.00000  Uiso   1.00
H1179  H     0.19180   0.74405   0.93453   0.00000  Uiso   1.00
C1180  C     0.22423   0.70721   0.86236   0.00000  Uiso   1.00
H1181  H     0.21188   0.73521   0.83963   0.00000  Uiso   1.00
H1182  H     0.18481   0.67343   0.86798   0.00000  Uiso   1.00
H1183  H     0.26608   0.69330   0.84143   0.00000  Uiso   1.00
F1184  F     0.19340   0.92141   0.88938   0.00000  Uiso   1.00
C1185  C     0.51583   0.93317   0.74916   0.00000  Uiso   1.00
C1186  C     0.47128   0.82626   0.98722   0.00000  Uiso   1.00
C1187  C     0.48203   0.84636   0.93834   0.00000  Uiso   1.00
C1188  C     0.51579   0.84468   0.51955   0.00000  Uiso   1.00
C1189  C     0.56661   0.88631   0.50455   0.00000  Uiso   1.00
C1190  C     0.56834   0.91156   0.96079   0.00000  Uiso   1.00
C1191  C     0.52734   0.89194   0.92792   0.00000  Uiso   1.00
C1192  C     0.51033   0.82428   0.56696   0.00000  Uiso   1.00
C1193  C     0.60383   0.88405   0.58301   0.00000  Uiso   1.00
C1194  C     0.44416   0.82302   0.90250   0.00000  Uiso   1.00
C1195  C     0.52546   0.98902   0.74731   0.00000  Uiso   1.00
C1196  C     0.46631   0.82976   0.84709   0.00000  Uiso   1.00
C1197  C     0.48021   0.67757   0.73942   0.00000  Uiso   1.00
C1198  C     0.48618   0.73342   0.74566   0.00000  Uiso   1.00
C1199  C     0.53294   0.83642   0.65333   0.00000  Uiso   1.00
C1200  C     0.61311   0.90429   0.53462   0.00000  Uiso   1.00
C1201  C     0.55161   0.84599   0.59944   0.00000  Uiso   1.00
C1202  C     0.38678   0.78939   0.91976   0.00000  Uiso   1.00
C1203  C     0.37416   0.77234   0.96928   0.00000  Uiso   1.00
C1204  C     0.41593   0.78954   0.50209   0.00000  Uiso   1.00
Cu1205 Cu    0.44043   0.82772   0.74435   0.00000  Uiso   1.00
Cu1206 Cu    0.55957   0.83895   0.75564   0.00000  Uiso   1.00
H1207  H     0.63432   0.89998   0.60971   0.00000  Uiso   1.00
H1208  H     0.43706   0.98741   0.73038   0.00000  Uiso   1.00
H1209  H     0.66053   0.78470   0.72128   0.00000  Uiso   1.00
H1210  H     0.59933   0.94842   0.95354   0.00000  Uiso   1.00
H1211  H     0.47273   0.79307   0.58103   0.00000  Uiso   1.00
H1212  H     0.40227   0.77438   0.53936   0.00000  Uiso   1.00
H1213  H     0.66522   0.74459   0.98229   0.00000  Uiso   1.00
H1214  H     0.56948   0.67909   0.75458   0.00000  Uiso   1.00
N1215  N     0.64908   0.84741   0.76416   0.00000  Uiso   1.00
N1216  N     0.35092   0.81926   0.73584   0.00000  Uiso   1.00
O1217  O     0.46131   0.90474   0.74633   0.00000  Uiso   1.00
O1218  O     0.56191   0.91422   0.75586   0.00000  Uiso   1.00
O1219  O     0.42515   0.82627   0.81839   0.00000  Uiso   1.00
O1220  O     0.52575   0.83575   0.82793   0.00000  Uiso   1.00
O1221  O     0.43809   0.75245   0.74413   0.00000  Uiso   1.00
O1222  O     0.53869   0.76193   0.75367   0.00000  Uiso   1.00
O1223  O     0.47425   0.83092   0.67207   0.00000  Uiso   1.00
O1224  O     0.57485   0.84040   0.68160   0.00000  Uiso   1.00
O1225  O     0.34619   0.89703   0.77185   0.00000  Uiso   1.00
C1226  C     0.66578   0.91206   0.82385   0.00000  Uiso   1.00
H1227  H     0.33488   0.88073   0.84806   0.00000  Uiso   1.00
H1228  H     0.61935   0.92187   0.83247   0.00000  Uiso   1.00
C1229  C     0.38037   0.96102   0.83534   0.00000  Uiso   1.00
H1230  H     0.42703   0.95158   0.82636   0.00000  Uiso   1.00
H1231  H     0.37799   0.99313   0.81205   0.00000  Uiso   1.00
C1232  C     0.37145   0.98088   0.89055   0.00000  Uiso   1.00
H1233  H     0.66309   0.99834   0.89943   0.00000  Uiso   1.00
H1234  H     0.41152   0.67903   0.89700   0.00000  Uiso   1.00
H1235  H     0.36840   0.94859   0.91550   0.00000  Uiso   1.00
O1236  O     0.66375   0.94337   0.51590   0.00000  Uiso   1.00
C1237  C     0.38038   0.95098   0.54252   0.00000  Uiso   1.00
H1238  H     0.39273   0.91288   0.54751   0.00000  Uiso   1.00
H1239  H     0.36796   0.97181   0.57999   0.00000  Uiso   1.00
C1240  C     0.43739   0.98511   0.51245   0.00000  Uiso   1.00
H1241  H     0.45432   0.96303   0.97705   0.00000  Uiso   1.00
H1242  H     0.42468   0.68726   0.50151   0.00000  Uiso   1.00
C1243  C     0.48899   0.66845   0.54379   0.00000  Uiso   1.00
H1244  H     0.47347   0.69263   0.57820   0.00000  Uiso   1.00
H1245  H     0.53040   0.69224   0.52099   0.00000  Uiso   1.00
H1246  H     0.50211   0.96677   0.55563   0.00000  Uiso   1.00
O1247  O     0.34508   0.77040   0.88712   0.00000  Uiso   1.00
C1248  C     0.61961   0.78324   0.90717   0.00000  Uiso   1.00
H1249  H     0.60844   0.80769   0.88018   0.00000  Uiso   1.00
H1250  H     0.61737   0.80688   0.94404   0.00000  Uiso   1.00
C1251  C     0.56898   0.73357   0.91356   0.00000  Uiso   1.00
H1252  H     0.58185   0.70568   0.93614   0.00000  Uiso   1.00
H1253  H     0.52513   0.74405   0.93453   0.00000  Uiso   1.00
C1254  C     0.55756   0.70721   0.86236   0.00000  Uiso   1.00
H1255  H     0.54521   0.73521   0.83963   0.00000  Uiso   1.00
H1256  H     0.51814   0.67343   0.86798   0.00000  Uiso   1.00
H1257  H     0.59941   0.69330   0.84143   0.00000  Uiso   1.00
F1258  F     0.52673   0.92141   0.88938   0.00000  Uiso   1.00
C1259  C     0.84916   0.93317   0.74916   0.00000  Uiso   1.00
C1260  C     0.80462   0.82626   0.98722   0.00000  Uiso   1.00
C1261  C     0.81536   0.84636   0.93834   0.00000  Uiso   1.00
C1262  C     0.84912   0.84468   0.51955   0.00000  Uiso   1.00
C1263  C     0.89994   0.88631   0.50455   0.00000  Uiso   1.00
C1264  C     0.90167   0.91156   0.96079   0.00000  Uiso   1.00
C1265  C     0.86067   0.89194   0.92792   0.00000  Uiso   1.00
C1266  C     0.84367   0.82428   0.56696   0.00000  Uiso   1.00
C1267  C     0.93716   0.88405   0.58301   0.00000  Uiso   1.00
C1268  C     0.77749   0.82302   0.90250   0.00000  Uiso   1.00
C1269  C     0.85879   0.98902   0.74731   0.00000  Uiso   1.00
C1270  C     0.79964   0.82976   0.84709   0.00000  Uiso   1.00
C1271  C     0.81354   0.67757   0.73942   0.00000  Uiso   1.00
C1272  C     0.81952   0.73342   0.74566   0.00000  Uiso   1.00
C1273  C     0.86627   0.83642   0.65333   0.00000  Uiso   1.00
C1274  C     0.94645   0.90429   0.53462   0.00000  Uiso   1.00
C1275  C     0.88494   0.84599   0.59944   0.00000  Uiso   1.00
C1276  C     0.72011   0.78939   0.91976   0.00000  Uiso   1.00
C1277  C     0.70749   0.77234   0.96928   0.00000  Uiso   1.00
C1278  C     0.74926   0.78954   0.50209   0.00000  Uiso   1.00
Cu1279 Cu    0.77377   0.82772   0.74435   0.00000  Uiso   1.00
Cu1280 Cu    0.89290   0.83895   0.75564   0.00000  Uiso   1.00
H1281  H     0.96765   0.89998   0.60971   0.00000  Uiso   1.00
H1282  H     0.77039   0.98741   0.73038   0.00000  Uiso   1.00
H1283  H     0.99386   0.78470   0.72128   0.00000  Uiso   1.00
H1284  H     0.93267   0.94842   0.95354   0.00000  Uiso   1.00
H1285  H     0.80607   0.79307   0.58103   0.00000  Uiso   1.00
H1286  H     0.73560   0.77438   0.53936   0.00000  Uiso   1.00
H1287  H     0.99855   0.74459   0.98229   0.00000  Uiso   1.00
H1288  H     0.90281   0.67909   0.75458   0.00000  Uiso   1.00
N1289  N     0.98241   0.84741   0.76416   0.00000  Uiso   1.00
N1290  N     0.68426   0.81926   0.73584   0.00000  Uiso   1.00
O1291  O     0.79464   0.90474   0.74633   0.00000  Uiso   1.00
O1292  O     0.89524   0.91422   0.75586   0.00000  Uiso   1.00
O1293  O     0.75848   0.82627   0.81839   0.00000  Uiso   1.00
O1294  O     0.85908   0.83575   0.82793   0.00000  Uiso   1.00
O1295  O     0.77142   0.75245   0.74413   0.00000  Uiso   1.00
O1296  O     0.87203   0.76193   0.75367   0.00000  Uiso   1.00
O1297  O     0.80758   0.83092   0.67207   0.00000  Uiso   1.00
O1298  O     0.90819   0.84040   0.68160   0.00000  Uiso   1.00
O1299  O     0.67952   0.89703   0.77185   0.00000  Uiso   1.00
C1300  C     0.99911   0.91206   0.82385   0.00000  Uiso   1.00
H1301  H     0.66821   0.88073   0.84806   0.00000  Uiso   1.00
H1302  H     0.95268   0.92187   0.83247   0.00000  Uiso   1.00
C1303  C     0.71371   0.96102   0.83534   0.00000  Uiso   1.00
H1304  H     0.76036   0.95158   0.82636   0.00000  Uiso   1.00
H1305  H     0.71132   0.99313   0.81205   0.00000  Uiso   1.00
C1306  C     0.70478   0.98088   0.89055   0.00000  Uiso   1.00
H1307  H     0.99643   0.99834   0.89943   0.00000  Uiso   1.00
H1308  H     0.74485   0.67903   0.89700   0.00000  Uiso   1.00
H1309  H     0.70173   0.94859   0.91550   0.00000  Uiso   1.00
O1310  O     0.99708   0.94337   0.51590   0.00000  Uiso   1.00
C1311  C     0.71371   0.95098   0.54252   0.00000  Uiso   1.00
H1312  H     0.72607   0.91288   0.54751   0.00000  Uiso   1.00
H1313  H     0.70129   0.97181   0.57999   0.00000  Uiso   1.00
C1314  C     0.77072   0.98511   0.51245   0.00000  Uiso   1.00
H1315  H     0.78765   0.96303   0.97705   0.00000  Uiso   1.00
H1316  H     0.75801   0.68726   0.50151   0.00000  Uiso   1.00
C1317  C     0.82233   0.66845   0.54379   0.00000  Uiso   1.00
H1318  H     0.80680   0.69263   0.57820   0.00000  Uiso   1.00
H1319  H     0.86373   0.69224   0.52099   0.00000  Uiso   1.00
H1320  H     0.83545   0.96677   0.55563   0.00000  Uiso   1.00
O1321  O     0.67841   0.77040   0.88712   0.00000  Uiso   1.00
C1322  C     0.95295   0.78324   0.90717   0.00000  Uiso   1.00
H1323  H     0.94177   0.80769   0.88018   0.00000  Uiso   1.00
H1324  H     0.95070   0.80688   0.94404   0.00000  Uiso   1.00
C1325  C     0.90231   0.73357   0.91356   0.00000  Uiso   1.00
H1326  H     0.91518   0.70568   0.93614   0.00000  Uiso   1.00
H1327  H     0.85846   0.74405   0.93453   0.00000  Uiso   1.00
C1328  C     0.89090   0.70721   0.86236   0.00000  Uiso   1.00
H1329  H     0.87855   0.73521   0.83963   0.00000  Uiso   1.00
H1330  H     0.85148   0.67343   0.86798   0.00000  Uiso   1.00
H1331  H     0.93275   0.69330   0.84143   0.00000  Uiso   1.00
F1332  F     0.86006   0.92141   0.88938   0.00000  Uiso   1.00
loop_
_geom_bond_atom_site_label_1
_geom_bond_atom_site_label_2
_geom_bond_distance
_geom_bond_site_symmetry_2
_ccdc_geom_bond_type
C1     C11     1.433   .     S
C1     O33     1.300   .     A
C1     O34     1.287   .     A
C2     C3      1.419   .     A
C2     C670    1.427   .     S
C2     C686    1.411   .     S
C3     C10     1.416   .     A
C3     C7      1.401   .     A
C4     C8      1.401   .     A
C4     C5      1.421   .     A
C4     C668    1.427   1_554 S
C5     C16     1.417   .     A
C5     C672    1.393   1_554 S
C6     C7      1.385   .     A
C6     H26     1.070   .     S
C6     C671    1.393   .     S
C7     F74     1.352   .     S
C8     C17     1.392   .     A
C8     H27     1.077   .     S
C9     C17     1.393   .     A
C9     C16     1.412   .     A
C9     H23     1.081   .     S
C10    C18     1.416   .     A
C10    C12     1.490   .     S
C11    C235    1.326   .     S
C11    H252    1.087   .     S
C12    O36     1.315   .     A
C12    O35     1.298   .     A
C13    C14     1.433   .     S
C13    C455    1.326   1_545 S
C13    H468    1.087   1_545 S
C14    O37     1.291   .     A
C14    O38     1.297   .     A
C15    O39     1.298   .     A
C15    O40     1.302   .     A
C15    C17     1.457   .     S
C16    O52     1.402   .     S
C18    C19     1.401   .     A
C18    O63     1.389   .     S
C19    C686    1.387   .     S
C19    H177    1.083   1_455 S
C20    H28     1.076   .     S
C20    C668    1.411   1_554 S
C20    C685    1.387   1_554 S
Cu21   O35     1.955   .     S
Cu21   N32     2.029   .     S
Cu21   O33     1.963   .     S
Cu21   O37     1.955   .     S
Cu21   Cu22    2.700   .     S
Cu21   O39     1.946   .     S
Cu22   O36     1.946   .     S
Cu22   O40     1.955   .     S
Cu22   O34     1.955   .     S
Cu22   N31     2.029   .     S
Cu22   O38     1.963   .     S
H24    C235    1.087   .     S
H25    N106    1.029   .     S
H29    C93     1.083   .     S
H30    C455    1.087   1_545 S
N31    N106    1.285   .     S
N31    O115    1.347   .     S
N32    H173    1.029   1_455 S
N32    N179    1.285   1_455 S
O41    N179    1.347   1_455 S
O41    C190    1.408   1_455 S
C42    H44     1.102   .     S
C42    O115    1.408   .     S
C42    H117    1.110   .     S
C42    C119    1.533   .     S
H43    C190    1.110   1_455 S
C45    C48     1.514   .     S
C45    H46     1.103   .     S
C45    H47     1.109   .     S
C45    C190    1.533   1_455 S
C48    H51     1.109   .     S
C48    H197    1.103   1_455 S
C48    H272    1.110   .     S
H49    C122    1.103   .     S
H50    C492    1.110   1_545 S
O52    C127    1.414   .     S
C53    C56     1.527   .     S
C53    H55     1.113   .     S
C53    H54     1.115   .     S
C53    O200    1.414   1_455 S
C56    H723    1.109   1_554 S
C56    H280    1.107   .     S
C56    C281    1.528   .     S
H57    C722    1.109   .     S
H58    C500    1.107   1_545 S
C59    H60     1.111   .     S
C59    H61     1.108   .     S
C59    C500    1.528   1_545 S
C59    H506    1.110   1_545 S
H62    C281    1.110   .     S
O63    C212    1.422   1_455 S
C64    H65     1.107   .     S
C64    C67     1.529   .     S
C64    H66     1.115   .     S
C64    O137    1.422   .     S
C67    H68     1.107   .     S
C67    C70     1.521   .     S
C67    H69     1.110   .     S
C70    H71     1.106   .     S
C70    H72     1.106   .     S
C70    H73     1.110   .     S
C75    C85     1.433   .     S
C75    O107    1.300   .     A
C75    O108    1.287   .     A
C76    C77     1.419   .     A
C76    C744    1.427   .     S
C76    C760    1.411   .     S
C77    C84     1.416   .     A
C77    C81     1.401   .     A
C78    C82     1.401   .     A
C78    C79     1.421   .     A
C78    C742    1.427   1_554 S
C79    C90     1.417   .     A
C79    C746    1.393   1_554 S
C80    C81     1.385   .     A
C80    H100    1.070   .     S
C80    C745    1.393   .     S
C81    F148    1.352   .     S
C82    C91     1.392   .     A
C82    H101    1.077   .     S
C83    C91     1.393   .     A
C83    C90     1.412   .     A
C83    H97     1.081   .     S
C84    C92     1.416   .     A
C84    C86     1.490   .     S
C85    C309    1.326   .     S
C85    H326    1.087   .     S
C86    O110    1.315   .     A
C86    O109    1.298   .     A
C87    C88     1.433   .     S
C87    C529    1.326   1_545 S
C87    H542    1.087   1_545 S
C88    O111    1.291   .     A
C88    O112    1.297   .     A
C89    O113    1.298   .     A
C89    O114    1.302   .     A
C89    C91     1.457   .     S
C90    O126    1.402   .     S
C92    C93     1.401   .     A
C92    O137    1.389   .     S
C93    C760    1.387   .     S
C94    H102    1.076   .     S
C94    C742    1.411   1_554 S
C94    C759    1.387   1_554 S
Cu95   O109    1.955   .     S
Cu95   N106    2.029   .     S
Cu95   O107    1.963   .     S
Cu95   O111    1.955   .     S
Cu95   Cu96    2.700   .     S
Cu95   O113    1.946   .     S
Cu96   O110    1.946   .     S
Cu96   O114    1.955   .     S
Cu96   O108    1.955   .     S
Cu96   N105    2.029   .     S
Cu96   O112    1.963   .     S
H98    C309    1.087   .     S
H99    N180    1.029   .     S
H103   C167    1.083   .     S
H104   C529    1.087   1_545 S
N105   N180    1.285   .     S
N105   O189    1.347   .     S
C116   H118    1.102   .     S
C116   O189    1.408   .     S
C116   H191    1.110   .     S
C116   C193    1.533   .     S
C119   C122    1.514   .     S
C119   H120    1.103   .     S
C119   H121    1.109   .     S
C122   H125    1.109   .     S
C122   H346    1.110   .     S
H123   C196    1.103   .     S
H124   C566    1.110   1_545 S
O126   C201    1.414   .     S
C127   C130    1.527   .     S
C127   H129    1.113   .     S
C127   H128    1.115   .     S
C130   H797    1.109   1_554 S
C130   H354    1.107   .     S
C130   C355    1.528   .     S
H131   C796    1.109   .     S
H132   C574    1.107   1_545 S
C133   H134    1.111   .     S
C133   H135    1.108   .     S
C133   C574    1.528   1_545 S
C133   H580    1.110   1_545 S
H136   C355    1.110   .     S
C138   H139    1.107   .     S
C138   C141    1.529   .     S
C138   H140    1.115   .     S
C138   O211    1.422   .     S
C141   H142    1.107   .     S
C141   C144    1.521   .     S
C141   H143    1.110   .     S
C144   H145    1.106   .     S
C144   H146    1.106   .     S
C144   H147    1.110   .     S
C149   C159    1.433   .     S
C149   O181    1.300   .     A
C149   O182    1.287   .     A
C150   C151    1.419   .     A
C150   C818    1.427   .     S
C150   C834    1.411   .     S
C151   C158    1.416   .     A
C151   C155    1.401   .     A
C152   C156    1.401   .     A
C152   C153    1.421   .     A
C152   C816    1.427   1_554 S
C153   C164    1.417   .     A
C153   C820    1.393   1_554 S
C154   C155    1.385   .     A
C154   H174    1.070   .     S
C154   C819    1.393   .     S
C155   F222    1.352   .     S
C156   C165    1.392   .     A
C156   H175    1.077   .     S
C157   C165    1.393   .     A
C157   C164    1.412   .     A
C157   H171    1.081   .     S
C158   C166    1.416   .     A
C158   C160    1.490   .     S
C159   C383    1.326   .     S
C159   H400    1.087   .     S
C160   O184    1.315   .     A
C160   O183    1.298   .     A
C161   C162    1.433   .     S
C161   C603    1.326   1_545 S
C161   H616    1.087   1_545 S
C162   O185    1.291   .     A
C162   O186    1.297   .     A
C163   O187    1.298   .     A
C163   O188    1.302   .     A
C163   C165    1.457   .     S
C164   O200    1.402   .     S
C166   C167    1.401   .     A
C166   O211    1.389   .     S
C167   C834    1.387   .     S
C168   H176    1.076   .     S
C168   C816    1.411   1_554 S
C168   C833    1.387   1_554 S
Cu169  O183    1.955   .     S
Cu169  N180    2.029   .     S
Cu169  O181    1.963   .     S
Cu169  O185    1.955   .     S
Cu169  Cu170   2.700   .     S
Cu169  O187    1.946   .     S
Cu170  O184    1.946   .     S
Cu170  O188    1.955   .     S
Cu170  O182    1.955   .     S
Cu170  N179    2.029   .     S
Cu170  O186    1.963   .     S
H172   C383    1.087   .     S
H173   N32     1.029   1_655 S
H177   C19     1.083   1_655 S
H178   C603    1.087   1_545 S
N179   N32     1.285   1_655 S
N179   O41     1.347   1_655 S
C190   H192    1.102   .     S
C190   O41     1.408   1_655 S
C190   H43     1.110   1_655 S
C190   C45     1.533   1_655 S
C193   C196    1.514   .     S
C193   H194    1.103   .     S
C193   H195    1.109   .     S
C196   H199    1.109   .     S
C196   H420    1.110   .     S
H197   C48     1.103   1_655 S
H198   C640    1.110   1_545 S
O200   C53     1.414   1_655 S
C201   C204    1.527   .     S
C201   H203    1.113   .     S
C201   H202    1.115   .     S
C204   H871    1.109   1_554 S
C204   H428    1.107   .     S
C204   C429    1.528   .     S
H205   C870    1.109   .     S
H206   C648    1.107   1_545 S
C207   H208    1.111   .     S
C207   H209    1.108   .     S
C207   C648    1.528   1_545 S
C207   H654    1.110   1_545 S
H210   C429    1.110   .     S
C212   H213    1.107   .     S
C212   C215    1.529   .     S
C212   H214    1.115   .     S
C212   O63     1.422   1_655 S
C215   H216    1.107   .     S
C215   C218    1.521   .     S
C215   H217    1.110   .     S
C218   H219    1.106   .     S
C218   H220    1.106   .     S
C218   H221    1.110   .     S
C223   C233    1.433   .     S
C223   O255    1.300   .     A
C223   O256    1.287   .     A
C224   C225    1.419   .     A
C224   C892    1.427   .     S
C224   C908    1.411   .     S
C225   C232    1.416   .     A
C225   C229    1.401   .     A
C226   C230    1.401   .     A
C226   C227    1.421   .     A
C226   C890    1.427   1_554 S
C227   C238    1.417   .     A
C227   C894    1.393   1_554 S
C228   C229    1.385   .     A
C228   H248    1.070   .     S
C228   C893    1.393   .     S
C229   F296    1.352   .     S
C230   C239    1.392   .     A
C230   H249    1.077   .     S
C231   C239    1.393   .     A
C231   C238    1.412   .     A
C231   H245    1.081   .     S
C232   C240    1.416   .     A
C232   C234    1.490   .     S
C233   C457    1.326   .     S
C233   H474    1.087   .     S
C234   O258    1.315   .     A
C234   O257    1.298   .     A
C235   C236    1.433   .     S
C236   O259    1.291   .     A
C236   O260    1.297   .     A
C237   O261    1.298   .     A
C237   O262    1.302   .     A
C237   C239    1.457   .     S
C238   O274    1.402   .     S
C240   C241    1.401   .     A
C240   O285    1.389   .     S
C241   C908    1.387   .     S
C241   H399    1.083   1_455 S
C242   H250    1.076   .     S
C242   C890    1.411   1_554 S
C242   C907    1.387   1_554 S
Cu243  O257    1.955   .     S
Cu243  N254    2.029   .     S
Cu243  O255    1.963   .     S
Cu243  O259    1.955   .     S
Cu243  Cu244   2.700   .     S
Cu243  O261    1.946   .     S
Cu244  O258    1.946   .     S
Cu244  O262    1.955   .     S
Cu244  O256    1.955   .     S
Cu244  N253    2.029   .     S
Cu244  O260    1.963   .     S
H246   C457    1.087   .     S
H247   N328    1.029   .     S
H251   C315    1.083   .     S
N253   N328    1.285   .     S
N253   O337    1.347   .     S
N254   H395    1.029   1_455 S
N254   N401    1.285   1_455 S
O263   N401    1.347   1_455 S
O263   C412    1.408   1_455 S
C264   H266    1.102   .     S
C264   O337    1.408   .     S
C264   H339    1.110   .     S
C264   C341    1.533   .     S
H265   C412    1.110   1_455 S
C267   C270    1.514   .     S
C267   H268    1.103   .     S
C267   H269    1.109   .     S
C267   C412    1.533   1_455 S
C270   H273    1.109   .     S
C270   H419    1.103   1_455 S
C270   H494    1.110   .     S
H271   C344    1.103   .     S
O274   C349    1.414   .     S
C275   C278    1.527   .     S
C275   H277    1.113   .     S
C275   H276    1.115   .     S
C275   O422    1.414   1_455 S
C278   H945    1.109   1_554 S
C278   H502    1.107   .     S
C278   C503    1.528   .     S
H279   C944    1.109   .     S
C281   H282    1.111   .     S
C281   H283    1.108   .     S
H284   C503    1.110   .     S
O285   C434    1.422   1_455 S
C286   H287    1.107   .     S
C286   C289    1.529   .     S
C286   H288    1.115   .     S
C286   O359    1.422   .     S
C289   H290    1.107   .     S
C289   C292    1.521   .     S
C289   H291    1.110   .     S
C292   H293    1.106   .     S
C292   H294    1.106   .     S
C292   H295    1.110   .     S
C297   C307    1.433   .     S
C297   O329    1.300   .     A
C297   O330    1.287   .     A
C298   C299    1.419   .     A
C298   C966    1.427   .     S
C298   C982    1.411   .     S
C299   C306    1.416   .     A
C299   C303    1.401   .     A
C300   C304    1.401   .     A
C300   C301    1.421   .     A
C300   C964    1.427   1_554 S
C301   C312    1.417   .     A
C301   C968    1.393   1_554 S
C302   C303    1.385   .     A
C302   H322    1.070   .     S
C302   C967    1.393   .     S
C303   F370    1.352   .     S
C304   C313    1.392   .     A
C304   H323    1.077   .     S
C305   C313    1.393   .     A
C305   C312    1.412   .     A
C305   H319    1.081   .     S
C306   C314    1.416   .     A
C306   C308    1.490   .     S
C307   C531    1.326   .     S
C307   H548    1.087   .     S
C308   O332    1.315   .     A
C308   O331    1.298   .     A
C309   C310    1.433   .     S
C310   O333    1.291   .     A
C310   O334    1.297   .     A
C311   O335    1.298   .     A
C311   O336    1.302   .     A
C311   C313    1.457   .     S
C312   O348    1.402   .     S
C314   C315    1.401   .     A
C314   O359    1.389   .     S
C315   C982    1.387   .     S
C316   H324    1.076   .     S
C316   C964    1.411   1_554 S
C316   C981    1.387   1_554 S
Cu317  O331    1.955   .     S
Cu317  N328    2.029   .     S
Cu317  O329    1.963   .     S
Cu317  O333    1.955   .     S
Cu317  Cu318   2.700   .     S
Cu317  O335    1.946   .     S
Cu318  O332    1.946   .     S
Cu318  O336    1.955   .     S
Cu318  O330    1.955   .     S
Cu318  N327    2.029   .     S
Cu318  O334    1.963   .     S
H320   C531    1.087   .     S
H321   N402    1.029   .     S
H325   C389    1.083   .     S
N327   N402    1.285   .     S
N327   O411    1.347   .     S
C338   H340    1.102   .     S
C338   O411    1.408   .     S
C338   H413    1.110   .     S
C338   C415    1.533   .     S
C341   C344    1.514   .     S
C341   H342    1.103   .     S
C341   H343    1.109   .     S
C344   H347    1.109   .     S
C344   H568    1.110   .     S
H345   C418    1.103   .     S
O348   C423    1.414   .     S
C349   C352    1.527   .     S
C349   H351    1.113   .     S
C349   H350    1.115   .     S
C352   H1019   1.109   1_554 S
C352   H576    1.107   .     S
C352   C577    1.528   .     S
H353   C1018   1.109   .     S
C355   H356    1.111   .     S
C355   H357    1.108   .     S
H358   C577    1.110   .     S
C360   H361    1.107   .     S
C360   C363    1.529   .     S
C360   H362    1.115   .     S
C360   O433    1.422   .     S
C363   H364    1.107   .     S
C363   C366    1.521   .     S
C363   H365    1.110   .     S
C366   H367    1.106   .     S
C366   H368    1.106   .     S
C366   H369    1.110   .     S
C371   C381    1.433   .     S
C371   O403    1.300   .     A
C371   O404    1.287   .     A
C372   C373    1.419   .     A
C372   C1040   1.427   .     S
C372   C1056   1.411   .     S
C373   C380    1.416   .     A
C373   C377    1.401   .     A
C374   C378    1.401   .     A
C374   C375    1.421   .     A
C374   C1038   1.427   1_554 S
C375   C386    1.417   .     A
C375   C1042   1.393   1_554 S
C376   C377    1.385   .     A
C376   H396    1.070   .     S
C376   C1041   1.393   .     S
C377   F444    1.352   .     S
C378   C387    1.392   .     A
C378   H397    1.077   .     S
C379   C387    1.393   .     A
C379   C386    1.412   .     A
C379   H393    1.081   .     S
C380   C388    1.416   .     A
C380   C382    1.490   .     S
C381   C605    1.326   .     S
C381   H622    1.087   .     S
C382   O406    1.315   .     A
C382   O405    1.298   .     A
C383   C384    1.433   .     S
C384   O407    1.291   .     A
C384   O408    1.297   .     A
C385   O409    1.298   .     A
C385   O410    1.302   .     A
C385   C387    1.457   .     S
C386   O422    1.402   .     S
C388   C389    1.401   .     A
C388   O433    1.389   .     S
C389   C1056   1.387   .     S
C390   H398    1.076   .     S
C390   C1038   1.411   1_554 S
C390   C1055   1.387   1_554 S
Cu391  O405    1.955   .     S
Cu391  N402    2.029   .     S
Cu391  O403    1.963   .     S
Cu391  O407    1.955   .     S
Cu391  Cu392   2.700   .     S
Cu391  O409    1.946   .     S
Cu392  O406    1.946   .     S
Cu392  O410    1.955   .     S
Cu392  O404    1.955   .     S
Cu392  N401    2.029   .     S
Cu392  O408    1.963   .     S
H394   C605    1.087   .     S
H395   N254    1.029   1_655 S
H399   C241    1.083   1_655 S
N401   N254    1.285   1_655 S
N401   O263    1.347   1_655 S
C412   H414    1.102   .     S
C412   O263    1.408   1_655 S
C412   H265    1.110   1_655 S
C412   C267    1.533   1_655 S
C415   C418    1.514   .     S
C415   H416    1.103   .     S
C415   H417    1.109   .     S
C418   H421    1.109   .     S
C418   H642    1.110   .     S
H419   C270    1.103   1_655 S
O422   C275    1.414   1_655 S
C423   C426    1.527   .     S
C423   H425    1.113   .     S
C423   H424    1.115   .     S
C426   H1093   1.109   1_554 S
C426   H650    1.107   .     S
C426   C651    1.528   .     S
H427   C1092   1.109   .     S
C429   H430    1.111   .     S
C429   H431    1.108   .     S
H432   C651    1.110   .     S
C434   H435    1.107   .     S
C434   C437    1.529   .     S
C434   H436    1.115   .     S
C434   O285    1.422   1_655 S
C437   H438    1.107   .     S
C437   C440    1.521   .     S
C437   H439    1.110   .     S
C440   H441    1.106   .     S
C440   H442    1.106   .     S
C440   H443    1.110   .     S
C445   C455    1.433   .     S
C445   O477    1.300   .     A
C445   O478    1.287   .     A
C446   C447    1.419   .     A
C446   C1114   1.427   .     S
C446   C1130   1.411   .     S
C447   C454    1.416   .     A
C447   C451    1.401   .     A
C448   C452    1.401   .     A
C448   C449    1.421   .     A
C448   C1112   1.427   1_554 S
C449   C460    1.417   .     A
C449   C1116   1.393   1_554 S
C450   C451    1.385   .     A
C450   H470    1.070   .     S
C450   C1115   1.393   .     S
C451   F518    1.352   .     S
C452   C461    1.392   .     A
C452   H471    1.077   .     S
C453   C461    1.393   .     A
C453   C460    1.412   .     A
C453   H467    1.081   .     S
C454   C462    1.416   .     A
C454   C456    1.490   .     S
C455   C13     1.326   1_565 S
C455   H30     1.087   1_565 S
C456   O480    1.315   .     A
C456   O479    1.298   .     A
C457   C458    1.433   .     S
C458   O481    1.291   .     A
C458   O482    1.297   .     A
C459   O483    1.298   .     A
C459   O484    1.302   .     A
C459   C461    1.457   .     S
C460   O496    1.402   .     S
C462   C463    1.401   .     A
C462   O507    1.389   .     S
C463   C1130   1.387   .     S
C463   H621    1.083   1_455 S
C464   H472    1.076   .     S
C464   C1112   1.411   1_554 S
C464   C1129   1.387   1_554 S
Cu465  O479    1.955   .     S
Cu465  N476    2.029   .     S
Cu465  O477    1.963   .     S
Cu465  O481    1.955   .     S
Cu465  Cu466   2.700   .     S
Cu465  O483    1.946   .     S
Cu466  O480    1.946   .     S
Cu466  O484    1.955   .     S
Cu466  O478    1.955   .     S
Cu466  N475    2.029   .     S
Cu466  O482    1.963   .     S
H468   C13     1.087   1_565 S
H469   N550    1.029   .     S
H473   C537    1.083   .     S
N475   N550    1.285   .     S
N475   O559    1.347   .     S
N476   H617    1.029   1_455 S
N476   N623    1.285   1_455 S
O485   N623    1.347   1_455 S
O485   C634    1.408   1_455 S
C486   H488    1.102   .     S
C486   O559    1.408   .     S
C486   H561    1.110   .     S
C486   C563    1.533   .     S
H487   C634    1.110   1_455 S
C489   C492    1.514   .     S
C489   H490    1.103   .     S
C489   H491    1.109   .     S
C489   C634    1.533   1_455 S
C492   H495    1.109   .     S
C492   H641    1.103   1_455 S
C492   H50     1.110   1_565 S
H493   C566    1.103   .     S
O496   C571    1.414   .     S
C497   C500    1.527   .     S
C497   H499    1.113   .     S
C497   H498    1.115   .     S
C497   O644    1.414   1_455 S
C500   H1167   1.109   1_554 S
C500   H58     1.107   1_565 S
C500   C59     1.528   1_565 S
H501   C1166   1.109   .     S
C503   H504    1.111   .     S
C503   H505    1.108   .     S
H506   C59     1.110   1_565 S
O507   C656    1.422   1_455 S
C508   H509    1.107   .     S
C508   C511    1.529   .     S
C508   H510    1.115   .     S
C508   O581    1.422   .     S
C511   H512    1.107   .     S
C511   C514    1.521   .     S
C511   H513    1.110   .     S
C514   H515    1.106   .     S
C514   H516    1.106   .     S
C514   H517    1.110   .     S
C519   C529    1.433   .     S
C519   O551    1.300   .     A
C519   O552    1.287   .     A
C520   C521    1.419   .     A
C520   C1188   1.427   .     S
C520   C1204   1.411   .     S
C521   C528    1.416   .     A
C521   C525    1.401   .     A
C522   C526    1.401   .     A
C522   C523    1.421   .     A
C522   C1186   1.427   1_554 S
C523   C534    1.417   .     A
C523   C1190   1.393   1_554 S
C524   C525    1.385   .     A
C524   H544    1.070   .     S
C524   C1189   1.393   .     S
C525   F592    1.352   .     S
C526   C535    1.392   .     A
C526   H545    1.077   .     S
C527   C535    1.393   .     A
C527   C534    1.412   .     A
C527   H541    1.081   .     S
C528   C536    1.416   .     A
C528   C530    1.490   .     S
C529   C87     1.326   1_565 S
C529   H104    1.087   1_565 S
C530   O554    1.315   .     A
C530   O553    1.298   .     A
C531   C532    1.433   .     S
C532   O555    1.291   .     A
C532   O556    1.297   .     A
C533   O557    1.298   .     A
C533   O558    1.302   .     A
C533   C535    1.457   .     S
C534   O570    1.402   .     S
C536   C537    1.401   .     A
C536   O581    1.389   .     S
C537   C1204   1.387   .     S
C538   H546    1.076   .     S
C538   C1186   1.411   1_554 S
C538   C1203   1.387   1_554 S
Cu539  O553    1.955   .     S
Cu539  N550    2.029   .     S
Cu539  O551    1.963   .     S
Cu539  O555    1.955   .     S
Cu539  Cu540   2.700   .     S
Cu539  O557    1.946   .     S
Cu540  O554    1.946   .     S
Cu540  O558    1.955   .     S
Cu540  O552    1.955   .     S
Cu540  N549    2.029   .     S
Cu540  O556    1.963   .     S
H542   C87     1.087   1_565 S
H543   N624    1.029   .     S
H547   C611    1.083   .     S
N549   N624    1.285   .     S
N549   O633    1.347   .     S
C560   H562    1.102   .     S
C560   O633    1.408   .     S
C560   H635    1.110   .     S
C560   C637    1.533   .     S
C563   C566    1.514   .     S
C563   H564    1.103   .     S
C563   H565    1.109   .     S
C566   H569    1.109   .     S
C566   H124    1.110   1_565 S
H567   C640    1.103   .     S
O570   C645    1.414   .     S
C571   C574    1.527   .     S
C571   H573    1.113   .     S
C571   H572    1.115   .     S
C574   H1241   1.109   1_554 S
C574   H132    1.107   1_565 S
C574   C133    1.528   1_565 S
H575   C1240   1.109   .     S
C577   H578    1.111   .     S
C577   H579    1.108   .     S
H580   C133    1.110   1_565 S
C582   H583    1.107   .     S
C582   C585    1.529   .     S
C582   H584    1.115   .     S
C582   O655    1.422   .     S
C585   H586    1.107   .     S
C585   C588    1.521   .     S
C585   H587    1.110   .     S
C588   H589    1.106   .     S
C588   H590    1.106   .     S
C588   H591    1.110   .     S
C593   C603    1.433   .     S
C593   O625    1.300   .     A
C593   O626    1.287   .     A
C594   C595    1.419   .     A
C594   C1262   1.427   .     S
C594   C1278   1.411   .     S
C595   C602    1.416   .     A
C595   C599    1.401   .     A
C596   C600    1.401   .     A
C596   C597    1.421   .     A
C596   C1260   1.427   1_554 S
C597   C608    1.417   .     A
C597   C1264   1.393   1_554 S
C598   C599    1.385   .     A
C598   H618    1.070   .     S
C598   C1263   1.393   .     S
C599   F666    1.352   .     S
C600   C609    1.392   .     A
C600   H619    1.077   .     S
C601   C609    1.393   .     A
C601   C608    1.412   .     A
C601   H615    1.081   .     S
C602   C610    1.416   .     A
C602   C604    1.490   .     S
C603   C161    1.326   1_565 S
C603   H178    1.087   1_565 S
C604   O628    1.315   .     A
C604   O627    1.298   .     A
C605   C606    1.433   .     S
C606   O629    1.291   .     A
C606   O630    1.297   .     A
C607   O631    1.298   .     A
C607   O632    1.302   .     A
C607   C609    1.457   .     S
C608   O644    1.402   .     S
C610   C611    1.401   .     A
C610   O655    1.389   .     S
C611   C1278   1.387   .     S
C612   H620    1.076   .     S
C612   C1260   1.411   1_554 S
C612   C1277   1.387   1_554 S
Cu613  O627    1.955   .     S
Cu613  N624    2.029   .     S
Cu613  O625    1.963   .     S
Cu613  O629    1.955   .     S
Cu613  Cu614   2.700   .     S
Cu613  O631    1.946   .     S
Cu614  O628    1.946   .     S
Cu614  O632    1.955   .     S
Cu614  O626    1.955   .     S
Cu614  N623    2.029   .     S
Cu614  O630    1.963   .     S
H616   C161    1.087   1_565 S
H617   N476    1.029   1_655 S
H621   C463    1.083   1_655 S
N623   N476    1.285   1_655 S
N623   O485    1.347   1_655 S
C634   H636    1.102   .     S
C634   O485    1.408   1_655 S
C634   H487    1.110   1_655 S
C634   C489    1.533   1_655 S
C637   C640    1.514   .     S
C637   H638    1.103   .     S
C637   H639    1.109   .     S
C640   H643    1.109   .     S
C640   H198    1.110   1_565 S
H641   C492    1.103   1_655 S
O644   C497    1.414   1_655 S
C645   C648    1.527   .     S
C645   H647    1.113   .     S
C645   H646    1.115   .     S
C648   H1315   1.109   1_554 S
C648   H206    1.107   1_565 S
C648   C207    1.528   1_565 S
H649   C1314   1.109   .     S
C651   H652    1.111   .     S
C651   H653    1.108   .     S
H654   C207    1.110   1_565 S
C656   H657    1.107   .     S
C656   C659    1.529   .     S
C656   H658    1.115   .     S
C656   O507    1.422   1_655 S
C659   H660    1.107   .     S
C659   C662    1.521   .     S
C659   H661    1.110   .     S
C662   H663    1.106   .     S
C662   H664    1.106   .     S
C662   H665    1.110   .     S
C667   C677    1.433   .     S
C667   O699    1.300   .     A
C667   O700    1.287   .     A
C668   C669    1.419   .     A
C668   C4      1.427   1_556 S
C668   C20     1.411   1_556 S
C669   C676    1.416   .     A
C669   C673    1.401   .     A
C670   C674    1.401   .     A
C670   C671    1.421   .     A
C671   C682    1.417   .     A
C672   C673    1.385   .     A
C672   H692    1.070   .     S
C672   C5      1.393   1_556 S
C673   F740    1.352   .     S
C674   C683    1.392   .     A
C674   H693    1.077   .     S
C675   C683    1.393   .     A
C675   C682    1.412   .     A
C675   H689    1.081   .     S
C676   C684    1.416   .     A
C676   C678    1.490   .     S
C677   C901    1.326   .     S
C677   H918    1.087   .     S
C678   O702    1.315   .     A
C678   O701    1.298   .     A
C679   C680    1.433   .     S
C679   C1121   1.326   1_545 S
C679   H1134   1.087   1_545 S
C680   O703    1.291   .     A
C680   O704    1.297   .     A
C681   O705    1.298   .     A
C681   O706    1.302   .     A
C681   C683    1.457   .     S
C682   O718    1.402   .     S
C684   C685    1.401   .     A
C684   O729    1.389   .     S
C685   C20     1.387   1_556 S
C685   H843    1.083   1_455 S
C686   H694    1.076   .     S
Cu687  O701    1.955   .     S
Cu687  N698    2.029   .     S
Cu687  O699    1.963   .     S
Cu687  O703    1.955   .     S
Cu687  Cu688   2.700   .     S
Cu687  O705    1.946   .     S
Cu688  O702    1.946   .     S
Cu688  O706    1.955   .     S
Cu688  O700    1.955   .     S
Cu688  N697    2.029   .     S
Cu688  O704    1.963   .     S
H690   C901    1.087   .     S
H691   N772    1.029   .     S
H695   C759    1.083   .     S
H696   C1121   1.087   1_545 S
N697   N772    1.285   .     S
N697   O781    1.347   .     S
N698   H839    1.029   1_455 S
N698   N845    1.285   1_455 S
O707   N845    1.347   1_455 S
O707   C856    1.408   1_455 S
C708   H710    1.102   .     S
C708   O781    1.408   .     S
C708   H783    1.110   .     S
C708   C785    1.533   .     S
H709   C856    1.110   1_455 S
C711   C714    1.514   .     S
C711   H712    1.103   .     S
C711   H713    1.109   .     S
C711   C856    1.533   1_455 S
C714   H717    1.109   .     S
C714   H863    1.103   1_455 S
C714   H938    1.110   .     S
H715   C788    1.103   .     S
H716   C1158   1.110   1_545 S
O718   C793    1.414   .     S
C719   C722    1.527   .     S
C719   H721    1.113   .     S
C719   H720    1.115   .     S
C719   O866    1.414   1_455 S
C722   H946    1.107   .     S
C722   C947    1.528   .     S
H723   C56     1.109   1_556 S
H724   C1166   1.107   1_545 S
C725   H726    1.111   .     S
C725   H727    1.108   .     S
C725   C1166   1.528   1_545 S
C725   H1172   1.110   1_545 S
H728   C947    1.110   .     S
O729   C878    1.422   1_455 S
C730   H731    1.107   .     S
C730   C733    1.529   .     S
C730   H732    1.115   .     S
C730   O803    1.422   .     S
C733   H734    1.107   .     S
C733   C736    1.521   .     S
C733   H735    1.110   .     S
C736   H737    1.106   .     S
C736   H738    1.106   .     S
C736   H739    1.110   .     S
C741   C751    1.433   .     S
C741   O773    1.300   .     A
C741   O774    1.287   .     A
C742   C743    1.419   .     A
C742   C78     1.427   1_556 S
C742   C94     1.411   1_556 S
C743   C750    1.416   .     A
C743   C747    1.401   .     A
C744   C748    1.401   .     A
C744   C745    1.421   .     A
C745   C756    1.417   .     A
C746   C747    1.385   .     A
C746   H766    1.070   .     S
C746   C79     1.393   1_556 S
C747   F814    1.352   .     S
C748   C757    1.392   .     A
C748   H767    1.077   .     S
C749   C757    1.393   .     A
C749   C756    1.412   .     A
C749   H763    1.081   .     S
C750   C758    1.416   .     A
C750   C752    1.490   .     S
C751   C975    1.326   .     S
C751   H992    1.087   .     S
C752   O776    1.315   .     A
C752   O775    1.298   .     A
C753   C754    1.433   .     S
C753   C1195   1.326   1_545 S
C753   H1208   1.087   1_545 S
C754   O777    1.291   .     A
C754   O778    1.297   .     A
C755   O779    1.298   .     A
C755   O780    1.302   .     A
C755   C757    1.457   .     S
C756   O792    1.402   .     S
C758   C759    1.401   .     A
C758   O803    1.389   .     S
C759   C94     1.387   1_556 S
C760   H768    1.076   .     S
Cu761  O775    1.955   .     S
Cu761  N772    2.029   .     S
Cu761  O773    1.963   .     S
Cu761  O777    1.955   .     S
Cu761  Cu762   2.700   .     S
Cu761  O779    1.946   .     S
Cu762  O776    1.946   .     S
Cu762  O780    1.955   .     S
Cu762  O774    1.955   .     S
Cu762  N771    2.029   .     S
Cu762  O778    1.963   .     S
H764   C975    1.087   .     S
H765   N846    1.029   .     S
H769   C833    1.083   .     S
H770   C1195   1.087   1_545 S
N771   N846    1.285   .     S
N771   O855    1.347   .     S
C782   H784    1.102   .     S
C782   O855    1.408   .     S
C782   H857    1.110   .     S
C782   C859    1.533   .     S
C785   C788    1.514   .     S
C785   H786    1.103   .     S
C785   H787    1.109   .     S
C788   H791    1.109   .     S
C788   H1012   1.110   .     S
H789   C862    1.103   .     S
H790   C1232   1.110   1_545 S
O792   C867    1.414   .     S
C793   C796    1.527   .     S
C793   H795    1.113   .     S
C793   H794    1.115   .     S
C796   H1020   1.107   .     S
C796   C1021   1.528   .     S
H797   C130    1.109   1_556 S
H798   C1240   1.107   1_545 S
C799   H800    1.111   .     S
C799   H801    1.108   .     S
C799   C1240   1.528   1_545 S
C799   H1246   1.110   1_545 S
H802   C1021   1.110   .     S
C804   H805    1.107   .     S
C804   C807    1.529   .     S
C804   H806    1.115   .     S
C804   O877    1.422   .     S
C807   H808    1.107   .     S
C807   C810    1.521   .     S
C807   H809    1.110   .     S
C810   H811    1.106   .     S
C810   H812    1.106   .     S
C810   H813    1.110   .     S
C815   C825    1.433   .     S
C815   O847    1.300   .     A
C815   O848    1.287   .     A
C816   C817    1.419   .     A
C816   C152    1.427   1_556 S
C816   C168    1.411   1_556 S
C817   C824    1.416   .     A
C817   C821    1.401   .     A
C818   C822    1.401   .     A
C818   C819    1.421   .     A
C819   C830    1.417   .     A
C820   C821    1.385   .     A
C820   H840    1.070   .     S
C820   C153    1.393   1_556 S
C821   F888    1.352   .     S
C822   C831    1.392   .     A
C822   H841    1.077   .     S
C823   C831    1.393   .     A
C823   C830    1.412   .     A
C823   H837    1.081   .     S
C824   C832    1.416   .     A
C824   C826    1.490   .     S
C825   C1049   1.326   .     S
C825   H1066   1.087   .     S
C826   O850    1.315   .     A
C826   O849    1.298   .     A
C827   C828    1.433   .     S
C827   C1269   1.326   1_545 S
C827   H1282   1.087   1_545 S
C828   O851    1.291   .     A
C828   O852    1.297   .     A
C829   O853    1.298   .     A
C829   O854    1.302   .     A
C829   C831    1.457   .     S
C830   O866    1.402   .     S
C832   C833    1.401   .     A
C832   O877    1.389   .     S
C833   C168    1.387   1_556 S
C834   H842    1.076   .     S
Cu835  O849    1.955   .     S
Cu835  N846    2.029   .     S
Cu835  O847    1.963   .     S
Cu835  O851    1.955   .     S
Cu835  Cu836   2.700   .     S
Cu835  O853    1.946   .     S
Cu836  O850    1.946   .     S
Cu836  O854    1.955   .     S
Cu836  O848    1.955   .     S
Cu836  N845    2.029   .     S
Cu836  O852    1.963   .     S
H838   C1049   1.087   .     S
H839   N698    1.029   1_655 S
H843   C685    1.083   1_655 S
H844   C1269   1.087   1_545 S
N845   N698    1.285   1_655 S
N845   O707    1.347   1_655 S
C856   H858    1.102   .     S
C856   O707    1.408   1_655 S
C856   H709    1.110   1_655 S
C856   C711    1.533   1_655 S
C859   C862    1.514   .     S
C859   H860    1.103   .     S
C859   H861    1.109   .     S
C862   H865    1.109   .     S
C862   H1086   1.110   .     S
H863   C714    1.103   1_655 S
H864   C1306   1.110   1_545 S
O866   C719    1.414   1_655 S
C867   C870    1.527   .     S
C867   H869    1.113   .     S
C867   H868    1.115   .     S
C870   H1094   1.107   .     S
C870   C1095   1.528   .     S
H871   C204    1.109   1_556 S
H872   C1314   1.107   1_545 S
C873   H874    1.111   .     S
C873   H875    1.108   .     S
C873   C1314   1.528   1_545 S
C873   H1320   1.110   1_545 S
H876   C1095   1.110   .     S
C878   H879    1.107   .     S
C878   C881    1.529   .     S
C878   H880    1.115   .     S
C878   O729    1.422   1_655 S
C881   H882    1.107   .     S
C881   C884    1.521   .     S
C881   H883    1.110   .     S
C884   H885    1.106   .     S
C884   H886    1.106   .     S
C884   H887    1.110   .     S
C889   C899    1.433   .     S
C889   O921    1.300   .     A
C889   O922    1.287   .     A
C890   C891    1.419   .     A
C890   C226    1.427   1_556 S
C890   C242    1.411   1_556 S
C891   C898    1.416   .     A
C891   C895    1.401   .     A
C892   C896    1.401   .     A
C892   C893    1.421   .     A
C893   C904    1.417   .     A
C894   C895    1.385   .     A
C894   H914    1.070   .     S
C894   C227    1.393   1_556 S
C895   F962    1.352   .     S
C896   C905    1.392   .     A
C896   H915    1.077   .     S
C897   C905    1.393   .     A
C897   C904    1.412   .     A
C897   H911    1.081   .     S
C898   C906    1.416   .     A
C898   C900    1.490   .     S
C899   C1123   1.326   .     S
C899   H1140   1.087   .     S
C900   O924    1.315   .     A
C900   O923    1.298   .     A
C901   C902    1.433   .     S
C902   O925    1.291   .     A
C902   O926    1.297   .     A
C903   O927    1.298   .     A
C903   O928    1.302   .     A
C903   C905    1.457   .     S
C904   O940    1.402   .     S
C906   C907    1.401   .     A
C906   O951    1.389   .     S
C907   C242    1.387   1_556 S
C907   H1065   1.083   1_455 S
C908   H916    1.076   .     S
Cu909  O923    1.955   .     S
Cu909  N920    2.029   .     S
Cu909  O921    1.963   .     S
Cu909  O925    1.955   .     S
Cu909  Cu910   2.700   .     S
Cu909  O927    1.946   .     S
Cu910  O924    1.946   .     S
Cu910  O928    1.955   .     S
Cu910  O922    1.955   .     S
Cu910  N919    2.029   .     S
Cu910  O926    1.963   .     S
H912   C1123   1.087   .     S
H913   N994    1.029   .     S
H917   C981    1.083   .     S
N919   N994    1.285   .     S
N919   O1003   1.347   .     S
N920   H1061   1.029   1_455 S
N920   N1067   1.285   1_455 S
O929   N1067   1.347   1_455 S
O929   C1078   1.408   1_455 S
C930   H932    1.102   .     S
C930   O1003   1.408   .     S
C930   H1005   1.110   .     S
C930   C1007   1.533   .     S
H931   C1078   1.110   1_455 S
C933   C936    1.514   .     S
C933   H934    1.103   .     S
C933   H935    1.109   .     S
C933   C1078   1.533   1_455 S
C936   H939    1.109   .     S
C936   H1085   1.103   1_455 S
C936   H1160   1.110   .     S
H937   C1010   1.103   .     S
O940   C1015   1.414   .     S
C941   C944    1.527   .     S
C941   H943    1.113   .     S
C941   H942    1.115   .     S
C941   O1088   1.414   1_455 S
C944   H1168   1.107   .     S
C944   C1169   1.528   .     S
H945   C278    1.109   1_556 S
C947   H948    1.111   .     S
C947   H949    1.108   .     S
H950   C1169   1.110   .     S
O951   C1100   1.422   1_455 S
C952   H953    1.107   .     S
C952   C955    1.529   .     S
C952   H954    1.115   .     S
C952   O1025   1.422   .     S
C955   H956    1.107   .     S
C955   C958    1.521   .     S
C955   H957    1.110   .     S
C958   H959    1.106   .     S
C958   H960    1.106   .     S
C958   H961    1.110   .     S
C963   C973    1.433   .     S
C963   O995    1.300   .     A
C963   O996    1.287   .     A
C964   C965    1.419   .     A
C964   C300    1.427   1_556 S
C964   C316    1.411   1_556 S
C965   C972    1.416   .     A
C965   C969    1.401   .     A
C966   C970    1.401   .     A
C966   C967    1.421   .     A
C967   C978    1.417   .     A
C968   C969    1.385   .     A
C968   H988    1.070   .     S
C968   C301    1.393   1_556 S
C969   F1036   1.352   .     S
C970   C979    1.392   .     A
C970   H989    1.077   .     S
C971   C979    1.393   .     A
C971   C978    1.412   .     A
C971   H985    1.081   .     S
C972   C980    1.416   .     A
C972   C974    1.490   .     S
C973   C1197   1.326   .     S
C973   H1214   1.087   .     S
C974   O998    1.315   .     A
C974   O997    1.298   .     A
C975   C976    1.433   .     S
C976   O999    1.291   .     A
C976   O1000   1.297   .     A
C977   O1001   1.298   .     A
C977   O1002   1.302   .     A
C977   C979    1.457   .     S
C978   O1014   1.402   .     S
C980   C981    1.401   .     A
C980   O1025   1.389   .     S
C981   C316    1.387   1_556 S
C982   H990    1.076   .     S
Cu983  O997    1.955   .     S
Cu983  N994    2.029   .     S
Cu983  O995    1.963   .     S
Cu983  O999    1.955   .     S
Cu983  Cu984   2.700   .     S
Cu983  O1001   1.946   .     S
Cu984  O998    1.946   .     S
Cu984  O1002   1.955   .     S
Cu984  O996    1.955   .     S
Cu984  N993    2.029   .     S
Cu984  O1000   1.963   .     S
H986   C1197   1.087   .     S
H987   N1068   1.029   .     S
H991   C1055   1.083   .     S
N993   N1068   1.285   .     S
N993   O1077   1.347   .     S
C1004  H1006   1.102   .     S
C1004  O1077   1.408   .     S
C1004  H1079   1.110   .     S
C1004  C1081   1.533   .     S
C1007  C1010   1.514   .     S
C1007  H1008   1.103   .     S
C1007  H1009   1.109   .     S
C1010  H1013   1.109   .     S
C1010  H1234   1.110   .     S
H1011  C1084   1.103   .     S
O1014  C1089   1.414   .     S
C1015  C1018   1.527   .     S
C1015  H1017   1.113   .     S
C1015  H1016   1.115   .     S
C1018  H1242   1.107   .     S
C1018  C1243   1.528   .     S
H1019  C352    1.109   1_556 S
C1021  H1022   1.111   .     S
C1021  H1023   1.108   .     S
H1024  C1243   1.110   .     S
C1026  H1027   1.107   .     S
C1026  C1029   1.529   .     S
C1026  H1028   1.115   .     S
C1026  O1099   1.422   .     S
C1029  H1030   1.107   .     S
C1029  C1032   1.521   .     S
C1029  H1031   1.110   .     S
C1032  H1033   1.106   .     S
C1032  H1034   1.106   .     S
C1032  H1035   1.110   .     S
C1037  C1047   1.433   .     S
C1037  O1069   1.300   .     A
C1037  O1070   1.287   .     A
C1038  C1039   1.419   .     A
C1038  C374    1.427   1_556 S
C1038  C390    1.411   1_556 S
C1039  C1046   1.416   .     A
C1039  C1043   1.401   .     A
C1040  C1044   1.401   .     A
C1040  C1041   1.421   .     A
C1041  C1052   1.417   .     A
C1042  C1043   1.385   .     A
C1042  H1062   1.070   .     S
C1042  C375    1.393   1_556 S
C1043  F1110   1.352   .     S
C1044  C1053   1.392   .     A
C1044  H1063   1.077   .     S
C1045  C1053   1.393   .     A
C1045  C1052   1.412   .     A
C1045  H1059   1.081   .     S
C1046  C1054   1.416   .     A
C1046  C1048   1.490   .     S
C1047  C1271   1.326   .     S
C1047  H1288   1.087   .     S
C1048  O1072   1.315   .     A
C1048  O1071   1.298   .     A
C1049  C1050   1.433   .     S
C1050  O1073   1.291   .     A
C1050  O1074   1.297   .     A
C1051  O1075   1.298   .     A
C1051  O1076   1.302   .     A
C1051  C1053   1.457   .     S
C1052  O1088   1.402   .     S
C1054  C1055   1.401   .     A
C1054  O1099   1.389   .     S
C1055  C390    1.387   1_556 S
C1056  H1064   1.076   .     S
Cu1057 O1071   1.955   .     S
Cu1057 N1068   2.029   .     S
Cu1057 O1069   1.963   .     S
Cu1057 O1073   1.955   .     S
Cu1057 Cu1058  2.700   .     S
Cu1057 O1075   1.946   .     S
Cu1058 O1072   1.946   .     S
Cu1058 O1076   1.955   .     S
Cu1058 O1070   1.955   .     S
Cu1058 N1067   2.029   .     S
Cu1058 O1074   1.963   .     S
H1060  C1271   1.087   .     S
H1061  N920    1.029   1_655 S
H1065  C907    1.083   1_655 S
N1067  N920    1.285   1_655 S
N1067  O929    1.347   1_655 S
C1078  H1080   1.102   .     S
C1078  O929    1.408   1_655 S
C1078  H931    1.110   1_655 S
C1078  C933    1.533   1_655 S
C1081  C1084   1.514   .     S
C1081  H1082   1.103   .     S
C1081  H1083   1.109   .     S
C1084  H1087   1.109   .     S
C1084  H1308   1.110   .     S
H1085  C936    1.103   1_655 S
O1088  C941    1.414   1_655 S
C1089  C1092   1.527   .     S
C1089  H1091   1.113   .     S
C1089  H1090   1.115   .     S
C1092  H1316   1.107   .     S
C1092  C1317   1.528   .     S
H1093  C426    1.109   1_556 S
C1095  H1096   1.111   .     S
C1095  H1097   1.108   .     S
H1098  C1317   1.110   .     S
C1100  H1101   1.107   .     S
C1100  C1103   1.529   .     S
C1100  H1102   1.115   .     S
C1100  O951    1.422   1_655 S
C1103  H1104   1.107   .     S
C1103  C1106   1.521   .     S
C1103  H1105   1.110   .     S
C1106  H1107   1.106   .     S
C1106  H1108   1.106   .     S
C1106  H1109   1.110   .     S
C1111  C1121   1.433   .     S
C1111  O1143   1.300   .     A
C1111  O1144   1.287   .     A
C1112  C1113   1.419   .     A
C1112  C448    1.427   1_556 S
C1112  C464    1.411   1_556 S
C1113  C1120   1.416   .     A
C1113  C1117   1.401   .     A
C1114  C1118   1.401   .     A
C1114  C1115   1.421   .     A
C1115  C1126   1.417   .     A
C1116  C1117   1.385   .     A
C1116  H1136   1.070   .     S
C1116  C449    1.393   1_556 S
C1117  F1184   1.352   .     S
C1118  C1127   1.392   .     A
C1118  H1137   1.077   .     S
C1119  C1127   1.393   .     A
C1119  C1126   1.412   .     A
C1119  H1133   1.081   .     S
C1120  C1128   1.416   .     A
C1120  C1122   1.490   .     S
C1121  C679    1.326   1_565 S
C1121  H696    1.087   1_565 S
C1122  O1146   1.315   .     A
C1122  O1145   1.298   .     A
C1123  C1124   1.433   .     S
C1124  O1147   1.291   .     A
C1124  O1148   1.297   .     A
C1125  O1149   1.298   .     A
C1125  O1150   1.302   .     A
C1125  C1127   1.457   .     S
C1126  O1162   1.402   .     S
C1128  C1129   1.401   .     A
C1128  O1173   1.389   .     S
C1129  C464    1.387   1_556 S
C1129  H1287   1.083   1_455 S
C1130  H1138   1.076   .     S
Cu1131 O1145   1.955   .     S
Cu1131 N1142   2.029   .     S
Cu1131 O1143   1.963   .     S
Cu1131 O1147   1.955   .     S
Cu1131 Cu1132  2.700   .     S
Cu1131 O1149   1.946   .     S
Cu1132 O1146   1.946   .     S
Cu1132 O1150   1.955   .     S
Cu1132 O1144   1.955   .     S
Cu1132 N1141   2.029   .     S
Cu1132 O1148   1.963   .     S
H1134  C679    1.087   1_565 S
H1135  N1216   1.029   .     S
H1139  C1203   1.083   .     S
N1141  N1216   1.285   .     S
N1141  O1225   1.347   .     S
N1142  H1283   1.029   1_455 S
N1142  N1289   1.285   1_455 S
O1151  N1289   1.347   1_455 S
O1151  C1300   1.408   1_455 S
C1152  H1154   1.102   .     S
C1152  O1225   1.408   .     S
C1152  H1227   1.110   .     S
C1152  C1229   1.533   .     S
H1153  C1300   1.110   1_455 S
C1155  C1158   1.514   .     S
C1155  H1156   1.103   .     S
C1155  H1157   1.109   .     S
C1155  C1300   1.533   1_455 S
C1158  H1161   1.109   .     S
C1158  H1307   1.103   1_455 S
C1158  H716    1.110   1_565 S
H1159  C1232   1.103   .     S
O1162  C1237   1.414   .     S
C1163  C1166   1.527   .     S
C1163  H1165   1.113   .     S
C1163  H1164   1.115   .     S
C1163  O1310   1.414   1_455 S
C1166  H724    1.107   1_565 S
C1166  C725    1.528   1_565 S
H1167  C500    1.109   1_556 S
C1169  H1170   1.111   .     S
C1169  H1171   1.108   .     S
H1172  C725    1.110   1_565 S
O1173  C1322   1.422   1_455 S
C1174  H1175   1.107   .     S
C1174  C1177   1.529   .     S
C1174  H1176   1.115   .     S
C1174  O1247   1.422   .     S
C1177  H1178   1.107   .     S
C1177  C1180   1.521   .     S
C1177  H1179   1.110   .     S
C1180  H1181   1.106   .     S
C1180  H1182   1.106   .     S
C1180  H1183   1.110   .     S
C1185  C1195   1.433   .     S
C1185  O1217   1.300   .     A
C1185  O1218   1.287   .     A
C1186  C1187   1.419   .     A
C1186  C522    1.427   1_556 S
C1186  C538    1.411   1_556 S
C1187  C1194   1.416   .     A
C1187  C1191   1.401   .     A
C1188  C1192   1.401   .     A
C1188  C1189   1.421   .     A
C1189  C1200   1.417   .     A
C1190  C1191   1.385   .     A
C1190  H1210   1.070   .     S
C1190  C523    1.393   1_556 S
C1191  F1258   1.352   .     S
C1192  C1201   1.392   .     A
C1192  H1211   1.077   .     S
C1193  C1201   1.393   .     A
C1193  C1200   1.412   .     A
C1193  H1207   1.081   .     S
C1194  C1202   1.416   .     A
C1194  C1196   1.490   .     S
C1195  C753    1.326   1_565 S
C1195  H770    1.087   1_565 S
C1196  O1220   1.315   .     A
C1196  O1219   1.298   .     A
C1197  C1198   1.433   .     S
C1198  O1221   1.291   .     A
C1198  O1222   1.297   .     A
C1199  O1223   1.298   .     A
C1199  O1224   1.302   .     A
C1199  C1201   1.457   .     S
C1200  O1236   1.402   .     S
C1202  C1203   1.401   .     A
C1202  O1247   1.389   .     S
C1203  C538    1.387   1_556 S
C1204  H1212   1.076   .     S
Cu1205 O1219   1.955   .     S
Cu1205 N1216   2.029   .     S
Cu1205 O1217   1.963   .     S
Cu1205 O1221   1.955   .     S
Cu1205 Cu1206  2.700   .     S
Cu1205 O1223   1.946   .     S
Cu1206 O1220   1.946   .     S
Cu1206 O1224   1.955   .     S
Cu1206 O1218   1.955   .     S
Cu1206 N1215   2.029   .     S
Cu1206 O1222   1.963   .     S
H1208  C753    1.087   1_565 S
H1209  N1290   1.029   .     S
H1213  C1277   1.083   .     S
N1215  N1290   1.285   .     S
N1215  O1299   1.347   .     S
C1226  H1228   1.102   .     S
C1226  O1299   1.408   .     S
C1226  H1301   1.110   .     S
C1226  C1303   1.533   .     S
C1229  C1232   1.514   .     S
C1229  H1230   1.103   .     S
C1229  H1231   1.109   .     S
C1232  H1235   1.109   .     S
C1232  H790    1.110   1_565 S
H1233  C1306   1.103   .     S
O1236  C1311   1.414   .     S
C1237  C1240   1.527   .     S
C1237  H1239   1.113   .     S
C1237  H1238   1.115   .     S
C1240  H798    1.107   1_565 S
C1240  C799    1.528   1_565 S
H1241  C574    1.109   1_556 S
C1243  H1244   1.111   .     S
C1243  H1245   1.108   .     S
H1246  C799    1.110   1_565 S
C1248  H1249   1.107   .     S
C1248  C1251   1.529   .     S
C1248  H1250   1.115   .     S
C1248  O1321   1.422   .     S
C1251  H1252   1.107   .     S
C1251  C1254   1.521   .     S
C1251  H1253   1.110   .     S
C1254  H1255   1.106   .     S
C1254  H1256   1.106   .     S
C1254  H1257   1.110   .     S
C1259  C1269   1.433   .     S
C1259  O1291   1.300   .     A
C1259  O1292   1.287   .     A
C1260  C1261   1.419   .     A
C1260  C596    1.427   1_556 S
C1260  C612    1.411   1_556 S
C1261  C1268   1.416   .     A
C1261  C1265   1.401   .     A
C1262  C1266   1.401   .     A
C1262  C1263   1.421   .     A
C1263  C1274   1.417   .     A
C1264  C1265   1.385   .     A
C1264  H1284   1.070   .     S
C1264  C597    1.393   1_556 S
C1265  F1332   1.352   .     S
C1266  C1275   1.392   .     A
C1266  H1285   1.077   .     S
C1267  C1275   1.393   .     A
C1267  C1274   1.412   .     A
C1267  H1281   1.081   .     S
C1268  C1276   1.416   .     A
C1268  C1270   1.490   .     S
C1269  C827    1.326   1_565 S
C1269  H844    1.087   1_565 S
C1270  O1294   1.315   .     A
C1270  O1293   1.298   .     A
C1271  C1272   1.433   .     S
C1272  O1295   1.291   .     A
C1272  O1296   1.297   .     A
C1273  O1297   1.298   .     A
C1273  O1298   1.302   .     A
C1273  C1275   1.457   .     S
C1274  O1310   1.402   .     S
C1276  C1277   1.401   .     A
C1276  O1321   1.389   .     S
C1277  C612    1.387   1_556 S
C1278  H1286   1.076   .     S
Cu1279 O1293   1.955   .     S
Cu1279 N1290   2.029   .     S
Cu1279 O1291   1.963   .     S
Cu1279 O1295   1.955   .     S
Cu1279 Cu1280  2.700   .     S
Cu1279 O1297   1.946   .     S
Cu1280 O1294   1.946   .     S
Cu1280 O1298   1.955   .     S
Cu1280 O1292   1.955   .     S
Cu1280 N1289   2.029   .     S
Cu1280 O1296   1.963   .     S
H1282  C827    1.087   1_565 S
H1283  N1142   1.029   1_655 S
H1287  C1129   1.083   1_655 S
N1289  N1142   1.285   1_655 S
N1289  O1151   1.347   1_655 S
C1300  H1302   1.102   .     S
C1300  O1151   1.408   1_655 S
C1300  H1153   1.110   1_655 S
C1300  C1155   1.533   1_655 S
C1303  C1306   1.514   .     S
C1303  H1304   1.103   .     S
C1303  H1305   1.109   .     S
C1306  H1309   1.109   .     S
C1306  H864    1.110   1_565 S
H1307  C1158   1.103   1_655 S
O1310  C1163   1.414   1_655 S
C1311  C1314   1.527   .     S
C1311  H1313   1.113   .     S
C1311  H1312   1.115   .     S
C1314  H872    1.107   1_565 S
C1314  C873    1.528   1_565 S
H1315  C648    1.109   1_556 S
C1317  H1318   1.111   .     S
C1317  H1319   1.108   .     S
H1320  C873    1.110   1_565 S
C1322  H1323   1.107   .     S
C1322  C1325   1.529   .     S
C1322  H1324   1.115   .     S
C1322  O1173   1.422   1_655 S
C1325  H1326   1.107   .     S
C1325  C1328   1.521   .     S
C1325  H1327   1.110   .     S
C1328  H1329   1.106   .     S
C1328  H1330   1.106   .     S
C1328  H1331   1.110   .     S
