data_str_m3_o1_o2_pcu_sym.111
_audit_creation_date              2020-01-03
_audit_creation_method            'Materials Studio'
_symmetry_space_group_name_H-M    'P1'
_symmetry_Int_Tables_number       1
_symmetry_cell_setting            triclinic
loop_
_symmetry_equiv_pos_as_xyz
  x,y,z
_cell_length_a                    31.7929
_cell_length_b                    29.4762
_cell_length_c                    29.7365
_cell_angle_alpha                 90.0754
_cell_angle_beta                  90.5263
_cell_angle_gamma                 90.0064
loop_
_atom_site_label
_atom_site_type_symbol
_atom_site_fract_x
_atom_site_fract_y
_atom_site_fract_z
_atom_site_U_iso_or_equiv
_atom_site_adp_type
_atom_site_occupancy
C1     C     0.08678   0.16667   0.24993   0.00000  Uiso   1.00
C2     C     0.24655   0.16668   0.24991   0.00000  Uiso   1.00
C3     C     0.16537   0.16664   0.16368   0.00000  Uiso   1.00
C4     C     0.16632   0.16668   0.33620   0.00000  Uiso   1.00
C5     C     0.19047   0.02405   0.28048   0.00000  Uiso   1.00
C6     C     0.14292   0.30929   0.21945   0.00000  Uiso   1.00
C7     C     0.14292   0.02396   0.21945   0.00000  Uiso   1.00
C8     C     0.19047   0.30938   0.28048   0.00000  Uiso   1.00
C9     C     0.02202   0.15176   0.28852   0.00000  Uiso   1.00
C10    C     0.31131   0.18188   0.21133   0.00000  Uiso   1.00
C11    C     0.31196   0.15174   0.28849   0.00000  Uiso   1.00
C12    C     0.02139   0.18187   0.21134   0.00000  Uiso   1.00
C13    C     0.16104   0.20630   0.04515   0.00000  Uiso   1.00
C14    C     0.17528   0.13323   0.45606   0.00000  Uiso   1.00
C15    C     0.12513   0.19595   0.44867   0.00000  Uiso   1.00
C16    C     0.13253   0.12879   0.04852   0.00000  Uiso   1.00
C17    C     0.16638   0.20618   0.09144   0.00000  Uiso   1.00
C18    C     0.18086   0.13354   0.40994   0.00000  Uiso   1.00
C19    C     0.13334   0.19782   0.40306   0.00000  Uiso   1.00
C20    C     0.14150   0.12830   0.09469   0.00000  Uiso   1.00
C21    C     0.15850   0.16673   0.11572   0.00000  Uiso   1.00
C22    C     0.16095   0.16660   0.38394   0.00000  Uiso   1.00
C23    C     0.14466   0.16734   0.02395   0.00000  Uiso   1.00
C24    C     0.14710   0.16451   0.47543   0.00000  Uiso   1.00
C25    C     0.29065   0.16672   0.24988   0.00000  Uiso   1.00
C26    C     0.04269   0.16672   0.24991   0.00000  Uiso   1.00
H27    H     0.20951   0.04231   0.30482   0.00000  Uiso   1.00
H28    H     0.12394   0.29103   0.19505   0.00000  Uiso   1.00
H29    H     0.12396   0.04213   0.19503   0.00000  Uiso   1.00
H30    H     0.20951   0.29119   0.30481   0.00000  Uiso   1.00
H31    H     0.17807   0.23641   0.10809   0.00000  Uiso   1.00
H32    H     0.20134   0.10865   0.39461   0.00000  Uiso   1.00
H33    H     0.11714   0.22272   0.38245   0.00000  Uiso   1.00
H34    H     0.13548   0.09829   0.11444   0.00000  Uiso   1.00
N35    N     0.16667   0.28573   0.25000   0.00000  Uiso   1.00
N36    N     0.16667   0.04760   0.25000   0.00000  Uiso   1.00
O37    O     0.10559   0.20487   0.24999   0.00000  Uiso   1.00
O38    O     0.22774   0.12846   0.25000   0.00000  Uiso   1.00
O39    O     0.22774   0.20487   0.25000   0.00000  Uiso   1.00
O40    O     0.10559   0.12846   0.24999   0.00000  Uiso   1.00
O41    O     0.16666   0.20489   0.18453   0.00000  Uiso   1.00
O42    O     0.16667   0.12845   0.31547   0.00000  Uiso   1.00
O43    O     0.16667   0.20489   0.31547   0.00000  Uiso   1.00
O44    O     0.16666   0.12845   0.18453   0.00000  Uiso   1.00
Zn45   Zn    0.16667   0.21771   0.25000   0.00000  Uiso   1.00
Zn46   Zn    0.16667   0.11563   0.25000   0.00000  Uiso   1.00
O47    O     0.17007   0.24485   0.02029   0.00000  Uiso   1.00
C48    C     0.21340   0.25593   0.02291   0.00000  Uiso   1.00
H49    H     0.22606   0.25453   0.48828   0.00000  Uiso   1.00
H50    H     0.23283   0.23215   0.04369   0.00000  Uiso   1.00
C51    C     0.21844   0.30430   0.04094   0.00000  Uiso   1.00
H52    H     0.20116   0.32828   0.01862   0.00000  Uiso   1.00
H53    H     0.20477   0.30654   0.07511   0.00000  Uiso   1.00
C54    C     0.26461   0.31839   0.04341   0.00000  Uiso   1.00
H55    H     0.28266   0.29484   0.06543   0.00000  Uiso   1.00
H56    H     0.26706   0.01983   0.05758   0.00000  Uiso   1.00
H57    H     0.27855   0.31841   0.00933   0.00000  Uiso   1.00
O58    O     0.19526   0.10034   0.48167   0.00000  Uiso   1.00
C59    C     0.23414   0.11688   0.49848   0.00000  Uiso   1.00
H60    H     0.23766   0.10430   0.03353   0.00000  Uiso   1.00
H61    H     0.23612   0.15468   0.00035   0.00000  Uiso   1.00
C62    C     0.27034   0.09830   0.47025   0.00000  Uiso   1.00
H63    H     0.26554   0.06145   0.46407   0.00000  Uiso   1.00
H64    H     0.27070   0.11597   0.43730   0.00000  Uiso   1.00
C65    C     0.31277   0.10509   0.49372   0.00000  Uiso   1.00
H66    H     0.31774   0.14139   0.00197   0.00000  Uiso   1.00
H67    H     0.00506   0.09369   0.47124   0.00000  Uiso   1.00
H68    H     0.31427   0.08494   0.02523   0.00000  Uiso   1.00
O69    O     0.09780   0.22703   0.46732   0.00000  Uiso   1.00
C70    C     0.05627   0.20995   0.46468   0.00000  Uiso   1.00
H71    H     0.04916   0.19172   0.49642   0.00000  Uiso   1.00
H72    H     0.05099   0.18614   0.43585   0.00000  Uiso   1.00
C73    C     0.02595   0.24981   0.45900   0.00000  Uiso   1.00
H74    H     0.02966   0.27362   0.48781   0.00000  Uiso   1.00
H75    H     0.03375   0.26831   0.42761   0.00000  Uiso   1.00
C76    C     0.31363   0.23397   0.45620   0.00000  Uiso   1.00
H77    H     0.30964   0.20751   0.42985   0.00000  Uiso   1.00
H78    H     0.29316   0.26318   0.44737   0.00000  Uiso   1.00
H79    H     0.30359   0.22026   0.48915   0.00000  Uiso   1.00
O80    O     0.11722   0.09119   0.02482   0.00000  Uiso   1.00
C81    C     0.08850   0.06412   0.04913   0.00000  Uiso   1.00
H82    H     0.06190   0.05590   0.02606   0.00000  Uiso   1.00
H83    H     0.07399   0.08168   0.07835   0.00000  Uiso   1.00
C84    C     0.10956   0.01938   0.06287   0.00000  Uiso   1.00
H85    H     0.11943   0.00085   0.03214   0.00000  Uiso   1.00
H86    H     0.13814   0.02619   0.08352   0.00000  Uiso   1.00
C87    C     0.07981   0.32263   0.08959   0.00000  Uiso   1.00
H88    H     0.07046   0.00657   0.12119   0.00000  Uiso   1.00
H89    H     0.09593   0.29036   0.09838   0.00000  Uiso   1.00
H90    H     0.05123   0.31464   0.06931   0.00000  Uiso   1.00
Cl91   Cl    0.05034   0.13448   0.33717   0.00000  Uiso   1.00
Cl92   Cl    0.28293   0.19955   0.16283   0.00000  Uiso   1.00
Cl93   Cl    0.28441   0.13434   0.33704   0.00000  Uiso   1.00
Cl94   Cl    0.04898   0.19957   0.16287   0.00000  Uiso   1.00
C95    C     0.42011   0.16667   0.24993   0.00000  Uiso   1.00
C96    C     0.57989   0.16668   0.24991   0.00000  Uiso   1.00
C97    C     0.49870   0.16664   0.16368   0.00000  Uiso   1.00
C98    C     0.49966   0.16668   0.33620   0.00000  Uiso   1.00
C99    C     0.52381   0.02405   0.28048   0.00000  Uiso   1.00
C100   C     0.47625   0.30929   0.21945   0.00000  Uiso   1.00
C101   C     0.47626   0.02396   0.21945   0.00000  Uiso   1.00
C102   C     0.52381   0.30938   0.28048   0.00000  Uiso   1.00
C103   C     0.35536   0.15176   0.28852   0.00000  Uiso   1.00
C104   C     0.64464   0.18188   0.21133   0.00000  Uiso   1.00
C105   C     0.64529   0.15174   0.28849   0.00000  Uiso   1.00
C106   C     0.35473   0.18187   0.21134   0.00000  Uiso   1.00
C107   C     0.49437   0.20630   0.04515   0.00000  Uiso   1.00
C108   C     0.50861   0.13323   0.45606   0.00000  Uiso   1.00
C109   C     0.45846   0.19595   0.44867   0.00000  Uiso   1.00
C110   C     0.46587   0.12879   0.04852   0.00000  Uiso   1.00
C111   C     0.49972   0.20618   0.09144   0.00000  Uiso   1.00
C112   C     0.51419   0.13354   0.40994   0.00000  Uiso   1.00
C113   C     0.46668   0.19782   0.40306   0.00000  Uiso   1.00
C114   C     0.47484   0.12830   0.09469   0.00000  Uiso   1.00
C115   C     0.49183   0.16673   0.11572   0.00000  Uiso   1.00
C116   C     0.49428   0.16660   0.38394   0.00000  Uiso   1.00
C117   C     0.47799   0.16734   0.02395   0.00000  Uiso   1.00
C118   C     0.48043   0.16451   0.47543   0.00000  Uiso   1.00
C119   C     0.62398   0.16672   0.24988   0.00000  Uiso   1.00
C120   C     0.37603   0.16672   0.24991   0.00000  Uiso   1.00
H121   H     0.54284   0.04231   0.30482   0.00000  Uiso   1.00
H122   H     0.45728   0.29103   0.19505   0.00000  Uiso   1.00
H123   H     0.45729   0.04213   0.19503   0.00000  Uiso   1.00
H124   H     0.54284   0.29119   0.30481   0.00000  Uiso   1.00
H125   H     0.51140   0.23641   0.10809   0.00000  Uiso   1.00
H126   H     0.53467   0.10865   0.39461   0.00000  Uiso   1.00
H127   H     0.45048   0.22272   0.38245   0.00000  Uiso   1.00
H128   H     0.46881   0.09829   0.11444   0.00000  Uiso   1.00
N129   N     0.50000   0.28573   0.25000   0.00000  Uiso   1.00
N130   N     0.50000   0.04760   0.25000   0.00000  Uiso   1.00
O131   O     0.43892   0.20487   0.24999   0.00000  Uiso   1.00
O132   O     0.56108   0.12846   0.25000   0.00000  Uiso   1.00
O133   O     0.56108   0.20487   0.25000   0.00000  Uiso   1.00
O134   O     0.43892   0.12846   0.24999   0.00000  Uiso   1.00
O135   O     0.50000   0.20489   0.18453   0.00000  Uiso   1.00
O136   O     0.50000   0.12845   0.31547   0.00000  Uiso   1.00
O137   O     0.50000   0.20489   0.31547   0.00000  Uiso   1.00
O138   O     0.50000   0.12845   0.18453   0.00000  Uiso   1.00
Zn139  Zn    0.50000   0.21771   0.25000   0.00000  Uiso   1.00
Zn140  Zn    0.50000   0.11563   0.25000   0.00000  Uiso   1.00
O141   O     0.50341   0.24485   0.02029   0.00000  Uiso   1.00
C142   C     0.54673   0.25593   0.02291   0.00000  Uiso   1.00
H143   H     0.55939   0.25453   0.48828   0.00000  Uiso   1.00
H144   H     0.56616   0.23215   0.04369   0.00000  Uiso   1.00
C145   C     0.55178   0.30430   0.04094   0.00000  Uiso   1.00
H146   H     0.53450   0.32828   0.01862   0.00000  Uiso   1.00
H147   H     0.53811   0.30654   0.07511   0.00000  Uiso   1.00
C148   C     0.59794   0.31839   0.04341   0.00000  Uiso   1.00
H149   H     0.61599   0.29484   0.06543   0.00000  Uiso   1.00
H150   H     0.60039   0.01983   0.05758   0.00000  Uiso   1.00
H151   H     0.61188   0.31841   0.00933   0.00000  Uiso   1.00
O152   O     0.52859   0.10034   0.48167   0.00000  Uiso   1.00
C153   C     0.56747   0.11688   0.49848   0.00000  Uiso   1.00
H154   H     0.57099   0.10430   0.03353   0.00000  Uiso   1.00
H155   H     0.56946   0.15468   0.00035   0.00000  Uiso   1.00
C156   C     0.60367   0.09830   0.47025   0.00000  Uiso   1.00
H157   H     0.59887   0.06145   0.46407   0.00000  Uiso   1.00
H158   H     0.60403   0.11597   0.43730   0.00000  Uiso   1.00
C159   C     0.64610   0.10509   0.49372   0.00000  Uiso   1.00
H160   H     0.65108   0.14139   0.00197   0.00000  Uiso   1.00
H161   H     0.33839   0.09369   0.47124   0.00000  Uiso   1.00
H162   H     0.64760   0.08494   0.02523   0.00000  Uiso   1.00
O163   O     0.43113   0.22703   0.46732   0.00000  Uiso   1.00
C164   C     0.38961   0.20995   0.46468   0.00000  Uiso   1.00
H165   H     0.38249   0.19172   0.49642   0.00000  Uiso   1.00
H166   H     0.38432   0.18614   0.43585   0.00000  Uiso   1.00
C167   C     0.35928   0.24981   0.45900   0.00000  Uiso   1.00
H168   H     0.36299   0.27362   0.48781   0.00000  Uiso   1.00
H169   H     0.36708   0.26831   0.42761   0.00000  Uiso   1.00
C170   C     0.64696   0.23397   0.45620   0.00000  Uiso   1.00
H171   H     0.64298   0.20751   0.42985   0.00000  Uiso   1.00
H172   H     0.62649   0.26318   0.44737   0.00000  Uiso   1.00
H173   H     0.63693   0.22026   0.48915   0.00000  Uiso   1.00
O174   O     0.45055   0.09119   0.02482   0.00000  Uiso   1.00
C175   C     0.42183   0.06412   0.04913   0.00000  Uiso   1.00
H176   H     0.39523   0.05590   0.02606   0.00000  Uiso   1.00
H177   H     0.40732   0.08168   0.07835   0.00000  Uiso   1.00
C178   C     0.44290   0.01938   0.06287   0.00000  Uiso   1.00
H179   H     0.45276   0.00085   0.03214   0.00000  Uiso   1.00
H180   H     0.47148   0.02619   0.08352   0.00000  Uiso   1.00
C181   C     0.41314   0.32263   0.08959   0.00000  Uiso   1.00
H182   H     0.40380   0.00657   0.12119   0.00000  Uiso   1.00
H183   H     0.42926   0.29036   0.09838   0.00000  Uiso   1.00
H184   H     0.38456   0.31464   0.06931   0.00000  Uiso   1.00
Cl185  Cl    0.38368   0.13448   0.33717   0.00000  Uiso   1.00
Cl186  Cl    0.61626   0.19955   0.16283   0.00000  Uiso   1.00
Cl187  Cl    0.61774   0.13434   0.33704   0.00000  Uiso   1.00
Cl188  Cl    0.38231   0.19957   0.16287   0.00000  Uiso   1.00
C189   C     0.75345   0.16667   0.24993   0.00000  Uiso   1.00
C190   C     0.91322   0.16668   0.24991   0.00000  Uiso   1.00
C191   C     0.83204   0.16664   0.16368   0.00000  Uiso   1.00
C192   C     0.83299   0.16668   0.33620   0.00000  Uiso   1.00
C193   C     0.85714   0.02405   0.28048   0.00000  Uiso   1.00
C194   C     0.80959   0.30929   0.21945   0.00000  Uiso   1.00
C195   C     0.80959   0.02396   0.21945   0.00000  Uiso   1.00
C196   C     0.85714   0.30938   0.28048   0.00000  Uiso   1.00
C197   C     0.68869   0.15176   0.28852   0.00000  Uiso   1.00
C198   C     0.97798   0.18188   0.21133   0.00000  Uiso   1.00
C199   C     0.97862   0.15174   0.28849   0.00000  Uiso   1.00
C200   C     0.68806   0.18187   0.21134   0.00000  Uiso   1.00
C201   C     0.82771   0.20630   0.04515   0.00000  Uiso   1.00
C202   C     0.84195   0.13323   0.45606   0.00000  Uiso   1.00
C203   C     0.79180   0.19595   0.44867   0.00000  Uiso   1.00
C204   C     0.79920   0.12879   0.04852   0.00000  Uiso   1.00
C205   C     0.83305   0.20618   0.09144   0.00000  Uiso   1.00
C206   C     0.84753   0.13354   0.40994   0.00000  Uiso   1.00
C207   C     0.80001   0.19782   0.40306   0.00000  Uiso   1.00
C208   C     0.80817   0.12830   0.09469   0.00000  Uiso   1.00
C209   C     0.82516   0.16673   0.11572   0.00000  Uiso   1.00
C210   C     0.82762   0.16660   0.38394   0.00000  Uiso   1.00
C211   C     0.81133   0.16734   0.02395   0.00000  Uiso   1.00
C212   C     0.81377   0.16451   0.47543   0.00000  Uiso   1.00
C213   C     0.95731   0.16672   0.24988   0.00000  Uiso   1.00
C214   C     0.70936   0.16672   0.24991   0.00000  Uiso   1.00
H215   H     0.87617   0.04231   0.30482   0.00000  Uiso   1.00
H216   H     0.79061   0.29103   0.19505   0.00000  Uiso   1.00
H217   H     0.79062   0.04213   0.19503   0.00000  Uiso   1.00
H218   H     0.87618   0.29119   0.30481   0.00000  Uiso   1.00
H219   H     0.84474   0.23641   0.10809   0.00000  Uiso   1.00
H220   H     0.86801   0.10865   0.39461   0.00000  Uiso   1.00
H221   H     0.78381   0.22272   0.38245   0.00000  Uiso   1.00
H222   H     0.80215   0.09829   0.11444   0.00000  Uiso   1.00
N223   N     0.83333   0.28573   0.25000   0.00000  Uiso   1.00
N224   N     0.83333   0.04760   0.25000   0.00000  Uiso   1.00
O225   O     0.77226   0.20487   0.24999   0.00000  Uiso   1.00
O226   O     0.89441   0.12846   0.25000   0.00000  Uiso   1.00
O227   O     0.89441   0.20487   0.25000   0.00000  Uiso   1.00
O228   O     0.77226   0.12846   0.24999   0.00000  Uiso   1.00
O229   O     0.83333   0.20489   0.18453   0.00000  Uiso   1.00
O230   O     0.83334   0.12845   0.31547   0.00000  Uiso   1.00
O231   O     0.83334   0.20489   0.31547   0.00000  Uiso   1.00
O232   O     0.83333   0.12845   0.18453   0.00000  Uiso   1.00
Zn233  Zn    0.83333   0.21771   0.25000   0.00000  Uiso   1.00
Zn234  Zn    0.83333   0.11563   0.25000   0.00000  Uiso   1.00
O235   O     0.83674   0.24485   0.02029   0.00000  Uiso   1.00
C236   C     0.88006   0.25593   0.02291   0.00000  Uiso   1.00
H237   H     0.89272   0.25453   0.48828   0.00000  Uiso   1.00
H238   H     0.89949   0.23215   0.04369   0.00000  Uiso   1.00
C239   C     0.88511   0.30430   0.04094   0.00000  Uiso   1.00
H240   H     0.86783   0.32828   0.01862   0.00000  Uiso   1.00
H241   H     0.87144   0.30654   0.07511   0.00000  Uiso   1.00
C242   C     0.93127   0.31839   0.04341   0.00000  Uiso   1.00
H243   H     0.94932   0.29484   0.06543   0.00000  Uiso   1.00
H244   H     0.93372   0.01983   0.05758   0.00000  Uiso   1.00
H245   H     0.94522   0.31841   0.00933   0.00000  Uiso   1.00
O246   O     0.86192   0.10034   0.48167   0.00000  Uiso   1.00
C247   C     0.90081   0.11688   0.49848   0.00000  Uiso   1.00
H248   H     0.90432   0.10430   0.03353   0.00000  Uiso   1.00
H249   H     0.90279   0.15468   0.00035   0.00000  Uiso   1.00
C250   C     0.93700   0.09830   0.47025   0.00000  Uiso   1.00
H251   H     0.93220   0.06145   0.46407   0.00000  Uiso   1.00
H252   H     0.93737   0.11597   0.43730   0.00000  Uiso   1.00
C253   C     0.97943   0.10509   0.49372   0.00000  Uiso   1.00
H254   H     0.98441   0.14139   0.00197   0.00000  Uiso   1.00
H255   H     0.67172   0.09369   0.47124   0.00000  Uiso   1.00
H256   H     0.98093   0.08494   0.02523   0.00000  Uiso   1.00
O257   O     0.76446   0.22703   0.46732   0.00000  Uiso   1.00
C258   C     0.72294   0.20995   0.46468   0.00000  Uiso   1.00
H259   H     0.71582   0.19172   0.49642   0.00000  Uiso   1.00
H260   H     0.71766   0.18614   0.43585   0.00000  Uiso   1.00
C261   C     0.69261   0.24981   0.45900   0.00000  Uiso   1.00
H262   H     0.69632   0.27362   0.48781   0.00000  Uiso   1.00
H263   H     0.70041   0.26831   0.42761   0.00000  Uiso   1.00
C264   C     0.98030   0.23397   0.45620   0.00000  Uiso   1.00
H265   H     0.97631   0.20751   0.42985   0.00000  Uiso   1.00
H266   H     0.95983   0.26318   0.44737   0.00000  Uiso   1.00
H267   H     0.97026   0.22026   0.48915   0.00000  Uiso   1.00
O268   O     0.78388   0.09119   0.02482   0.00000  Uiso   1.00
C269   C     0.75516   0.06412   0.04913   0.00000  Uiso   1.00
H270   H     0.72856   0.05590   0.02606   0.00000  Uiso   1.00
H271   H     0.74066   0.08168   0.07835   0.00000  Uiso   1.00
C272   C     0.77623   0.01938   0.06287   0.00000  Uiso   1.00
H273   H     0.78610   0.00085   0.03214   0.00000  Uiso   1.00
H274   H     0.80481   0.02619   0.08352   0.00000  Uiso   1.00
C275   C     0.74648   0.32263   0.08959   0.00000  Uiso   1.00
H276   H     0.73713   0.00657   0.12119   0.00000  Uiso   1.00
H277   H     0.76259   0.29036   0.09838   0.00000  Uiso   1.00
H278   H     0.71790   0.31464   0.06931   0.00000  Uiso   1.00
Cl279  Cl    0.71701   0.13448   0.33717   0.00000  Uiso   1.00
Cl280  Cl    0.94959   0.19955   0.16283   0.00000  Uiso   1.00
Cl281  Cl    0.95108   0.13434   0.33704   0.00000  Uiso   1.00
Cl282  Cl    0.71564   0.19957   0.16287   0.00000  Uiso   1.00
C283   C     0.08678   0.50001   0.24993   0.00000  Uiso   1.00
C284   C     0.24655   0.50001   0.24991   0.00000  Uiso   1.00
C285   C     0.16537   0.49997   0.16368   0.00000  Uiso   1.00
C286   C     0.16632   0.50002   0.33620   0.00000  Uiso   1.00
C287   C     0.19047   0.35738   0.28048   0.00000  Uiso   1.00
C288   C     0.14292   0.64262   0.21945   0.00000  Uiso   1.00
C289   C     0.14292   0.35729   0.21945   0.00000  Uiso   1.00
C290   C     0.19047   0.64271   0.28048   0.00000  Uiso   1.00
C291   C     0.02202   0.48509   0.28852   0.00000  Uiso   1.00
C292   C     0.31131   0.51521   0.21133   0.00000  Uiso   1.00
C293   C     0.31196   0.48507   0.28849   0.00000  Uiso   1.00
C294   C     0.02139   0.51521   0.21134   0.00000  Uiso   1.00
C295   C     0.16104   0.53963   0.04515   0.00000  Uiso   1.00
C296   C     0.17528   0.46656   0.45606   0.00000  Uiso   1.00
C297   C     0.12513   0.52928   0.44867   0.00000  Uiso   1.00
C298   C     0.13253   0.46212   0.04852   0.00000  Uiso   1.00
C299   C     0.16638   0.53951   0.09144   0.00000  Uiso   1.00
C300   C     0.18086   0.46687   0.40994   0.00000  Uiso   1.00
C301   C     0.13334   0.53115   0.40306   0.00000  Uiso   1.00
C302   C     0.14150   0.46164   0.09469   0.00000  Uiso   1.00
C303   C     0.15850   0.50007   0.11572   0.00000  Uiso   1.00
C304   C     0.16095   0.49994   0.38394   0.00000  Uiso   1.00
C305   C     0.14466   0.50067   0.02395   0.00000  Uiso   1.00
C306   C     0.14710   0.49784   0.47543   0.00000  Uiso   1.00
C307   C     0.29065   0.50006   0.24988   0.00000  Uiso   1.00
C308   C     0.04269   0.50006   0.24991   0.00000  Uiso   1.00
H309   H     0.20951   0.37565   0.30482   0.00000  Uiso   1.00
H310   H     0.12394   0.62437   0.19505   0.00000  Uiso   1.00
H311   H     0.12396   0.37547   0.19503   0.00000  Uiso   1.00
H312   H     0.20951   0.62453   0.30481   0.00000  Uiso   1.00
H313   H     0.17807   0.56975   0.10809   0.00000  Uiso   1.00
H314   H     0.20134   0.44198   0.39461   0.00000  Uiso   1.00
H315   H     0.11714   0.55606   0.38245   0.00000  Uiso   1.00
H316   H     0.13548   0.43162   0.11444   0.00000  Uiso   1.00
N317   N     0.16667   0.61907   0.25000   0.00000  Uiso   1.00
N318   N     0.16667   0.38093   0.25000   0.00000  Uiso   1.00
O319   O     0.10559   0.53821   0.24999   0.00000  Uiso   1.00
O320   O     0.22774   0.46179   0.25000   0.00000  Uiso   1.00
O321   O     0.22774   0.53821   0.25000   0.00000  Uiso   1.00
O322   O     0.10559   0.46179   0.24999   0.00000  Uiso   1.00
O323   O     0.16666   0.53822   0.18453   0.00000  Uiso   1.00
O324   O     0.16667   0.46178   0.31547   0.00000  Uiso   1.00
O325   O     0.16667   0.53822   0.31547   0.00000  Uiso   1.00
O326   O     0.16666   0.46178   0.18453   0.00000  Uiso   1.00
Zn327  Zn    0.16667   0.55104   0.25000   0.00000  Uiso   1.00
Zn328  Zn    0.16667   0.44896   0.25000   0.00000  Uiso   1.00
O329   O     0.17007   0.57819   0.02029   0.00000  Uiso   1.00
C330   C     0.21340   0.58927   0.02291   0.00000  Uiso   1.00
H331   H     0.22606   0.58787   0.48828   0.00000  Uiso   1.00
H332   H     0.23283   0.56548   0.04369   0.00000  Uiso   1.00
C333   C     0.21844   0.63764   0.04094   0.00000  Uiso   1.00
H334   H     0.20116   0.66161   0.01862   0.00000  Uiso   1.00
H335   H     0.20477   0.63987   0.07511   0.00000  Uiso   1.00
C336   C     0.26461   0.65172   0.04341   0.00000  Uiso   1.00
H337   H     0.28266   0.62817   0.06543   0.00000  Uiso   1.00
H338   H     0.26706   0.35316   0.05758   0.00000  Uiso   1.00
H339   H     0.27855   0.65174   0.00933   0.00000  Uiso   1.00
O340   O     0.19526   0.43367   0.48167   0.00000  Uiso   1.00
C341   C     0.23414   0.45021   0.49848   0.00000  Uiso   1.00
H342   H     0.23766   0.43763   0.03353   0.00000  Uiso   1.00
H343   H     0.23612   0.48801   0.00035   0.00000  Uiso   1.00
C344   C     0.27034   0.43164   0.47025   0.00000  Uiso   1.00
H345   H     0.26554   0.39479   0.46407   0.00000  Uiso   1.00
H346   H     0.27070   0.44930   0.43730   0.00000  Uiso   1.00
C347   C     0.31277   0.43842   0.49372   0.00000  Uiso   1.00
H348   H     0.31774   0.47472   0.00197   0.00000  Uiso   1.00
H349   H     0.00506   0.42703   0.47124   0.00000  Uiso   1.00
H350   H     0.31427   0.41828   0.02523   0.00000  Uiso   1.00
O351   O     0.09780   0.56037   0.46732   0.00000  Uiso   1.00
C352   C     0.05627   0.54329   0.46468   0.00000  Uiso   1.00
H353   H     0.04916   0.52505   0.49642   0.00000  Uiso   1.00
H354   H     0.05099   0.51947   0.43585   0.00000  Uiso   1.00
C355   C     0.02595   0.58314   0.45900   0.00000  Uiso   1.00
H356   H     0.02966   0.60695   0.48781   0.00000  Uiso   1.00
H357   H     0.03375   0.60164   0.42761   0.00000  Uiso   1.00
C358   C     0.31363   0.56730   0.45620   0.00000  Uiso   1.00
H359   H     0.30964   0.54084   0.42985   0.00000  Uiso   1.00
H360   H     0.29316   0.59651   0.44737   0.00000  Uiso   1.00
H361   H     0.30359   0.55359   0.48915   0.00000  Uiso   1.00
O362   O     0.11722   0.42452   0.02482   0.00000  Uiso   1.00
C363   C     0.08850   0.39745   0.04913   0.00000  Uiso   1.00
H364   H     0.06190   0.38923   0.02606   0.00000  Uiso   1.00
H365   H     0.07399   0.41501   0.07835   0.00000  Uiso   1.00
C366   C     0.10956   0.35271   0.06287   0.00000  Uiso   1.00
H367   H     0.11943   0.33419   0.03214   0.00000  Uiso   1.00
H368   H     0.13814   0.35952   0.08352   0.00000  Uiso   1.00
C369   C     0.07981   0.65596   0.08959   0.00000  Uiso   1.00
H370   H     0.07046   0.33991   0.12119   0.00000  Uiso   1.00
H371   H     0.09593   0.62369   0.09838   0.00000  Uiso   1.00
H372   H     0.05123   0.64797   0.06931   0.00000  Uiso   1.00
Cl373  Cl    0.05034   0.46781   0.33717   0.00000  Uiso   1.00
Cl374  Cl    0.28293   0.53288   0.16283   0.00000  Uiso   1.00
Cl375  Cl    0.28441   0.46767   0.33704   0.00000  Uiso   1.00
Cl376  Cl    0.04898   0.53290   0.16287   0.00000  Uiso   1.00
C377   C     0.42011   0.50001   0.24993   0.00000  Uiso   1.00
C378   C     0.57989   0.50001   0.24991   0.00000  Uiso   1.00
C379   C     0.49870   0.49997   0.16368   0.00000  Uiso   1.00
C380   C     0.49966   0.50002   0.33620   0.00000  Uiso   1.00
C381   C     0.52381   0.35738   0.28048   0.00000  Uiso   1.00
C382   C     0.47625   0.64262   0.21945   0.00000  Uiso   1.00
C383   C     0.47626   0.35729   0.21945   0.00000  Uiso   1.00
C384   C     0.52381   0.64271   0.28048   0.00000  Uiso   1.00
C385   C     0.35536   0.48509   0.28852   0.00000  Uiso   1.00
C386   C     0.64464   0.51521   0.21133   0.00000  Uiso   1.00
C387   C     0.64529   0.48507   0.28849   0.00000  Uiso   1.00
C388   C     0.35473   0.51521   0.21134   0.00000  Uiso   1.00
C389   C     0.49437   0.53963   0.04515   0.00000  Uiso   1.00
C390   C     0.50861   0.46656   0.45606   0.00000  Uiso   1.00
C391   C     0.45846   0.52928   0.44867   0.00000  Uiso   1.00
C392   C     0.46587   0.46212   0.04852   0.00000  Uiso   1.00
C393   C     0.49972   0.53951   0.09144   0.00000  Uiso   1.00
C394   C     0.51419   0.46687   0.40994   0.00000  Uiso   1.00
C395   C     0.46668   0.53115   0.40306   0.00000  Uiso   1.00
C396   C     0.47484   0.46164   0.09469   0.00000  Uiso   1.00
C397   C     0.49183   0.50007   0.11572   0.00000  Uiso   1.00
C398   C     0.49428   0.49994   0.38394   0.00000  Uiso   1.00
C399   C     0.47799   0.50067   0.02395   0.00000  Uiso   1.00
C400   C     0.48043   0.49784   0.47543   0.00000  Uiso   1.00
C401   C     0.62398   0.50006   0.24988   0.00000  Uiso   1.00
C402   C     0.37603   0.50006   0.24991   0.00000  Uiso   1.00
H403   H     0.54284   0.37565   0.30482   0.00000  Uiso   1.00
H404   H     0.45728   0.62437   0.19505   0.00000  Uiso   1.00
H405   H     0.45729   0.37547   0.19503   0.00000  Uiso   1.00
H406   H     0.54284   0.62453   0.30481   0.00000  Uiso   1.00
H407   H     0.51140   0.56975   0.10809   0.00000  Uiso   1.00
H408   H     0.53467   0.44198   0.39461   0.00000  Uiso   1.00
H409   H     0.45048   0.55606   0.38245   0.00000  Uiso   1.00
H410   H     0.46881   0.43162   0.11444   0.00000  Uiso   1.00
N411   N     0.50000   0.61907   0.25000   0.00000  Uiso   1.00
N412   N     0.50000   0.38093   0.25000   0.00000  Uiso   1.00
O413   O     0.43892   0.53821   0.24999   0.00000  Uiso   1.00
O414   O     0.56108   0.46179   0.25000   0.00000  Uiso   1.00
O415   O     0.56108   0.53821   0.25000   0.00000  Uiso   1.00
O416   O     0.43892   0.46179   0.24999   0.00000  Uiso   1.00
O417   O     0.50000   0.53822   0.18453   0.00000  Uiso   1.00
O418   O     0.50000   0.46178   0.31547   0.00000  Uiso   1.00
O419   O     0.50000   0.53822   0.31547   0.00000  Uiso   1.00
O420   O     0.50000   0.46178   0.18453   0.00000  Uiso   1.00
Zn421  Zn    0.50000   0.55104   0.25000   0.00000  Uiso   1.00
Zn422  Zn    0.50000   0.44896   0.25000   0.00000  Uiso   1.00
O423   O     0.50341   0.57819   0.02029   0.00000  Uiso   1.00
C424   C     0.54673   0.58927   0.02291   0.00000  Uiso   1.00
H425   H     0.55939   0.58787   0.48828   0.00000  Uiso   1.00
H426   H     0.56616   0.56548   0.04369   0.00000  Uiso   1.00
C427   C     0.55178   0.63764   0.04094   0.00000  Uiso   1.00
H428   H     0.53450   0.66161   0.01862   0.00000  Uiso   1.00
H429   H     0.53811   0.63987   0.07511   0.00000  Uiso   1.00
C430   C     0.59794   0.65172   0.04341   0.00000  Uiso   1.00
H431   H     0.61599   0.62817   0.06543   0.00000  Uiso   1.00
H432   H     0.60039   0.35316   0.05758   0.00000  Uiso   1.00
H433   H     0.61188   0.65174   0.00933   0.00000  Uiso   1.00
O434   O     0.52859   0.43367   0.48167   0.00000  Uiso   1.00
C435   C     0.56747   0.45021   0.49848   0.00000  Uiso   1.00
H436   H     0.57099   0.43763   0.03353   0.00000  Uiso   1.00
H437   H     0.56946   0.48801   0.00035   0.00000  Uiso   1.00
C438   C     0.60367   0.43164   0.47025   0.00000  Uiso   1.00
H439   H     0.59887   0.39479   0.46407   0.00000  Uiso   1.00
H440   H     0.60403   0.44930   0.43730   0.00000  Uiso   1.00
C441   C     0.64610   0.43842   0.49372   0.00000  Uiso   1.00
H442   H     0.65108   0.47472   0.00197   0.00000  Uiso   1.00
H443   H     0.33839   0.42703   0.47124   0.00000  Uiso   1.00
H444   H     0.64760   0.41828   0.02523   0.00000  Uiso   1.00
O445   O     0.43113   0.56037   0.46732   0.00000  Uiso   1.00
C446   C     0.38961   0.54329   0.46468   0.00000  Uiso   1.00
H447   H     0.38249   0.52505   0.49642   0.00000  Uiso   1.00
H448   H     0.38432   0.51947   0.43585   0.00000  Uiso   1.00
C449   C     0.35928   0.58314   0.45900   0.00000  Uiso   1.00
H450   H     0.36299   0.60695   0.48781   0.00000  Uiso   1.00
H451   H     0.36708   0.60164   0.42761   0.00000  Uiso   1.00
C452   C     0.64696   0.56730   0.45620   0.00000  Uiso   1.00
H453   H     0.64298   0.54084   0.42985   0.00000  Uiso   1.00
H454   H     0.62649   0.59651   0.44737   0.00000  Uiso   1.00
H455   H     0.63693   0.55359   0.48915   0.00000  Uiso   1.00
O456   O     0.45055   0.42452   0.02482   0.00000  Uiso   1.00
C457   C     0.42183   0.39745   0.04913   0.00000  Uiso   1.00
H458   H     0.39523   0.38923   0.02606   0.00000  Uiso   1.00
H459   H     0.40732   0.41501   0.07835   0.00000  Uiso   1.00
C460   C     0.44290   0.35271   0.06287   0.00000  Uiso   1.00
H461   H     0.45276   0.33419   0.03214   0.00000  Uiso   1.00
H462   H     0.47148   0.35952   0.08352   0.00000  Uiso   1.00
C463   C     0.41314   0.65596   0.08959   0.00000  Uiso   1.00
H464   H     0.40380   0.33991   0.12119   0.00000  Uiso   1.00
H465   H     0.42926   0.62369   0.09838   0.00000  Uiso   1.00
H466   H     0.38456   0.64797   0.06931   0.00000  Uiso   1.00
Cl467  Cl    0.38368   0.46781   0.33717   0.00000  Uiso   1.00
Cl468  Cl    0.61626   0.53288   0.16283   0.00000  Uiso   1.00
Cl469  Cl    0.61774   0.46767   0.33704   0.00000  Uiso   1.00
Cl470  Cl    0.38231   0.53290   0.16287   0.00000  Uiso   1.00
C471   C     0.75345   0.50001   0.24993   0.00000  Uiso   1.00
C472   C     0.91322   0.50001   0.24991   0.00000  Uiso   1.00
C473   C     0.83204   0.49997   0.16368   0.00000  Uiso   1.00
C474   C     0.83299   0.50002   0.33620   0.00000  Uiso   1.00
C475   C     0.85714   0.35738   0.28048   0.00000  Uiso   1.00
C476   C     0.80959   0.64262   0.21945   0.00000  Uiso   1.00
C477   C     0.80959   0.35729   0.21945   0.00000  Uiso   1.00
C478   C     0.85714   0.64271   0.28048   0.00000  Uiso   1.00
C479   C     0.68869   0.48509   0.28852   0.00000  Uiso   1.00
C480   C     0.97798   0.51521   0.21133   0.00000  Uiso   1.00
C481   C     0.97862   0.48507   0.28849   0.00000  Uiso   1.00
C482   C     0.68806   0.51521   0.21134   0.00000  Uiso   1.00
C483   C     0.82771   0.53963   0.04515   0.00000  Uiso   1.00
C484   C     0.84195   0.46656   0.45606   0.00000  Uiso   1.00
C485   C     0.79180   0.52928   0.44867   0.00000  Uiso   1.00
C486   C     0.79920   0.46212   0.04852   0.00000  Uiso   1.00
C487   C     0.83305   0.53951   0.09144   0.00000  Uiso   1.00
C488   C     0.84753   0.46687   0.40994   0.00000  Uiso   1.00
C489   C     0.80001   0.53115   0.40306   0.00000  Uiso   1.00
C490   C     0.80817   0.46164   0.09469   0.00000  Uiso   1.00
C491   C     0.82516   0.50007   0.11572   0.00000  Uiso   1.00
C492   C     0.82762   0.49994   0.38394   0.00000  Uiso   1.00
C493   C     0.81133   0.50067   0.02395   0.00000  Uiso   1.00
C494   C     0.81377   0.49784   0.47543   0.00000  Uiso   1.00
C495   C     0.95731   0.50006   0.24988   0.00000  Uiso   1.00
C496   C     0.70936   0.50006   0.24991   0.00000  Uiso   1.00
H497   H     0.87617   0.37565   0.30482   0.00000  Uiso   1.00
H498   H     0.79061   0.62437   0.19505   0.00000  Uiso   1.00
H499   H     0.79062   0.37547   0.19503   0.00000  Uiso   1.00
H500   H     0.87618   0.62453   0.30481   0.00000  Uiso   1.00
H501   H     0.84474   0.56975   0.10809   0.00000  Uiso   1.00
H502   H     0.86801   0.44198   0.39461   0.00000  Uiso   1.00
H503   H     0.78381   0.55606   0.38245   0.00000  Uiso   1.00
H504   H     0.80215   0.43162   0.11444   0.00000  Uiso   1.00
N505   N     0.83333   0.61907   0.25000   0.00000  Uiso   1.00
N506   N     0.83333   0.38093   0.25000   0.00000  Uiso   1.00
O507   O     0.77226   0.53821   0.24999   0.00000  Uiso   1.00
O508   O     0.89441   0.46179   0.25000   0.00000  Uiso   1.00
O509   O     0.89441   0.53821   0.25000   0.00000  Uiso   1.00
O510   O     0.77226   0.46179   0.24999   0.00000  Uiso   1.00
O511   O     0.83333   0.53822   0.18453   0.00000  Uiso   1.00
O512   O     0.83334   0.46178   0.31547   0.00000  Uiso   1.00
O513   O     0.83334   0.53822   0.31547   0.00000  Uiso   1.00
O514   O     0.83333   0.46178   0.18453   0.00000  Uiso   1.00
Zn515  Zn    0.83333   0.55104   0.25000   0.00000  Uiso   1.00
Zn516  Zn    0.83333   0.44896   0.25000   0.00000  Uiso   1.00
O517   O     0.83674   0.57819   0.02029   0.00000  Uiso   1.00
C518   C     0.88006   0.58927   0.02291   0.00000  Uiso   1.00
H519   H     0.89272   0.58787   0.48828   0.00000  Uiso   1.00
H520   H     0.89949   0.56548   0.04369   0.00000  Uiso   1.00
C521   C     0.88511   0.63764   0.04094   0.00000  Uiso   1.00
H522   H     0.86783   0.66161   0.01862   0.00000  Uiso   1.00
H523   H     0.87144   0.63987   0.07511   0.00000  Uiso   1.00
C524   C     0.93127   0.65172   0.04341   0.00000  Uiso   1.00
H525   H     0.94932   0.62817   0.06543   0.00000  Uiso   1.00
H526   H     0.93372   0.35316   0.05758   0.00000  Uiso   1.00
H527   H     0.94522   0.65174   0.00933   0.00000  Uiso   1.00
O528   O     0.86192   0.43367   0.48167   0.00000  Uiso   1.00
C529   C     0.90081   0.45021   0.49848   0.00000  Uiso   1.00
H530   H     0.90432   0.43763   0.03353   0.00000  Uiso   1.00
H531   H     0.90279   0.48801   0.00035   0.00000  Uiso   1.00
C532   C     0.93700   0.43164   0.47025   0.00000  Uiso   1.00
H533   H     0.93220   0.39479   0.46407   0.00000  Uiso   1.00
H534   H     0.93737   0.44930   0.43730   0.00000  Uiso   1.00
C535   C     0.97943   0.43842   0.49372   0.00000  Uiso   1.00
H536   H     0.98441   0.47472   0.00197   0.00000  Uiso   1.00
H537   H     0.67172   0.42703   0.47124   0.00000  Uiso   1.00
H538   H     0.98093   0.41828   0.02523   0.00000  Uiso   1.00
O539   O     0.76446   0.56037   0.46732   0.00000  Uiso   1.00
C540   C     0.72294   0.54329   0.46468   0.00000  Uiso   1.00
H541   H     0.71582   0.52505   0.49642   0.00000  Uiso   1.00
H542   H     0.71766   0.51947   0.43585   0.00000  Uiso   1.00
C543   C     0.69261   0.58314   0.45900   0.00000  Uiso   1.00
H544   H     0.69632   0.60695   0.48781   0.00000  Uiso   1.00
H545   H     0.70041   0.60164   0.42761   0.00000  Uiso   1.00
C546   C     0.98030   0.56730   0.45620   0.00000  Uiso   1.00
H547   H     0.97631   0.54084   0.42985   0.00000  Uiso   1.00
H548   H     0.95983   0.59651   0.44737   0.00000  Uiso   1.00
H549   H     0.97026   0.55359   0.48915   0.00000  Uiso   1.00
O550   O     0.78388   0.42452   0.02482   0.00000  Uiso   1.00
C551   C     0.75516   0.39745   0.04913   0.00000  Uiso   1.00
H552   H     0.72856   0.38923   0.02606   0.00000  Uiso   1.00
H553   H     0.74066   0.41501   0.07835   0.00000  Uiso   1.00
C554   C     0.77623   0.35271   0.06287   0.00000  Uiso   1.00
H555   H     0.78610   0.33419   0.03214   0.00000  Uiso   1.00
H556   H     0.80481   0.35952   0.08352   0.00000  Uiso   1.00
C557   C     0.74648   0.65596   0.08959   0.00000  Uiso   1.00
H558   H     0.73713   0.33991   0.12119   0.00000  Uiso   1.00
H559   H     0.76259   0.62369   0.09838   0.00000  Uiso   1.00
H560   H     0.71790   0.64797   0.06931   0.00000  Uiso   1.00
Cl561  Cl    0.71701   0.46781   0.33717   0.00000  Uiso   1.00
Cl562  Cl    0.94959   0.53288   0.16283   0.00000  Uiso   1.00
Cl563  Cl    0.95108   0.46767   0.33704   0.00000  Uiso   1.00
Cl564  Cl    0.71564   0.53290   0.16287   0.00000  Uiso   1.00
C565   C     0.08678   0.83334   0.24993   0.00000  Uiso   1.00
C566   C     0.24655   0.83334   0.24991   0.00000  Uiso   1.00
C567   C     0.16537   0.83331   0.16368   0.00000  Uiso   1.00
C568   C     0.16632   0.83335   0.33620   0.00000  Uiso   1.00
C569   C     0.19047   0.69071   0.28048   0.00000  Uiso   1.00
C570   C     0.14292   0.97595   0.21945   0.00000  Uiso   1.00
C571   C     0.14292   0.69062   0.21945   0.00000  Uiso   1.00
C572   C     0.19047   0.97605   0.28048   0.00000  Uiso   1.00
C573   C     0.02202   0.81843   0.28852   0.00000  Uiso   1.00
C574   C     0.31131   0.84854   0.21133   0.00000  Uiso   1.00
C575   C     0.31196   0.81840   0.28849   0.00000  Uiso   1.00
C576   C     0.02139   0.84854   0.21134   0.00000  Uiso   1.00
C577   C     0.16104   0.87297   0.04515   0.00000  Uiso   1.00
C578   C     0.17528   0.79990   0.45606   0.00000  Uiso   1.00
C579   C     0.12513   0.86261   0.44867   0.00000  Uiso   1.00
C580   C     0.13253   0.79546   0.04852   0.00000  Uiso   1.00
C581   C     0.16638   0.87284   0.09144   0.00000  Uiso   1.00
C582   C     0.18086   0.80020   0.40994   0.00000  Uiso   1.00
C583   C     0.13334   0.86448   0.40306   0.00000  Uiso   1.00
C584   C     0.14150   0.79497   0.09469   0.00000  Uiso   1.00
C585   C     0.15850   0.83340   0.11572   0.00000  Uiso   1.00
C586   C     0.16095   0.83327   0.38394   0.00000  Uiso   1.00
C587   C     0.14466   0.83400   0.02395   0.00000  Uiso   1.00
C588   C     0.14710   0.83118   0.47543   0.00000  Uiso   1.00
C589   C     0.29065   0.83339   0.24988   0.00000  Uiso   1.00
C590   C     0.04269   0.83339   0.24991   0.00000  Uiso   1.00
H591   H     0.20951   0.70898   0.30482   0.00000  Uiso   1.00
H592   H     0.12394   0.95770   0.19505   0.00000  Uiso   1.00
H593   H     0.12396   0.70880   0.19503   0.00000  Uiso   1.00
H594   H     0.20951   0.95786   0.30481   0.00000  Uiso   1.00
H595   H     0.17807   0.90308   0.10809   0.00000  Uiso   1.00
H596   H     0.20134   0.77532   0.39461   0.00000  Uiso   1.00
H597   H     0.11714   0.88939   0.38245   0.00000  Uiso   1.00
H598   H     0.13548   0.76496   0.11444   0.00000  Uiso   1.00
N599   N     0.16667   0.95240   0.25000   0.00000  Uiso   1.00
N600   N     0.16667   0.71427   0.25000   0.00000  Uiso   1.00
O601   O     0.10559   0.87154   0.24999   0.00000  Uiso   1.00
O602   O     0.22774   0.79513   0.25000   0.00000  Uiso   1.00
O603   O     0.22774   0.87154   0.25000   0.00000  Uiso   1.00
O604   O     0.10559   0.79513   0.24999   0.00000  Uiso   1.00
O605   O     0.16666   0.87155   0.18453   0.00000  Uiso   1.00
O606   O     0.16667   0.79511   0.31547   0.00000  Uiso   1.00
O607   O     0.16667   0.87155   0.31547   0.00000  Uiso   1.00
O608   O     0.16666   0.79511   0.18453   0.00000  Uiso   1.00
Zn609  Zn    0.16667   0.88437   0.25000   0.00000  Uiso   1.00
Zn610  Zn    0.16667   0.78229   0.25000   0.00000  Uiso   1.00
O611   O     0.17007   0.91152   0.02029   0.00000  Uiso   1.00
C612   C     0.21340   0.92260   0.02291   0.00000  Uiso   1.00
H613   H     0.22606   0.92120   0.48828   0.00000  Uiso   1.00
H614   H     0.23283   0.89881   0.04369   0.00000  Uiso   1.00
C615   C     0.21844   0.97097   0.04094   0.00000  Uiso   1.00
H616   H     0.20116   0.99494   0.01862   0.00000  Uiso   1.00
H617   H     0.20477   0.97321   0.07511   0.00000  Uiso   1.00
C618   C     0.26461   0.98506   0.04341   0.00000  Uiso   1.00
H619   H     0.28266   0.96151   0.06543   0.00000  Uiso   1.00
H620   H     0.26706   0.68650   0.05758   0.00000  Uiso   1.00
H621   H     0.27855   0.98508   0.00933   0.00000  Uiso   1.00
O622   O     0.19526   0.76701   0.48167   0.00000  Uiso   1.00
C623   C     0.23414   0.78355   0.49848   0.00000  Uiso   1.00
H624   H     0.23766   0.77097   0.03353   0.00000  Uiso   1.00
H625   H     0.23612   0.82135   0.00035   0.00000  Uiso   1.00
C626   C     0.27034   0.76497   0.47025   0.00000  Uiso   1.00
H627   H     0.26554   0.72812   0.46407   0.00000  Uiso   1.00
H628   H     0.27070   0.78263   0.43730   0.00000  Uiso   1.00
C629   C     0.31277   0.77176   0.49372   0.00000  Uiso   1.00
H630   H     0.31774   0.80806   0.00197   0.00000  Uiso   1.00
H631   H     0.00506   0.76036   0.47124   0.00000  Uiso   1.00
H632   H     0.31427   0.75161   0.02523   0.00000  Uiso   1.00
O633   O     0.09780   0.89370   0.46732   0.00000  Uiso   1.00
C634   C     0.05627   0.87662   0.46468   0.00000  Uiso   1.00
H635   H     0.04916   0.85838   0.49642   0.00000  Uiso   1.00
H636   H     0.05099   0.85280   0.43585   0.00000  Uiso   1.00
C637   C     0.02595   0.91647   0.45900   0.00000  Uiso   1.00
H638   H     0.02966   0.94028   0.48781   0.00000  Uiso   1.00
H639   H     0.03375   0.93497   0.42761   0.00000  Uiso   1.00
C640   C     0.31363   0.90064   0.45620   0.00000  Uiso   1.00
H641   H     0.30964   0.87417   0.42985   0.00000  Uiso   1.00
H642   H     0.29316   0.92985   0.44737   0.00000  Uiso   1.00
H643   H     0.30359   0.88692   0.48915   0.00000  Uiso   1.00
O644   O     0.11722   0.75786   0.02482   0.00000  Uiso   1.00
C645   C     0.08850   0.73079   0.04913   0.00000  Uiso   1.00
H646   H     0.06190   0.72256   0.02606   0.00000  Uiso   1.00
H647   H     0.07399   0.74834   0.07835   0.00000  Uiso   1.00
C648   C     0.10956   0.68605   0.06287   0.00000  Uiso   1.00
H649   H     0.11943   0.66752   0.03214   0.00000  Uiso   1.00
H650   H     0.13814   0.69286   0.08352   0.00000  Uiso   1.00
C651   C     0.07981   0.98930   0.08959   0.00000  Uiso   1.00
H652   H     0.07046   0.67324   0.12119   0.00000  Uiso   1.00
H653   H     0.09593   0.95702   0.09838   0.00000  Uiso   1.00
H654   H     0.05123   0.98130   0.06931   0.00000  Uiso   1.00
Cl655  Cl    0.05034   0.80114   0.33717   0.00000  Uiso   1.00
Cl656  Cl    0.28293   0.86622   0.16283   0.00000  Uiso   1.00
Cl657  Cl    0.28441   0.80100   0.33704   0.00000  Uiso   1.00
Cl658  Cl    0.04898   0.86624   0.16287   0.00000  Uiso   1.00
C659   C     0.42011   0.83334   0.24993   0.00000  Uiso   1.00
C660   C     0.57989   0.83334   0.24991   0.00000  Uiso   1.00
C661   C     0.49870   0.83331   0.16368   0.00000  Uiso   1.00
C662   C     0.49966   0.83335   0.33620   0.00000  Uiso   1.00
C663   C     0.52381   0.69071   0.28048   0.00000  Uiso   1.00
C664   C     0.47625   0.97595   0.21945   0.00000  Uiso   1.00
C665   C     0.47626   0.69062   0.21945   0.00000  Uiso   1.00
C666   C     0.52381   0.97605   0.28048   0.00000  Uiso   1.00
C667   C     0.35536   0.81843   0.28852   0.00000  Uiso   1.00
C668   C     0.64464   0.84854   0.21133   0.00000  Uiso   1.00
C669   C     0.64529   0.81840   0.28849   0.00000  Uiso   1.00
C670   C     0.35473   0.84854   0.21134   0.00000  Uiso   1.00
C671   C     0.49437   0.87297   0.04515   0.00000  Uiso   1.00
C672   C     0.50861   0.79990   0.45606   0.00000  Uiso   1.00
C673   C     0.45846   0.86261   0.44867   0.00000  Uiso   1.00
C674   C     0.46587   0.79546   0.04852   0.00000  Uiso   1.00
C675   C     0.49972   0.87284   0.09144   0.00000  Uiso   1.00
C676   C     0.51419   0.80020   0.40994   0.00000  Uiso   1.00
C677   C     0.46668   0.86448   0.40306   0.00000  Uiso   1.00
C678   C     0.47484   0.79497   0.09469   0.00000  Uiso   1.00
C679   C     0.49183   0.83340   0.11572   0.00000  Uiso   1.00
C680   C     0.49428   0.83327   0.38394   0.00000  Uiso   1.00
C681   C     0.47799   0.83400   0.02395   0.00000  Uiso   1.00
C682   C     0.48043   0.83118   0.47543   0.00000  Uiso   1.00
C683   C     0.62398   0.83339   0.24988   0.00000  Uiso   1.00
C684   C     0.37603   0.83339   0.24991   0.00000  Uiso   1.00
H685   H     0.54284   0.70898   0.30482   0.00000  Uiso   1.00
H686   H     0.45728   0.95770   0.19505   0.00000  Uiso   1.00
H687   H     0.45729   0.70880   0.19503   0.00000  Uiso   1.00
H688   H     0.54284   0.95786   0.30481   0.00000  Uiso   1.00
H689   H     0.51140   0.90308   0.10809   0.00000  Uiso   1.00
H690   H     0.53467   0.77532   0.39461   0.00000  Uiso   1.00
H691   H     0.45048   0.88939   0.38245   0.00000  Uiso   1.00
H692   H     0.46881   0.76496   0.11444   0.00000  Uiso   1.00
N693   N     0.50000   0.95240   0.25000   0.00000  Uiso   1.00
N694   N     0.50000   0.71427   0.25000   0.00000  Uiso   1.00
O695   O     0.43892   0.87154   0.24999   0.00000  Uiso   1.00
O696   O     0.56108   0.79513   0.25000   0.00000  Uiso   1.00
O697   O     0.56108   0.87154   0.25000   0.00000  Uiso   1.00
O698   O     0.43892   0.79513   0.24999   0.00000  Uiso   1.00
O699   O     0.50000   0.87155   0.18453   0.00000  Uiso   1.00
O700   O     0.50000   0.79511   0.31547   0.00000  Uiso   1.00
O701   O     0.50000   0.87155   0.31547   0.00000  Uiso   1.00
O702   O     0.50000   0.79511   0.18453   0.00000  Uiso   1.00
Zn703  Zn    0.50000   0.88437   0.25000   0.00000  Uiso   1.00
Zn704  Zn    0.50000   0.78229   0.25000   0.00000  Uiso   1.00
O705   O     0.50341   0.91152   0.02029   0.00000  Uiso   1.00
C706   C     0.54673   0.92260   0.02291   0.00000  Uiso   1.00
H707   H     0.55939   0.92120   0.48828   0.00000  Uiso   1.00
H708   H     0.56616   0.89881   0.04369   0.00000  Uiso   1.00
C709   C     0.55178   0.97097   0.04094   0.00000  Uiso   1.00
H710   H     0.53450   0.99494   0.01862   0.00000  Uiso   1.00
H711   H     0.53811   0.97321   0.07511   0.00000  Uiso   1.00
C712   C     0.59794   0.98506   0.04341   0.00000  Uiso   1.00
H713   H     0.61599   0.96151   0.06543   0.00000  Uiso   1.00
H714   H     0.60039   0.68650   0.05758   0.00000  Uiso   1.00
H715   H     0.61188   0.98508   0.00933   0.00000  Uiso   1.00
O716   O     0.52859   0.76701   0.48167   0.00000  Uiso   1.00
C717   C     0.56747   0.78355   0.49848   0.00000  Uiso   1.00
H718   H     0.57099   0.77097   0.03353   0.00000  Uiso   1.00
H719   H     0.56946   0.82135   0.00035   0.00000  Uiso   1.00
C720   C     0.60367   0.76497   0.47025   0.00000  Uiso   1.00
H721   H     0.59887   0.72812   0.46407   0.00000  Uiso   1.00
H722   H     0.60403   0.78263   0.43730   0.00000  Uiso   1.00
C723   C     0.64610   0.77176   0.49372   0.00000  Uiso   1.00
H724   H     0.65108   0.80806   0.00197   0.00000  Uiso   1.00
H725   H     0.33839   0.76036   0.47124   0.00000  Uiso   1.00
H726   H     0.64760   0.75161   0.02523   0.00000  Uiso   1.00
O727   O     0.43113   0.89370   0.46732   0.00000  Uiso   1.00
C728   C     0.38961   0.87662   0.46468   0.00000  Uiso   1.00
H729   H     0.38249   0.85838   0.49642   0.00000  Uiso   1.00
H730   H     0.38432   0.85280   0.43585   0.00000  Uiso   1.00
C731   C     0.35928   0.91647   0.45900   0.00000  Uiso   1.00
H732   H     0.36299   0.94028   0.48781   0.00000  Uiso   1.00
H733   H     0.36708   0.93497   0.42761   0.00000  Uiso   1.00
C734   C     0.64696   0.90064   0.45620   0.00000  Uiso   1.00
H735   H     0.64298   0.87417   0.42985   0.00000  Uiso   1.00
H736   H     0.62649   0.92985   0.44737   0.00000  Uiso   1.00
H737   H     0.63693   0.88692   0.48915   0.00000  Uiso   1.00
O738   O     0.45055   0.75786   0.02482   0.00000  Uiso   1.00
C739   C     0.42183   0.73079   0.04913   0.00000  Uiso   1.00
H740   H     0.39523   0.72256   0.02606   0.00000  Uiso   1.00
H741   H     0.40732   0.74834   0.07835   0.00000  Uiso   1.00
C742   C     0.44290   0.68605   0.06287   0.00000  Uiso   1.00
H743   H     0.45276   0.66752   0.03214   0.00000  Uiso   1.00
H744   H     0.47148   0.69286   0.08352   0.00000  Uiso   1.00
C745   C     0.41314   0.98930   0.08959   0.00000  Uiso   1.00
H746   H     0.40380   0.67324   0.12119   0.00000  Uiso   1.00
H747   H     0.42926   0.95702   0.09838   0.00000  Uiso   1.00
H748   H     0.38456   0.98130   0.06931   0.00000  Uiso   1.00
Cl749  Cl    0.38368   0.80114   0.33717   0.00000  Uiso   1.00
Cl750  Cl    0.61626   0.86622   0.16283   0.00000  Uiso   1.00
Cl751  Cl    0.61774   0.80100   0.33704   0.00000  Uiso   1.00
Cl752  Cl    0.38231   0.86624   0.16287   0.00000  Uiso   1.00
C753   C     0.75345   0.83334   0.24993   0.00000  Uiso   1.00
C754   C     0.91322   0.83334   0.24991   0.00000  Uiso   1.00
C755   C     0.83204   0.83331   0.16368   0.00000  Uiso   1.00
C756   C     0.83299   0.83335   0.33620   0.00000  Uiso   1.00
C757   C     0.85714   0.69071   0.28048   0.00000  Uiso   1.00
C758   C     0.80959   0.97595   0.21945   0.00000  Uiso   1.00
C759   C     0.80959   0.69062   0.21945   0.00000  Uiso   1.00
C760   C     0.85714   0.97605   0.28048   0.00000  Uiso   1.00
C761   C     0.68869   0.81843   0.28852   0.00000  Uiso   1.00
C762   C     0.97798   0.84854   0.21133   0.00000  Uiso   1.00
C763   C     0.97862   0.81840   0.28849   0.00000  Uiso   1.00
C764   C     0.68806   0.84854   0.21134   0.00000  Uiso   1.00
C765   C     0.82771   0.87297   0.04515   0.00000  Uiso   1.00
C766   C     0.84195   0.79990   0.45606   0.00000  Uiso   1.00
C767   C     0.79180   0.86261   0.44867   0.00000  Uiso   1.00
C768   C     0.79920   0.79546   0.04852   0.00000  Uiso   1.00
C769   C     0.83305   0.87284   0.09144   0.00000  Uiso   1.00
C770   C     0.84753   0.80020   0.40994   0.00000  Uiso   1.00
C771   C     0.80001   0.86448   0.40306   0.00000  Uiso   1.00
C772   C     0.80817   0.79497   0.09469   0.00000  Uiso   1.00
C773   C     0.82516   0.83340   0.11572   0.00000  Uiso   1.00
C774   C     0.82762   0.83327   0.38394   0.00000  Uiso   1.00
C775   C     0.81133   0.83400   0.02395   0.00000  Uiso   1.00
C776   C     0.81377   0.83118   0.47543   0.00000  Uiso   1.00
C777   C     0.95731   0.83339   0.24988   0.00000  Uiso   1.00
C778   C     0.70936   0.83339   0.24991   0.00000  Uiso   1.00
H779   H     0.87617   0.70898   0.30482   0.00000  Uiso   1.00
H780   H     0.79061   0.95770   0.19505   0.00000  Uiso   1.00
H781   H     0.79062   0.70880   0.19503   0.00000  Uiso   1.00
H782   H     0.87618   0.95786   0.30481   0.00000  Uiso   1.00
H783   H     0.84474   0.90308   0.10809   0.00000  Uiso   1.00
H784   H     0.86801   0.77532   0.39461   0.00000  Uiso   1.00
H785   H     0.78381   0.88939   0.38245   0.00000  Uiso   1.00
H786   H     0.80215   0.76496   0.11444   0.00000  Uiso   1.00
N787   N     0.83333   0.95240   0.25000   0.00000  Uiso   1.00
N788   N     0.83333   0.71427   0.25000   0.00000  Uiso   1.00
O789   O     0.77226   0.87154   0.24999   0.00000  Uiso   1.00
O790   O     0.89441   0.79513   0.25000   0.00000  Uiso   1.00
O791   O     0.89441   0.87154   0.25000   0.00000  Uiso   1.00
O792   O     0.77226   0.79513   0.24999   0.00000  Uiso   1.00
O793   O     0.83333   0.87155   0.18453   0.00000  Uiso   1.00
O794   O     0.83334   0.79511   0.31547   0.00000  Uiso   1.00
O795   O     0.83334   0.87155   0.31547   0.00000  Uiso   1.00
O796   O     0.83333   0.79511   0.18453   0.00000  Uiso   1.00
Zn797  Zn    0.83333   0.88437   0.25000   0.00000  Uiso   1.00
Zn798  Zn    0.83333   0.78229   0.25000   0.00000  Uiso   1.00
O799   O     0.83674   0.91152   0.02029   0.00000  Uiso   1.00
C800   C     0.88006   0.92260   0.02291   0.00000  Uiso   1.00
H801   H     0.89272   0.92120   0.48828   0.00000  Uiso   1.00
H802   H     0.89949   0.89881   0.04369   0.00000  Uiso   1.00
C803   C     0.88511   0.97097   0.04094   0.00000  Uiso   1.00
H804   H     0.86783   0.99494   0.01862   0.00000  Uiso   1.00
H805   H     0.87144   0.97321   0.07511   0.00000  Uiso   1.00
C806   C     0.93127   0.98506   0.04341   0.00000  Uiso   1.00
H807   H     0.94932   0.96151   0.06543   0.00000  Uiso   1.00
H808   H     0.93372   0.68650   0.05758   0.00000  Uiso   1.00
H809   H     0.94522   0.98508   0.00933   0.00000  Uiso   1.00
O810   O     0.86192   0.76701   0.48167   0.00000  Uiso   1.00
C811   C     0.90081   0.78355   0.49848   0.00000  Uiso   1.00
H812   H     0.90432   0.77097   0.03353   0.00000  Uiso   1.00
H813   H     0.90279   0.82135   0.00035   0.00000  Uiso   1.00
C814   C     0.93700   0.76497   0.47025   0.00000  Uiso   1.00
H815   H     0.93220   0.72812   0.46407   0.00000  Uiso   1.00
H816   H     0.93737   0.78263   0.43730   0.00000  Uiso   1.00
C817   C     0.97943   0.77176   0.49372   0.00000  Uiso   1.00
H818   H     0.98441   0.80806   0.00197   0.00000  Uiso   1.00
H819   H     0.67172   0.76036   0.47124   0.00000  Uiso   1.00
H820   H     0.98093   0.75161   0.02523   0.00000  Uiso   1.00
O821   O     0.76446   0.89370   0.46732   0.00000  Uiso   1.00
C822   C     0.72294   0.87662   0.46468   0.00000  Uiso   1.00
H823   H     0.71582   0.85838   0.49642   0.00000  Uiso   1.00
H824   H     0.71766   0.85280   0.43585   0.00000  Uiso   1.00
C825   C     0.69261   0.91647   0.45900   0.00000  Uiso   1.00
H826   H     0.69632   0.94028   0.48781   0.00000  Uiso   1.00
H827   H     0.70041   0.93497   0.42761   0.00000  Uiso   1.00
C828   C     0.98030   0.90064   0.45620   0.00000  Uiso   1.00
H829   H     0.97631   0.87417   0.42985   0.00000  Uiso   1.00
H830   H     0.95983   0.92985   0.44737   0.00000  Uiso   1.00
H831   H     0.97026   0.88692   0.48915   0.00000  Uiso   1.00
O832   O     0.78388   0.75786   0.02482   0.00000  Uiso   1.00
C833   C     0.75516   0.73079   0.04913   0.00000  Uiso   1.00
H834   H     0.72856   0.72256   0.02606   0.00000  Uiso   1.00
H835   H     0.74066   0.74834   0.07835   0.00000  Uiso   1.00
C836   C     0.77623   0.68605   0.06287   0.00000  Uiso   1.00
H837   H     0.78610   0.66752   0.03214   0.00000  Uiso   1.00
H838   H     0.80481   0.69286   0.08352   0.00000  Uiso   1.00
C839   C     0.74648   0.98930   0.08959   0.00000  Uiso   1.00
H840   H     0.73713   0.67324   0.12119   0.00000  Uiso   1.00
H841   H     0.76259   0.95702   0.09838   0.00000  Uiso   1.00
H842   H     0.71790   0.98130   0.06931   0.00000  Uiso   1.00
Cl843  Cl    0.71701   0.80114   0.33717   0.00000  Uiso   1.00
Cl844  Cl    0.94959   0.86622   0.16283   0.00000  Uiso   1.00
Cl845  Cl    0.95108   0.80100   0.33704   0.00000  Uiso   1.00
Cl846  Cl    0.71564   0.86624   0.16287   0.00000  Uiso   1.00
C847   C     0.08678   0.16667   0.74993   0.00000  Uiso   1.00
C848   C     0.24655   0.16668   0.74991   0.00000  Uiso   1.00
C849   C     0.16537   0.16664   0.66368   0.00000  Uiso   1.00
C850   C     0.16632   0.16668   0.83620   0.00000  Uiso   1.00
C851   C     0.19047   0.02405   0.78048   0.00000  Uiso   1.00
C852   C     0.14292   0.30929   0.71945   0.00000  Uiso   1.00
C853   C     0.14292   0.02396   0.71945   0.00000  Uiso   1.00
C854   C     0.19047   0.30938   0.78048   0.00000  Uiso   1.00
C855   C     0.02202   0.15176   0.78852   0.00000  Uiso   1.00
C856   C     0.31131   0.18188   0.71133   0.00000  Uiso   1.00
C857   C     0.31196   0.15174   0.78849   0.00000  Uiso   1.00
C858   C     0.02139   0.18187   0.71134   0.00000  Uiso   1.00
C859   C     0.16104   0.20630   0.54515   0.00000  Uiso   1.00
C860   C     0.17528   0.13323   0.95606   0.00000  Uiso   1.00
C861   C     0.12513   0.19595   0.94867   0.00000  Uiso   1.00
C862   C     0.13253   0.12879   0.54852   0.00000  Uiso   1.00
C863   C     0.16638   0.20618   0.59144   0.00000  Uiso   1.00
C864   C     0.18086   0.13354   0.90994   0.00000  Uiso   1.00
C865   C     0.13334   0.19782   0.90306   0.00000  Uiso   1.00
C866   C     0.14150   0.12830   0.59469   0.00000  Uiso   1.00
C867   C     0.15850   0.16673   0.61572   0.00000  Uiso   1.00
C868   C     0.16095   0.16660   0.88394   0.00000  Uiso   1.00
C869   C     0.14466   0.16734   0.52395   0.00000  Uiso   1.00
C870   C     0.14710   0.16451   0.97543   0.00000  Uiso   1.00
C871   C     0.29065   0.16672   0.74988   0.00000  Uiso   1.00
C872   C     0.04269   0.16672   0.74991   0.00000  Uiso   1.00
H873   H     0.20951   0.04231   0.80482   0.00000  Uiso   1.00
H874   H     0.12394   0.29103   0.69505   0.00000  Uiso   1.00
H875   H     0.12396   0.04213   0.69503   0.00000  Uiso   1.00
H876   H     0.20951   0.29119   0.80481   0.00000  Uiso   1.00
H877   H     0.17807   0.23641   0.60809   0.00000  Uiso   1.00
H878   H     0.20134   0.10865   0.89461   0.00000  Uiso   1.00
H879   H     0.11714   0.22272   0.88245   0.00000  Uiso   1.00
H880   H     0.13548   0.09829   0.61444   0.00000  Uiso   1.00
N881   N     0.16667   0.28573   0.75000   0.00000  Uiso   1.00
N882   N     0.16667   0.04760   0.75000   0.00000  Uiso   1.00
O883   O     0.10559   0.20487   0.74999   0.00000  Uiso   1.00
O884   O     0.22774   0.12846   0.75000   0.00000  Uiso   1.00
O885   O     0.22774   0.20487   0.75000   0.00000  Uiso   1.00
O886   O     0.10559   0.12846   0.74999   0.00000  Uiso   1.00
O887   O     0.16666   0.20489   0.68453   0.00000  Uiso   1.00
O888   O     0.16667   0.12845   0.81547   0.00000  Uiso   1.00
O889   O     0.16667   0.20489   0.81547   0.00000  Uiso   1.00
O890   O     0.16666   0.12845   0.68453   0.00000  Uiso   1.00
Zn891  Zn    0.16667   0.21771   0.75000   0.00000  Uiso   1.00
Zn892  Zn    0.16667   0.11563   0.75000   0.00000  Uiso   1.00
O893   O     0.17007   0.24485   0.52029   0.00000  Uiso   1.00
C894   C     0.21340   0.25593   0.52291   0.00000  Uiso   1.00
H895   H     0.22606   0.25453   0.98828   0.00000  Uiso   1.00
H896   H     0.23283   0.23215   0.54369   0.00000  Uiso   1.00
C897   C     0.21844   0.30430   0.54094   0.00000  Uiso   1.00
H898   H     0.20116   0.32828   0.51862   0.00000  Uiso   1.00
H899   H     0.20477   0.30654   0.57511   0.00000  Uiso   1.00
C900   C     0.26461   0.31839   0.54341   0.00000  Uiso   1.00
H901   H     0.28266   0.29484   0.56543   0.00000  Uiso   1.00
H902   H     0.26706   0.01983   0.55758   0.00000  Uiso   1.00
H903   H     0.27855   0.31841   0.50933   0.00000  Uiso   1.00
O904   O     0.19526   0.10034   0.98167   0.00000  Uiso   1.00
C905   C     0.23414   0.11688   0.99848   0.00000  Uiso   1.00
H906   H     0.23766   0.10430   0.53353   0.00000  Uiso   1.00
H907   H     0.23612   0.15468   0.50035   0.00000  Uiso   1.00
C908   C     0.27034   0.09830   0.97025   0.00000  Uiso   1.00
H909   H     0.26554   0.06145   0.96407   0.00000  Uiso   1.00
H910   H     0.27070   0.11597   0.93730   0.00000  Uiso   1.00
C911   C     0.31277   0.10509   0.99372   0.00000  Uiso   1.00
H912   H     0.31774   0.14139   0.50197   0.00000  Uiso   1.00
H913   H     0.00506   0.09369   0.97124   0.00000  Uiso   1.00
H914   H     0.31427   0.08494   0.52523   0.00000  Uiso   1.00
O915   O     0.09780   0.22703   0.96732   0.00000  Uiso   1.00
C916   C     0.05627   0.20995   0.96468   0.00000  Uiso   1.00
H917   H     0.04916   0.19172   0.99642   0.00000  Uiso   1.00
H918   H     0.05099   0.18614   0.93585   0.00000  Uiso   1.00
C919   C     0.02595   0.24981   0.95900   0.00000  Uiso   1.00
H920   H     0.02966   0.27362   0.98781   0.00000  Uiso   1.00
H921   H     0.03375   0.26831   0.92761   0.00000  Uiso   1.00
C922   C     0.31363   0.23397   0.95620   0.00000  Uiso   1.00
H923   H     0.30964   0.20751   0.92985   0.00000  Uiso   1.00
H924   H     0.29316   0.26318   0.94737   0.00000  Uiso   1.00
H925   H     0.30359   0.22026   0.98915   0.00000  Uiso   1.00
O926   O     0.11722   0.09119   0.52482   0.00000  Uiso   1.00
C927   C     0.08850   0.06412   0.54913   0.00000  Uiso   1.00
H928   H     0.06190   0.05590   0.52606   0.00000  Uiso   1.00
H929   H     0.07399   0.08168   0.57835   0.00000  Uiso   1.00
C930   C     0.10956   0.01938   0.56287   0.00000  Uiso   1.00
H931   H     0.11943   0.00085   0.53214   0.00000  Uiso   1.00
H932   H     0.13814   0.02619   0.58352   0.00000  Uiso   1.00
C933   C     0.07981   0.32263   0.58959   0.00000  Uiso   1.00
H934   H     0.07046   0.00657   0.62119   0.00000  Uiso   1.00
H935   H     0.09593   0.29036   0.59838   0.00000  Uiso   1.00
H936   H     0.05123   0.31464   0.56931   0.00000  Uiso   1.00
Cl937  Cl    0.05034   0.13448   0.83717   0.00000  Uiso   1.00
Cl938  Cl    0.28293   0.19955   0.66283   0.00000  Uiso   1.00
Cl939  Cl    0.28441   0.13434   0.83704   0.00000  Uiso   1.00
Cl940  Cl    0.04898   0.19957   0.66287   0.00000  Uiso   1.00
C941   C     0.42011   0.16667   0.74993   0.00000  Uiso   1.00
C942   C     0.57989   0.16668   0.74991   0.00000  Uiso   1.00
C943   C     0.49870   0.16664   0.66368   0.00000  Uiso   1.00
C944   C     0.49966   0.16668   0.83620   0.00000  Uiso   1.00
C945   C     0.52381   0.02405   0.78048   0.00000  Uiso   1.00
C946   C     0.47625   0.30929   0.71945   0.00000  Uiso   1.00
C947   C     0.47626   0.02396   0.71945   0.00000  Uiso   1.00
C948   C     0.52381   0.30938   0.78048   0.00000  Uiso   1.00
C949   C     0.35536   0.15176   0.78852   0.00000  Uiso   1.00
C950   C     0.64464   0.18188   0.71133   0.00000  Uiso   1.00
C951   C     0.64529   0.15174   0.78849   0.00000  Uiso   1.00
C952   C     0.35473   0.18187   0.71134   0.00000  Uiso   1.00
C953   C     0.49437   0.20630   0.54515   0.00000  Uiso   1.00
C954   C     0.50861   0.13323   0.95606   0.00000  Uiso   1.00
C955   C     0.45846   0.19595   0.94867   0.00000  Uiso   1.00
C956   C     0.46587   0.12879   0.54852   0.00000  Uiso   1.00
C957   C     0.49972   0.20618   0.59144   0.00000  Uiso   1.00
C958   C     0.51419   0.13354   0.90994   0.00000  Uiso   1.00
C959   C     0.46668   0.19782   0.90306   0.00000  Uiso   1.00
C960   C     0.47484   0.12830   0.59469   0.00000  Uiso   1.00
C961   C     0.49183   0.16673   0.61572   0.00000  Uiso   1.00
C962   C     0.49428   0.16660   0.88394   0.00000  Uiso   1.00
C963   C     0.47799   0.16734   0.52395   0.00000  Uiso   1.00
C964   C     0.48043   0.16451   0.97543   0.00000  Uiso   1.00
C965   C     0.62398   0.16672   0.74988   0.00000  Uiso   1.00
C966   C     0.37603   0.16672   0.74991   0.00000  Uiso   1.00
H967   H     0.54284   0.04231   0.80482   0.00000  Uiso   1.00
H968   H     0.45728   0.29103   0.69505   0.00000  Uiso   1.00
H969   H     0.45729   0.04213   0.69503   0.00000  Uiso   1.00
H970   H     0.54284   0.29119   0.80481   0.00000  Uiso   1.00
H971   H     0.51140   0.23641   0.60809   0.00000  Uiso   1.00
H972   H     0.53467   0.10865   0.89461   0.00000  Uiso   1.00
H973   H     0.45048   0.22272   0.88245   0.00000  Uiso   1.00
H974   H     0.46881   0.09829   0.61444   0.00000  Uiso   1.00
N975   N     0.50000   0.28573   0.75000   0.00000  Uiso   1.00
N976   N     0.50000   0.04760   0.75000   0.00000  Uiso   1.00
O977   O     0.43892   0.20487   0.74999   0.00000  Uiso   1.00
O978   O     0.56108   0.12846   0.75000   0.00000  Uiso   1.00
O979   O     0.56108   0.20487   0.75000   0.00000  Uiso   1.00
O980   O     0.43892   0.12846   0.74999   0.00000  Uiso   1.00
O981   O     0.50000   0.20489   0.68453   0.00000  Uiso   1.00
O982   O     0.50000   0.12845   0.81547   0.00000  Uiso   1.00
O983   O     0.50000   0.20489   0.81547   0.00000  Uiso   1.00
O984   O     0.50000   0.12845   0.68453   0.00000  Uiso   1.00
Zn985  Zn    0.50000   0.21771   0.75000   0.00000  Uiso   1.00
Zn986  Zn    0.50000   0.11563   0.75000   0.00000  Uiso   1.00
O987   O     0.50341   0.24485   0.52029   0.00000  Uiso   1.00
C988   C     0.54673   0.25593   0.52291   0.00000  Uiso   1.00
H989   H     0.55939   0.25453   0.98828   0.00000  Uiso   1.00
H990   H     0.56616   0.23215   0.54369   0.00000  Uiso   1.00
C991   C     0.55178   0.30430   0.54094   0.00000  Uiso   1.00
H992   H     0.53450   0.32828   0.51862   0.00000  Uiso   1.00
H993   H     0.53811   0.30654   0.57511   0.00000  Uiso   1.00
C994   C     0.59794   0.31839   0.54341   0.00000  Uiso   1.00
H995   H     0.61599   0.29484   0.56543   0.00000  Uiso   1.00
H996   H     0.60039   0.01983   0.55758   0.00000  Uiso   1.00
H997   H     0.61188   0.31841   0.50933   0.00000  Uiso   1.00
O998   O     0.52859   0.10034   0.98167   0.00000  Uiso   1.00
C999   C     0.56747   0.11688   0.99848   0.00000  Uiso   1.00
H1000  H     0.57099   0.10430   0.53353   0.00000  Uiso   1.00
H1001  H     0.56946   0.15468   0.50035   0.00000  Uiso   1.00
C1002  C     0.60367   0.09830   0.97025   0.00000  Uiso   1.00
H1003  H     0.59887   0.06145   0.96407   0.00000  Uiso   1.00
H1004  H     0.60403   0.11597   0.93730   0.00000  Uiso   1.00
C1005  C     0.64610   0.10509   0.99372   0.00000  Uiso   1.00
H1006  H     0.65108   0.14139   0.50197   0.00000  Uiso   1.00
H1007  H     0.33839   0.09369   0.97124   0.00000  Uiso   1.00
H1008  H     0.64760   0.08494   0.52523   0.00000  Uiso   1.00
O1009  O     0.43113   0.22703   0.96732   0.00000  Uiso   1.00
C1010  C     0.38961   0.20995   0.96468   0.00000  Uiso   1.00
H1011  H     0.38249   0.19172   0.99642   0.00000  Uiso   1.00
H1012  H     0.38432   0.18614   0.93585   0.00000  Uiso   1.00
C1013  C     0.35928   0.24981   0.95900   0.00000  Uiso   1.00
H1014  H     0.36299   0.27362   0.98781   0.00000  Uiso   1.00
H1015  H     0.36708   0.26831   0.92761   0.00000  Uiso   1.00
C1016  C     0.64696   0.23397   0.95620   0.00000  Uiso   1.00
H1017  H     0.64298   0.20751   0.92985   0.00000  Uiso   1.00
H1018  H     0.62649   0.26318   0.94737   0.00000  Uiso   1.00
H1019  H     0.63693   0.22026   0.98915   0.00000  Uiso   1.00
O1020  O     0.45055   0.09119   0.52482   0.00000  Uiso   1.00
C1021  C     0.42183   0.06412   0.54913   0.00000  Uiso   1.00
H1022  H     0.39523   0.05590   0.52606   0.00000  Uiso   1.00
H1023  H     0.40732   0.08168   0.57835   0.00000  Uiso   1.00
C1024  C     0.44290   0.01938   0.56287   0.00000  Uiso   1.00
H1025  H     0.45276   0.00085   0.53214   0.00000  Uiso   1.00
H1026  H     0.47148   0.02619   0.58352   0.00000  Uiso   1.00
C1027  C     0.41314   0.32263   0.58959   0.00000  Uiso   1.00
H1028  H     0.40380   0.00657   0.62119   0.00000  Uiso   1.00
H1029  H     0.42926   0.29036   0.59838   0.00000  Uiso   1.00
H1030  H     0.38456   0.31464   0.56931   0.00000  Uiso   1.00
Cl1031 Cl    0.38368   0.13448   0.83717   0.00000  Uiso   1.00
Cl1032 Cl    0.61626   0.19955   0.66283   0.00000  Uiso   1.00
Cl1033 Cl    0.61774   0.13434   0.83704   0.00000  Uiso   1.00
Cl1034 Cl    0.38231   0.19957   0.66287   0.00000  Uiso   1.00
C1035  C     0.75345   0.16667   0.74993   0.00000  Uiso   1.00
C1036  C     0.91322   0.16668   0.74991   0.00000  Uiso   1.00
C1037  C     0.83204   0.16664   0.66368   0.00000  Uiso   1.00
C1038  C     0.83299   0.16668   0.83620   0.00000  Uiso   1.00
C1039  C     0.85714   0.02405   0.78048   0.00000  Uiso   1.00
C1040  C     0.80959   0.30929   0.71945   0.00000  Uiso   1.00
C1041  C     0.80959   0.02396   0.71945   0.00000  Uiso   1.00
C1042  C     0.85714   0.30938   0.78048   0.00000  Uiso   1.00
C1043  C     0.68869   0.15176   0.78852   0.00000  Uiso   1.00
C1044  C     0.97798   0.18188   0.71133   0.00000  Uiso   1.00
C1045  C     0.97862   0.15174   0.78849   0.00000  Uiso   1.00
C1046  C     0.68806   0.18187   0.71134   0.00000  Uiso   1.00
C1047  C     0.82771   0.20630   0.54515   0.00000  Uiso   1.00
C1048  C     0.84195   0.13323   0.95606   0.00000  Uiso   1.00
C1049  C     0.79180   0.19595   0.94867   0.00000  Uiso   1.00
C1050  C     0.79920   0.12879   0.54852   0.00000  Uiso   1.00
C1051  C     0.83305   0.20618   0.59144   0.00000  Uiso   1.00
C1052  C     0.84753   0.13354   0.90994   0.00000  Uiso   1.00
C1053  C     0.80001   0.19782   0.90306   0.00000  Uiso   1.00
C1054  C     0.80817   0.12830   0.59469   0.00000  Uiso   1.00
C1055  C     0.82516   0.16673   0.61572   0.00000  Uiso   1.00
C1056  C     0.82762   0.16660   0.88394   0.00000  Uiso   1.00
C1057  C     0.81133   0.16734   0.52395   0.00000  Uiso   1.00
C1058  C     0.81377   0.16451   0.97543   0.00000  Uiso   1.00
C1059  C     0.95731   0.16672   0.74988   0.00000  Uiso   1.00
C1060  C     0.70936   0.16672   0.74991   0.00000  Uiso   1.00
H1061  H     0.87617   0.04231   0.80482   0.00000  Uiso   1.00
H1062  H     0.79061   0.29103   0.69505   0.00000  Uiso   1.00
H1063  H     0.79062   0.04213   0.69503   0.00000  Uiso   1.00
H1064  H     0.87618   0.29119   0.80481   0.00000  Uiso   1.00
H1065  H     0.84474   0.23641   0.60809   0.00000  Uiso   1.00
H1066  H     0.86801   0.10865   0.89461   0.00000  Uiso   1.00
H1067  H     0.78381   0.22272   0.88245   0.00000  Uiso   1.00
H1068  H     0.80215   0.09829   0.61444   0.00000  Uiso   1.00
N1069  N     0.83333   0.28573   0.75000   0.00000  Uiso   1.00
N1070  N     0.83333   0.04760   0.75000   0.00000  Uiso   1.00
O1071  O     0.77226   0.20487   0.74999   0.00000  Uiso   1.00
O1072  O     0.89441   0.12846   0.75000   0.00000  Uiso   1.00
O1073  O     0.89441   0.20487   0.75000   0.00000  Uiso   1.00
O1074  O     0.77226   0.12846   0.74999   0.00000  Uiso   1.00
O1075  O     0.83333   0.20489   0.68453   0.00000  Uiso   1.00
O1076  O     0.83334   0.12845   0.81547   0.00000  Uiso   1.00
O1077  O     0.83334   0.20489   0.81547   0.00000  Uiso   1.00
O1078  O     0.83333   0.12845   0.68453   0.00000  Uiso   1.00
Zn1079 Zn    0.83333   0.21771   0.75000   0.00000  Uiso   1.00
Zn1080 Zn    0.83333   0.11563   0.75000   0.00000  Uiso   1.00
O1081  O     0.83674   0.24485   0.52029   0.00000  Uiso   1.00
C1082  C     0.88006   0.25593   0.52291   0.00000  Uiso   1.00
H1083  H     0.89272   0.25453   0.98828   0.00000  Uiso   1.00
H1084  H     0.89949   0.23215   0.54369   0.00000  Uiso   1.00
C1085  C     0.88511   0.30430   0.54094   0.00000  Uiso   1.00
H1086  H     0.86783   0.32828   0.51862   0.00000  Uiso   1.00
H1087  H     0.87144   0.30654   0.57511   0.00000  Uiso   1.00
C1088  C     0.93127   0.31839   0.54341   0.00000  Uiso   1.00
H1089  H     0.94932   0.29484   0.56543   0.00000  Uiso   1.00
H1090  H     0.93372   0.01983   0.55758   0.00000  Uiso   1.00
H1091  H     0.94522   0.31841   0.50933   0.00000  Uiso   1.00
O1092  O     0.86192   0.10034   0.98167   0.00000  Uiso   1.00
C1093  C     0.90081   0.11688   0.99848   0.00000  Uiso   1.00
H1094  H     0.90432   0.10430   0.53353   0.00000  Uiso   1.00
H1095  H     0.90279   0.15468   0.50035   0.00000  Uiso   1.00
C1096  C     0.93700   0.09830   0.97025   0.00000  Uiso   1.00
H1097  H     0.93220   0.06145   0.96407   0.00000  Uiso   1.00
H1098  H     0.93737   0.11597   0.93730   0.00000  Uiso   1.00
C1099  C     0.97943   0.10509   0.99372   0.00000  Uiso   1.00
H1100  H     0.98441   0.14139   0.50197   0.00000  Uiso   1.00
H1101  H     0.67172   0.09369   0.97124   0.00000  Uiso   1.00
H1102  H     0.98093   0.08494   0.52523   0.00000  Uiso   1.00
O1103  O     0.76446   0.22703   0.96732   0.00000  Uiso   1.00
C1104  C     0.72294   0.20995   0.96468   0.00000  Uiso   1.00
H1105  H     0.71582   0.19172   0.99642   0.00000  Uiso   1.00
H1106  H     0.71766   0.18614   0.93585   0.00000  Uiso   1.00
C1107  C     0.69261   0.24981   0.95900   0.00000  Uiso   1.00
H1108  H     0.69632   0.27362   0.98781   0.00000  Uiso   1.00
H1109  H     0.70041   0.26831   0.92761   0.00000  Uiso   1.00
C1110  C     0.98030   0.23397   0.95620   0.00000  Uiso   1.00
H1111  H     0.97631   0.20751   0.92985   0.00000  Uiso   1.00
H1112  H     0.95983   0.26318   0.94737   0.00000  Uiso   1.00
H1113  H     0.97026   0.22026   0.98915   0.00000  Uiso   1.00
O1114  O     0.78388   0.09119   0.52482   0.00000  Uiso   1.00
C1115  C     0.75516   0.06412   0.54913   0.00000  Uiso   1.00
H1116  H     0.72856   0.05590   0.52606   0.00000  Uiso   1.00
H1117  H     0.74066   0.08168   0.57835   0.00000  Uiso   1.00
C1118  C     0.77623   0.01938   0.56287   0.00000  Uiso   1.00
H1119  H     0.78610   0.00085   0.53214   0.00000  Uiso   1.00
H1120  H     0.80481   0.02619   0.58352   0.00000  Uiso   1.00
C1121  C     0.74648   0.32263   0.58959   0.00000  Uiso   1.00
H1122  H     0.73713   0.00657   0.62119   0.00000  Uiso   1.00
H1123  H     0.76259   0.29036   0.59838   0.00000  Uiso   1.00
H1124  H     0.71790   0.31464   0.56931   0.00000  Uiso   1.00
Cl1125 Cl    0.71701   0.13448   0.83717   0.00000  Uiso   1.00
Cl1126 Cl    0.94959   0.19955   0.66283   0.00000  Uiso   1.00
Cl1127 Cl    0.95108   0.13434   0.83704   0.00000  Uiso   1.00
Cl1128 Cl    0.71564   0.19957   0.66287   0.00000  Uiso   1.00
C1129  C     0.08678   0.50001   0.74993   0.00000  Uiso   1.00
C1130  C     0.24655   0.50001   0.74991   0.00000  Uiso   1.00
C1131  C     0.16537   0.49997   0.66368   0.00000  Uiso   1.00
C1132  C     0.16632   0.50002   0.83620   0.00000  Uiso   1.00
C1133  C     0.19047   0.35738   0.78048   0.00000  Uiso   1.00
C1134  C     0.14292   0.64262   0.71945   0.00000  Uiso   1.00
C1135  C     0.14292   0.35729   0.71945   0.00000  Uiso   1.00
C1136  C     0.19047   0.64271   0.78048   0.00000  Uiso   1.00
C1137  C     0.02202   0.48509   0.78852   0.00000  Uiso   1.00
C1138  C     0.31131   0.51521   0.71133   0.00000  Uiso   1.00
C1139  C     0.31196   0.48507   0.78849   0.00000  Uiso   1.00
C1140  C     0.02139   0.51521   0.71134   0.00000  Uiso   1.00
C1141  C     0.16104   0.53963   0.54515   0.00000  Uiso   1.00
C1142  C     0.17528   0.46656   0.95606   0.00000  Uiso   1.00
C1143  C     0.12513   0.52928   0.94867   0.00000  Uiso   1.00
C1144  C     0.13253   0.46212   0.54852   0.00000  Uiso   1.00
C1145  C     0.16638   0.53951   0.59144   0.00000  Uiso   1.00
C1146  C     0.18086   0.46687   0.90994   0.00000  Uiso   1.00
C1147  C     0.13334   0.53115   0.90306   0.00000  Uiso   1.00
C1148  C     0.14150   0.46164   0.59469   0.00000  Uiso   1.00
C1149  C     0.15850   0.50007   0.61572   0.00000  Uiso   1.00
C1150  C     0.16095   0.49994   0.88394   0.00000  Uiso   1.00
C1151  C     0.14466   0.50067   0.52395   0.00000  Uiso   1.00
C1152  C     0.14710   0.49784   0.97543   0.00000  Uiso   1.00
C1153  C     0.29065   0.50006   0.74988   0.00000  Uiso   1.00
C1154  C     0.04269   0.50006   0.74991   0.00000  Uiso   1.00
H1155  H     0.20951   0.37565   0.80482   0.00000  Uiso   1.00
H1156  H     0.12394   0.62437   0.69505   0.00000  Uiso   1.00
H1157  H     0.12396   0.37547   0.69503   0.00000  Uiso   1.00
H1158  H     0.20951   0.62453   0.80481   0.00000  Uiso   1.00
H1159  H     0.17807   0.56975   0.60809   0.00000  Uiso   1.00
H1160  H     0.20134   0.44198   0.89461   0.00000  Uiso   1.00
H1161  H     0.11714   0.55606   0.88245   0.00000  Uiso   1.00
H1162  H     0.13548   0.43162   0.61444   0.00000  Uiso   1.00
N1163  N     0.16667   0.61907   0.75000   0.00000  Uiso   1.00
N1164  N     0.16667   0.38093   0.75000   0.00000  Uiso   1.00
O1165  O     0.10559   0.53821   0.74999   0.00000  Uiso   1.00
O1166  O     0.22774   0.46179   0.75000   0.00000  Uiso   1.00
O1167  O     0.22774   0.53821   0.75000   0.00000  Uiso   1.00
O1168  O     0.10559   0.46179   0.74999   0.00000  Uiso   1.00
O1169  O     0.16666   0.53822   0.68453   0.00000  Uiso   1.00
O1170  O     0.16667   0.46178   0.81547   0.00000  Uiso   1.00
O1171  O     0.16667   0.53822   0.81547   0.00000  Uiso   1.00
O1172  O     0.16666   0.46178   0.68453   0.00000  Uiso   1.00
Zn1173 Zn    0.16667   0.55104   0.75000   0.00000  Uiso   1.00
Zn1174 Zn    0.16667   0.44896   0.75000   0.00000  Uiso   1.00
O1175  O     0.17007   0.57819   0.52029   0.00000  Uiso   1.00
C1176  C     0.21340   0.58927   0.52291   0.00000  Uiso   1.00
H1177  H     0.22606   0.58787   0.98828   0.00000  Uiso   1.00
H1178  H     0.23283   0.56548   0.54369   0.00000  Uiso   1.00
C1179  C     0.21844   0.63764   0.54094   0.00000  Uiso   1.00
H1180  H     0.20116   0.66161   0.51862   0.00000  Uiso   1.00
H1181  H     0.20477   0.63987   0.57511   0.00000  Uiso   1.00
C1182  C     0.26461   0.65172   0.54341   0.00000  Uiso   1.00
H1183  H     0.28266   0.62817   0.56543   0.00000  Uiso   1.00
H1184  H     0.26706   0.35316   0.55758   0.00000  Uiso   1.00
H1185  H     0.27855   0.65174   0.50933   0.00000  Uiso   1.00
O1186  O     0.19526   0.43367   0.98167   0.00000  Uiso   1.00
C1187  C     0.23414   0.45021   0.99848   0.00000  Uiso   1.00
H1188  H     0.23766   0.43763   0.53353   0.00000  Uiso   1.00
H1189  H     0.23612   0.48801   0.50035   0.00000  Uiso   1.00
C1190  C     0.27034   0.43164   0.97025   0.00000  Uiso   1.00
H1191  H     0.26554   0.39479   0.96407   0.00000  Uiso   1.00
H1192  H     0.27070   0.44930   0.93730   0.00000  Uiso   1.00
C1193  C     0.31277   0.43842   0.99372   0.00000  Uiso   1.00
H1194  H     0.31774   0.47472   0.50197   0.00000  Uiso   1.00
H1195  H     0.00506   0.42703   0.97124   0.00000  Uiso   1.00
H1196  H     0.31427   0.41828   0.52523   0.00000  Uiso   1.00
O1197  O     0.09780   0.56037   0.96732   0.00000  Uiso   1.00
C1198  C     0.05627   0.54329   0.96468   0.00000  Uiso   1.00
H1199  H     0.04916   0.52505   0.99642   0.00000  Uiso   1.00
H1200  H     0.05099   0.51947   0.93585   0.00000  Uiso   1.00
C1201  C     0.02595   0.58314   0.95900   0.00000  Uiso   1.00
H1202  H     0.02966   0.60695   0.98781   0.00000  Uiso   1.00
H1203  H     0.03375   0.60164   0.92761   0.00000  Uiso   1.00
C1204  C     0.31363   0.56730   0.95620   0.00000  Uiso   1.00
H1205  H     0.30964   0.54084   0.92985   0.00000  Uiso   1.00
H1206  H     0.29316   0.59651   0.94737   0.00000  Uiso   1.00
H1207  H     0.30359   0.55359   0.98915   0.00000  Uiso   1.00
O1208  O     0.11722   0.42452   0.52482   0.00000  Uiso   1.00
C1209  C     0.08850   0.39745   0.54913   0.00000  Uiso   1.00
H1210  H     0.06190   0.38923   0.52606   0.00000  Uiso   1.00
H1211  H     0.07399   0.41501   0.57835   0.00000  Uiso   1.00
C1212  C     0.10956   0.35271   0.56287   0.00000  Uiso   1.00
H1213  H     0.11943   0.33419   0.53214   0.00000  Uiso   1.00
H1214  H     0.13814   0.35952   0.58352   0.00000  Uiso   1.00
C1215  C     0.07981   0.65596   0.58959   0.00000  Uiso   1.00
H1216  H     0.07046   0.33991   0.62119   0.00000  Uiso   1.00
H1217  H     0.09593   0.62369   0.59838   0.00000  Uiso   1.00
H1218  H     0.05123   0.64797   0.56931   0.00000  Uiso   1.00
Cl1219 Cl    0.05034   0.46781   0.83717   0.00000  Uiso   1.00
Cl1220 Cl    0.28293   0.53288   0.66283   0.00000  Uiso   1.00
Cl1221 Cl    0.28441   0.46767   0.83704   0.00000  Uiso   1.00
Cl1222 Cl    0.04898   0.53290   0.66287   0.00000  Uiso   1.00
C1223  C     0.42011   0.50001   0.74993   0.00000  Uiso   1.00
C1224  C     0.57989   0.50001   0.74991   0.00000  Uiso   1.00
C1225  C     0.49870   0.49997   0.66368   0.00000  Uiso   1.00
C1226  C     0.49966   0.50002   0.83620   0.00000  Uiso   1.00
C1227  C     0.52381   0.35738   0.78048   0.00000  Uiso   1.00
C1228  C     0.47625   0.64262   0.71945   0.00000  Uiso   1.00
C1229  C     0.47626   0.35729   0.71945   0.00000  Uiso   1.00
C1230  C     0.52381   0.64271   0.78048   0.00000  Uiso   1.00
C1231  C     0.35536   0.48509   0.78852   0.00000  Uiso   1.00
C1232  C     0.64464   0.51521   0.71133   0.00000  Uiso   1.00
C1233  C     0.64529   0.48507   0.78849   0.00000  Uiso   1.00
C1234  C     0.35473   0.51521   0.71134   0.00000  Uiso   1.00
C1235  C     0.49437   0.53963   0.54515   0.00000  Uiso   1.00
C1236  C     0.50861   0.46656   0.95606   0.00000  Uiso   1.00
C1237  C     0.45846   0.52928   0.94867   0.00000  Uiso   1.00
C1238  C     0.46587   0.46212   0.54852   0.00000  Uiso   1.00
C1239  C     0.49972   0.53951   0.59144   0.00000  Uiso   1.00
C1240  C     0.51419   0.46687   0.90994   0.00000  Uiso   1.00
C1241  C     0.46668   0.53115   0.90306   0.00000  Uiso   1.00
C1242  C     0.47484   0.46164   0.59469   0.00000  Uiso   1.00
C1243  C     0.49183   0.50007   0.61572   0.00000  Uiso   1.00
C1244  C     0.49428   0.49994   0.88394   0.00000  Uiso   1.00
C1245  C     0.47799   0.50067   0.52395   0.00000  Uiso   1.00
C1246  C     0.48043   0.49784   0.97543   0.00000  Uiso   1.00
C1247  C     0.62398   0.50006   0.74988   0.00000  Uiso   1.00
C1248  C     0.37603   0.50006   0.74991   0.00000  Uiso   1.00
H1249  H     0.54284   0.37565   0.80482   0.00000  Uiso   1.00
H1250  H     0.45728   0.62437   0.69505   0.00000  Uiso   1.00
H1251  H     0.45729   0.37547   0.69503   0.00000  Uiso   1.00
H1252  H     0.54284   0.62453   0.80481   0.00000  Uiso   1.00
H1253  H     0.51140   0.56975   0.60809   0.00000  Uiso   1.00
H1254  H     0.53467   0.44198   0.89461   0.00000  Uiso   1.00
H1255  H     0.45048   0.55606   0.88245   0.00000  Uiso   1.00
H1256  H     0.46881   0.43162   0.61444   0.00000  Uiso   1.00
N1257  N     0.50000   0.61907   0.75000   0.00000  Uiso   1.00
N1258  N     0.50000   0.38093   0.75000   0.00000  Uiso   1.00
O1259  O     0.43892   0.53821   0.74999   0.00000  Uiso   1.00
O1260  O     0.56108   0.46179   0.75000   0.00000  Uiso   1.00
O1261  O     0.56108   0.53821   0.75000   0.00000  Uiso   1.00
O1262  O     0.43892   0.46179   0.74999   0.00000  Uiso   1.00
O1263  O     0.50000   0.53822   0.68453   0.00000  Uiso   1.00
O1264  O     0.50000   0.46178   0.81547   0.00000  Uiso   1.00
O1265  O     0.50000   0.53822   0.81547   0.00000  Uiso   1.00
O1266  O     0.50000   0.46178   0.68453   0.00000  Uiso   1.00
Zn1267 Zn    0.50000   0.55104   0.75000   0.00000  Uiso   1.00
Zn1268 Zn    0.50000   0.44896   0.75000   0.00000  Uiso   1.00
O1269  O     0.50341   0.57819   0.52029   0.00000  Uiso   1.00
C1270  C     0.54673   0.58927   0.52291   0.00000  Uiso   1.00
H1271  H     0.55939   0.58787   0.98828   0.00000  Uiso   1.00
H1272  H     0.56616   0.56548   0.54369   0.00000  Uiso   1.00
C1273  C     0.55178   0.63764   0.54094   0.00000  Uiso   1.00
H1274  H     0.53450   0.66161   0.51862   0.00000  Uiso   1.00
H1275  H     0.53811   0.63987   0.57511   0.00000  Uiso   1.00
C1276  C     0.59794   0.65172   0.54341   0.00000  Uiso   1.00
H1277  H     0.61599   0.62817   0.56543   0.00000  Uiso   1.00
H1278  H     0.60039   0.35316   0.55758   0.00000  Uiso   1.00
H1279  H     0.61188   0.65174   0.50933   0.00000  Uiso   1.00
O1280  O     0.52859   0.43367   0.98167   0.00000  Uiso   1.00
C1281  C     0.56747   0.45021   0.99848   0.00000  Uiso   1.00
H1282  H     0.57099   0.43763   0.53353   0.00000  Uiso   1.00
H1283  H     0.56946   0.48801   0.50035   0.00000  Uiso   1.00
C1284  C     0.60367   0.43164   0.97025   0.00000  Uiso   1.00
H1285  H     0.59887   0.39479   0.96407   0.00000  Uiso   1.00
H1286  H     0.60403   0.44930   0.93730   0.00000  Uiso   1.00
C1287  C     0.64610   0.43842   0.99372   0.00000  Uiso   1.00
H1288  H     0.65108   0.47472   0.50197   0.00000  Uiso   1.00
H1289  H     0.33839   0.42703   0.97124   0.00000  Uiso   1.00
H1290  H     0.64760   0.41828   0.52523   0.00000  Uiso   1.00
O1291  O     0.43113   0.56037   0.96732   0.00000  Uiso   1.00
C1292  C     0.38961   0.54329   0.96468   0.00000  Uiso   1.00
H1293  H     0.38249   0.52505   0.99642   0.00000  Uiso   1.00
H1294  H     0.38432   0.51947   0.93585   0.00000  Uiso   1.00
C1295  C     0.35928   0.58314   0.95900   0.00000  Uiso   1.00
H1296  H     0.36299   0.60695   0.98781   0.00000  Uiso   1.00
H1297  H     0.36708   0.60164   0.92761   0.00000  Uiso   1.00
C1298  C     0.64696   0.56730   0.95620   0.00000  Uiso   1.00
H1299  H     0.64298   0.54084   0.92985   0.00000  Uiso   1.00
H1300  H     0.62649   0.59651   0.94737   0.00000  Uiso   1.00
H1301  H     0.63693   0.55359   0.98915   0.00000  Uiso   1.00
O1302  O     0.45055   0.42452   0.52482   0.00000  Uiso   1.00
C1303  C     0.42183   0.39745   0.54913   0.00000  Uiso   1.00
H1304  H     0.39523   0.38923   0.52606   0.00000  Uiso   1.00
H1305  H     0.40732   0.41501   0.57835   0.00000  Uiso   1.00
C1306  C     0.44290   0.35271   0.56287   0.00000  Uiso   1.00
H1307  H     0.45276   0.33419   0.53214   0.00000  Uiso   1.00
H1308  H     0.47148   0.35952   0.58352   0.00000  Uiso   1.00
C1309  C     0.41314   0.65596   0.58959   0.00000  Uiso   1.00
H1310  H     0.40380   0.33991   0.62119   0.00000  Uiso   1.00
H1311  H     0.42926   0.62369   0.59838   0.00000  Uiso   1.00
H1312  H     0.38456   0.64797   0.56931   0.00000  Uiso   1.00
Cl1313 Cl    0.38368   0.46781   0.83717   0.00000  Uiso   1.00
Cl1314 Cl    0.61626   0.53288   0.66283   0.00000  Uiso   1.00
Cl1315 Cl    0.61774   0.46767   0.83704   0.00000  Uiso   1.00
Cl1316 Cl    0.38231   0.53290   0.66287   0.00000  Uiso   1.00
C1317  C     0.75345   0.50001   0.74993   0.00000  Uiso   1.00
C1318  C     0.91322   0.50001   0.74991   0.00000  Uiso   1.00
C1319  C     0.83204   0.49997   0.66368   0.00000  Uiso   1.00
C1320  C     0.83299   0.50002   0.83620   0.00000  Uiso   1.00
C1321  C     0.85714   0.35738   0.78048   0.00000  Uiso   1.00
C1322  C     0.80959   0.64262   0.71945   0.00000  Uiso   1.00
C1323  C     0.80959   0.35729   0.71945   0.00000  Uiso   1.00
C1324  C     0.85714   0.64271   0.78048   0.00000  Uiso   1.00
C1325  C     0.68869   0.48509   0.78852   0.00000  Uiso   1.00
C1326  C     0.97798   0.51521   0.71133   0.00000  Uiso   1.00
C1327  C     0.97862   0.48507   0.78849   0.00000  Uiso   1.00
C1328  C     0.68806   0.51521   0.71134   0.00000  Uiso   1.00
C1329  C     0.82771   0.53963   0.54515   0.00000  Uiso   1.00
C1330  C     0.84195   0.46656   0.95606   0.00000  Uiso   1.00
C1331  C     0.79180   0.52928   0.94867   0.00000  Uiso   1.00
C1332  C     0.79920   0.46212   0.54852   0.00000  Uiso   1.00
C1333  C     0.83305   0.53951   0.59144   0.00000  Uiso   1.00
C1334  C     0.84753   0.46687   0.90994   0.00000  Uiso   1.00
C1335  C     0.80001   0.53115   0.90306   0.00000  Uiso   1.00
C1336  C     0.80817   0.46164   0.59469   0.00000  Uiso   1.00
C1337  C     0.82516   0.50007   0.61572   0.00000  Uiso   1.00
C1338  C     0.82762   0.49994   0.88394   0.00000  Uiso   1.00
C1339  C     0.81133   0.50067   0.52395   0.00000  Uiso   1.00
C1340  C     0.81377   0.49784   0.97543   0.00000  Uiso   1.00
C1341  C     0.95731   0.50006   0.74988   0.00000  Uiso   1.00
C1342  C     0.70936   0.50006   0.74991   0.00000  Uiso   1.00
H1343  H     0.87617   0.37565   0.80482   0.00000  Uiso   1.00
H1344  H     0.79061   0.62437   0.69505   0.00000  Uiso   1.00
H1345  H     0.79062   0.37547   0.69503   0.00000  Uiso   1.00
H1346  H     0.87618   0.62453   0.80481   0.00000  Uiso   1.00
H1347  H     0.84474   0.56975   0.60809   0.00000  Uiso   1.00
H1348  H     0.86801   0.44198   0.89461   0.00000  Uiso   1.00
H1349  H     0.78381   0.55606   0.88245   0.00000  Uiso   1.00
H1350  H     0.80215   0.43162   0.61444   0.00000  Uiso   1.00
N1351  N     0.83333   0.61907   0.75000   0.00000  Uiso   1.00
N1352  N     0.83333   0.38093   0.75000   0.00000  Uiso   1.00
O1353  O     0.77226   0.53821   0.74999   0.00000  Uiso   1.00
O1354  O     0.89441   0.46179   0.75000   0.00000  Uiso   1.00
O1355  O     0.89441   0.53821   0.75000   0.00000  Uiso   1.00
O1356  O     0.77226   0.46179   0.74999   0.00000  Uiso   1.00
O1357  O     0.83333   0.53822   0.68453   0.00000  Uiso   1.00
O1358  O     0.83334   0.46178   0.81547   0.00000  Uiso   1.00
O1359  O     0.83334   0.53822   0.81547   0.00000  Uiso   1.00
O1360  O     0.83333   0.46178   0.68453   0.00000  Uiso   1.00
Zn1361 Zn    0.83333   0.55104   0.75000   0.00000  Uiso   1.00
Zn1362 Zn    0.83333   0.44896   0.75000   0.00000  Uiso   1.00
O1363  O     0.83674   0.57819   0.52029   0.00000  Uiso   1.00
C1364  C     0.88006   0.58927   0.52291   0.00000  Uiso   1.00
H1365  H     0.89272   0.58787   0.98828   0.00000  Uiso   1.00
H1366  H     0.89949   0.56548   0.54369   0.00000  Uiso   1.00
C1367  C     0.88511   0.63764   0.54094   0.00000  Uiso   1.00
H1368  H     0.86783   0.66161   0.51862   0.00000  Uiso   1.00
H1369  H     0.87144   0.63987   0.57511   0.00000  Uiso   1.00
C1370  C     0.93127   0.65172   0.54341   0.00000  Uiso   1.00
H1371  H     0.94932   0.62817   0.56543   0.00000  Uiso   1.00
H1372  H     0.93372   0.35316   0.55758   0.00000  Uiso   1.00
H1373  H     0.94522   0.65174   0.50933   0.00000  Uiso   1.00
O1374  O     0.86192   0.43367   0.98167   0.00000  Uiso   1.00
C1375  C     0.90081   0.45021   0.99848   0.00000  Uiso   1.00
H1376  H     0.90432   0.43763   0.53353   0.00000  Uiso   1.00
H1377  H     0.90279   0.48801   0.50035   0.00000  Uiso   1.00
C1378  C     0.93700   0.43164   0.97025   0.00000  Uiso   1.00
H1379  H     0.93220   0.39479   0.96407   0.00000  Uiso   1.00
H1380  H     0.93737   0.44930   0.93730   0.00000  Uiso   1.00
C1381  C     0.97943   0.43842   0.99372   0.00000  Uiso   1.00
H1382  H     0.98441   0.47472   0.50197   0.00000  Uiso   1.00
H1383  H     0.67172   0.42703   0.97124   0.00000  Uiso   1.00
H1384  H     0.98093   0.41828   0.52523   0.00000  Uiso   1.00
O1385  O     0.76446   0.56037   0.96732   0.00000  Uiso   1.00
C1386  C     0.72294   0.54329   0.96468   0.00000  Uiso   1.00
H1387  H     0.71582   0.52505   0.99642   0.00000  Uiso   1.00
H1388  H     0.71766   0.51947   0.93585   0.00000  Uiso   1.00
C1389  C     0.69261   0.58314   0.95900   0.00000  Uiso   1.00
H1390  H     0.69632   0.60695   0.98781   0.00000  Uiso   1.00
H1391  H     0.70041   0.60164   0.92761   0.00000  Uiso   1.00
C1392  C     0.98030   0.56730   0.95620   0.00000  Uiso   1.00
H1393  H     0.97631   0.54084   0.92985   0.00000  Uiso   1.00
H1394  H     0.95983   0.59651   0.94737   0.00000  Uiso   1.00
H1395  H     0.97026   0.55359   0.98915   0.00000  Uiso   1.00
O1396  O     0.78388   0.42452   0.52482   0.00000  Uiso   1.00
C1397  C     0.75516   0.39745   0.54913   0.00000  Uiso   1.00
H1398  H     0.72856   0.38923   0.52606   0.00000  Uiso   1.00
H1399  H     0.74066   0.41501   0.57835   0.00000  Uiso   1.00
C1400  C     0.77623   0.35271   0.56287   0.00000  Uiso   1.00
H1401  H     0.78610   0.33419   0.53214   0.00000  Uiso   1.00
H1402  H     0.80481   0.35952   0.58352   0.00000  Uiso   1.00
C1403  C     0.74648   0.65596   0.58959   0.00000  Uiso   1.00
H1404  H     0.73713   0.33991   0.62119   0.00000  Uiso   1.00
H1405  H     0.76259   0.62369   0.59838   0.00000  Uiso   1.00
H1406  H     0.71790   0.64797   0.56931   0.00000  Uiso   1.00
Cl1407 Cl    0.71701   0.46781   0.83717   0.00000  Uiso   1.00
Cl1408 Cl    0.94959   0.53288   0.66283   0.00000  Uiso   1.00
Cl1409 Cl    0.95108   0.46767   0.83704   0.00000  Uiso   1.00
Cl1410 Cl    0.71564   0.53290   0.66287   0.00000  Uiso   1.00
C1411  C     0.08678   0.83334   0.74993   0.00000  Uiso   1.00
C1412  C     0.24655   0.83334   0.74991   0.00000  Uiso   1.00
C1413  C     0.16537   0.83331   0.66368   0.00000  Uiso   1.00
C1414  C     0.16632   0.83335   0.83620   0.00000  Uiso   1.00
C1415  C     0.19047   0.69071   0.78048   0.00000  Uiso   1.00
C1416  C     0.14292   0.97595   0.71945   0.00000  Uiso   1.00
C1417  C     0.14292   0.69062   0.71945   0.00000  Uiso   1.00
C1418  C     0.19047   0.97605   0.78048   0.00000  Uiso   1.00
C1419  C     0.02202   0.81843   0.78852   0.00000  Uiso   1.00
C1420  C     0.31131   0.84854   0.71133   0.00000  Uiso   1.00
C1421  C     0.31196   0.81840   0.78849   0.00000  Uiso   1.00
C1422  C     0.02139   0.84854   0.71134   0.00000  Uiso   1.00
C1423  C     0.16104   0.87297   0.54515   0.00000  Uiso   1.00
C1424  C     0.17528   0.79990   0.95606   0.00000  Uiso   1.00
C1425  C     0.12513   0.86261   0.94867   0.00000  Uiso   1.00
C1426  C     0.13253   0.79546   0.54852   0.00000  Uiso   1.00
C1427  C     0.16638   0.87284   0.59144   0.00000  Uiso   1.00
C1428  C     0.18086   0.80020   0.90994   0.00000  Uiso   1.00
C1429  C     0.13334   0.86448   0.90306   0.00000  Uiso   1.00
C1430  C     0.14150   0.79497   0.59469   0.00000  Uiso   1.00
C1431  C     0.15850   0.83340   0.61572   0.00000  Uiso   1.00
C1432  C     0.16095   0.83327   0.88394   0.00000  Uiso   1.00
C1433  C     0.14466   0.83400   0.52395   0.00000  Uiso   1.00
C1434  C     0.14710   0.83118   0.97543   0.00000  Uiso   1.00
C1435  C     0.29065   0.83339   0.74988   0.00000  Uiso   1.00
C1436  C     0.04269   0.83339   0.74991   0.00000  Uiso   1.00
H1437  H     0.20951   0.70898   0.80482   0.00000  Uiso   1.00
H1438  H     0.12394   0.95770   0.69505   0.00000  Uiso   1.00
H1439  H     0.12396   0.70880   0.69503   0.00000  Uiso   1.00
H1440  H     0.20951   0.95786   0.80481   0.00000  Uiso   1.00
H1441  H     0.17807   0.90308   0.60809   0.00000  Uiso   1.00
H1442  H     0.20134   0.77532   0.89461   0.00000  Uiso   1.00
H1443  H     0.11714   0.88939   0.88245   0.00000  Uiso   1.00
H1444  H     0.13548   0.76496   0.61444   0.00000  Uiso   1.00
N1445  N     0.16667   0.95240   0.75000   0.00000  Uiso   1.00
N1446  N     0.16667   0.71427   0.75000   0.00000  Uiso   1.00
O1447  O     0.10559   0.87154   0.74999   0.00000  Uiso   1.00
O1448  O     0.22774   0.79513   0.75000   0.00000  Uiso   1.00
O1449  O     0.22774   0.87154   0.75000   0.00000  Uiso   1.00
O1450  O     0.10559   0.79513   0.74999   0.00000  Uiso   1.00
O1451  O     0.16666   0.87155   0.68453   0.00000  Uiso   1.00
O1452  O     0.16667   0.79511   0.81547   0.00000  Uiso   1.00
O1453  O     0.16667   0.87155   0.81547   0.00000  Uiso   1.00
O1454  O     0.16666   0.79511   0.68453   0.00000  Uiso   1.00
Zn1455 Zn    0.16667   0.88437   0.75000   0.00000  Uiso   1.00
Zn1456 Zn    0.16667   0.78229   0.75000   0.00000  Uiso   1.00
O1457  O     0.17007   0.91152   0.52029   0.00000  Uiso   1.00
C1458  C     0.21340   0.92260   0.52291   0.00000  Uiso   1.00
H1459  H     0.22606   0.92120   0.98828   0.00000  Uiso   1.00
H1460  H     0.23283   0.89881   0.54369   0.00000  Uiso   1.00
C1461  C     0.21844   0.97097   0.54094   0.00000  Uiso   1.00
H1462  H     0.20116   0.99494   0.51862   0.00000  Uiso   1.00
H1463  H     0.20477   0.97321   0.57511   0.00000  Uiso   1.00
C1464  C     0.26461   0.98506   0.54341   0.00000  Uiso   1.00
H1465  H     0.28266   0.96151   0.56543   0.00000  Uiso   1.00
H1466  H     0.26706   0.68650   0.55758   0.00000  Uiso   1.00
H1467  H     0.27855   0.98508   0.50933   0.00000  Uiso   1.00
O1468  O     0.19526   0.76701   0.98167   0.00000  Uiso   1.00
C1469  C     0.23414   0.78355   0.99848   0.00000  Uiso   1.00
H1470  H     0.23766   0.77097   0.53353   0.00000  Uiso   1.00
H1471  H     0.23612   0.82135   0.50035   0.00000  Uiso   1.00
C1472  C     0.27034   0.76497   0.97025   0.00000  Uiso   1.00
H1473  H     0.26554   0.72812   0.96407   0.00000  Uiso   1.00
H1474  H     0.27070   0.78263   0.93730   0.00000  Uiso   1.00
C1475  C     0.31277   0.77176   0.99372   0.00000  Uiso   1.00
H1476  H     0.31774   0.80806   0.50197   0.00000  Uiso   1.00
H1477  H     0.00506   0.76036   0.97124   0.00000  Uiso   1.00
H1478  H     0.31427   0.75161   0.52523   0.00000  Uiso   1.00
O1479  O     0.09780   0.89370   0.96732   0.00000  Uiso   1.00
C1480  C     0.05627   0.87662   0.96468   0.00000  Uiso   1.00
H1481  H     0.04916   0.85838   0.99642   0.00000  Uiso   1.00
H1482  H     0.05099   0.85280   0.93585   0.00000  Uiso   1.00
C1483  C     0.02595   0.91647   0.95900   0.00000  Uiso   1.00
H1484  H     0.02966   0.94028   0.98781   0.00000  Uiso   1.00
H1485  H     0.03375   0.93497   0.92761   0.00000  Uiso   1.00
C1486  C     0.31363   0.90064   0.95620   0.00000  Uiso   1.00
H1487  H     0.30964   0.87417   0.92985   0.00000  Uiso   1.00
H1488  H     0.29316   0.92985   0.94737   0.00000  Uiso   1.00
H1489  H     0.30359   0.88692   0.98915   0.00000  Uiso   1.00
O1490  O     0.11722   0.75786   0.52482   0.00000  Uiso   1.00
C1491  C     0.08850   0.73079   0.54913   0.00000  Uiso   1.00
H1492  H     0.06190   0.72256   0.52606   0.00000  Uiso   1.00
H1493  H     0.07399   0.74834   0.57835   0.00000  Uiso   1.00
C1494  C     0.10956   0.68605   0.56287   0.00000  Uiso   1.00
H1495  H     0.11943   0.66752   0.53214   0.00000  Uiso   1.00
H1496  H     0.13814   0.69286   0.58352   0.00000  Uiso   1.00
C1497  C     0.07981   0.98930   0.58959   0.00000  Uiso   1.00
H1498  H     0.07046   0.67324   0.62119   0.00000  Uiso   1.00
H1499  H     0.09593   0.95702   0.59838   0.00000  Uiso   1.00
H1500  H     0.05123   0.98130   0.56931   0.00000  Uiso   1.00
Cl1501 Cl    0.05034   0.80114   0.83717   0.00000  Uiso   1.00
Cl1502 Cl    0.28293   0.86622   0.66283   0.00000  Uiso   1.00
Cl1503 Cl    0.28441   0.80100   0.83704   0.00000  Uiso   1.00
Cl1504 Cl    0.04898   0.86624   0.66287   0.00000  Uiso   1.00
C1505  C     0.42011   0.83334   0.74993   0.00000  Uiso   1.00
C1506  C     0.57989   0.83334   0.74991   0.00000  Uiso   1.00
C1507  C     0.49870   0.83331   0.66368   0.00000  Uiso   1.00
C1508  C     0.49966   0.83335   0.83620   0.00000  Uiso   1.00
C1509  C     0.52381   0.69071   0.78048   0.00000  Uiso   1.00
C1510  C     0.47625   0.97595   0.71945   0.00000  Uiso   1.00
C1511  C     0.47626   0.69062   0.71945   0.00000  Uiso   1.00
C1512  C     0.52381   0.97605   0.78048   0.00000  Uiso   1.00
C1513  C     0.35536   0.81843   0.78852   0.00000  Uiso   1.00
C1514  C     0.64464   0.84854   0.71133   0.00000  Uiso   1.00
C1515  C     0.64529   0.81840   0.78849   0.00000  Uiso   1.00
C1516  C     0.35473   0.84854   0.71134   0.00000  Uiso   1.00
C1517  C     0.49437   0.87297   0.54515   0.00000  Uiso   1.00
C1518  C     0.50861   0.79990   0.95606   0.00000  Uiso   1.00
C1519  C     0.45846   0.86261   0.94867   0.00000  Uiso   1.00
C1520  C     0.46587   0.79546   0.54852   0.00000  Uiso   1.00
C1521  C     0.49972   0.87284   0.59144   0.00000  Uiso   1.00
C1522  C     0.51419   0.80020   0.90994   0.00000  Uiso   1.00
C1523  C     0.46668   0.86448   0.90306   0.00000  Uiso   1.00
C1524  C     0.47484   0.79497   0.59469   0.00000  Uiso   1.00
C1525  C     0.49183   0.83340   0.61572   0.00000  Uiso   1.00
C1526  C     0.49428   0.83327   0.88394   0.00000  Uiso   1.00
C1527  C     0.47799   0.83400   0.52395   0.00000  Uiso   1.00
C1528  C     0.48043   0.83118   0.97543   0.00000  Uiso   1.00
C1529  C     0.62398   0.83339   0.74988   0.00000  Uiso   1.00
C1530  C     0.37603   0.83339   0.74991   0.00000  Uiso   1.00
H1531  H     0.54284   0.70898   0.80482   0.00000  Uiso   1.00
H1532  H     0.45728   0.95770   0.69505   0.00000  Uiso   1.00
H1533  H     0.45729   0.70880   0.69503   0.00000  Uiso   1.00
H1534  H     0.54284   0.95786   0.80481   0.00000  Uiso   1.00
H1535  H     0.51140   0.90308   0.60809   0.00000  Uiso   1.00
H1536  H     0.53467   0.77532   0.89461   0.00000  Uiso   1.00
H1537  H     0.45048   0.88939   0.88245   0.00000  Uiso   1.00
H1538  H     0.46881   0.76496   0.61444   0.00000  Uiso   1.00
N1539  N     0.50000   0.95240   0.75000   0.00000  Uiso   1.00
N1540  N     0.50000   0.71427   0.75000   0.00000  Uiso   1.00
O1541  O     0.43892   0.87154   0.74999   0.00000  Uiso   1.00
O1542  O     0.56108   0.79513   0.75000   0.00000  Uiso   1.00
O1543  O     0.56108   0.87154   0.75000   0.00000  Uiso   1.00
O1544  O     0.43892   0.79513   0.74999   0.00000  Uiso   1.00
O1545  O     0.50000   0.87155   0.68453   0.00000  Uiso   1.00
O1546  O     0.50000   0.79511   0.81547   0.00000  Uiso   1.00
O1547  O     0.50000   0.87155   0.81547   0.00000  Uiso   1.00
O1548  O     0.50000   0.79511   0.68453   0.00000  Uiso   1.00
Zn1549 Zn    0.50000   0.88437   0.75000   0.00000  Uiso   1.00
Zn1550 Zn    0.50000   0.78229   0.75000   0.00000  Uiso   1.00
O1551  O     0.50341   0.91152   0.52029   0.00000  Uiso   1.00
C1552  C     0.54673   0.92260   0.52291   0.00000  Uiso   1.00
H1553  H     0.55939   0.92120   0.98828   0.00000  Uiso   1.00
H1554  H     0.56616   0.89881   0.54369   0.00000  Uiso   1.00
C1555  C     0.55178   0.97097   0.54094   0.00000  Uiso   1.00
H1556  H     0.53450   0.99494   0.51862   0.00000  Uiso   1.00
H1557  H     0.53811   0.97321   0.57511   0.00000  Uiso   1.00
C1558  C     0.59794   0.98506   0.54341   0.00000  Uiso   1.00
H1559  H     0.61599   0.96151   0.56543   0.00000  Uiso   1.00
H1560  H     0.60039   0.68650   0.55758   0.00000  Uiso   1.00
H1561  H     0.61188   0.98508   0.50933   0.00000  Uiso   1.00
O1562  O     0.52859   0.76701   0.98167   0.00000  Uiso   1.00
C1563  C     0.56747   0.78355   0.99848   0.00000  Uiso   1.00
H1564  H     0.57099   0.77097   0.53353   0.00000  Uiso   1.00
H1565  H     0.56946   0.82135   0.50035   0.00000  Uiso   1.00
C1566  C     0.60367   0.76497   0.97025   0.00000  Uiso   1.00
H1567  H     0.59887   0.72812   0.96407   0.00000  Uiso   1.00
H1568  H     0.60403   0.78263   0.93730   0.00000  Uiso   1.00
C1569  C     0.64610   0.77176   0.99372   0.00000  Uiso   1.00
H1570  H     0.65108   0.80806   0.50197   0.00000  Uiso   1.00
H1571  H     0.33839   0.76036   0.97124   0.00000  Uiso   1.00
H1572  H     0.64760   0.75161   0.52523   0.00000  Uiso   1.00
O1573  O     0.43113   0.89370   0.96732   0.00000  Uiso   1.00
C1574  C     0.38961   0.87662   0.96468   0.00000  Uiso   1.00
H1575  H     0.38249   0.85838   0.99642   0.00000  Uiso   1.00
H1576  H     0.38432   0.85280   0.93585   0.00000  Uiso   1.00
C1577  C     0.35928   0.91647   0.95900   0.00000  Uiso   1.00
H1578  H     0.36299   0.94028   0.98781   0.00000  Uiso   1.00
H1579  H     0.36708   0.93497   0.92761   0.00000  Uiso   1.00
C1580  C     0.64696   0.90064   0.95620   0.00000  Uiso   1.00
H1581  H     0.64298   0.87417   0.92985   0.00000  Uiso   1.00
H1582  H     0.62649   0.92985   0.94737   0.00000  Uiso   1.00
H1583  H     0.63693   0.88692   0.98915   0.00000  Uiso   1.00
O1584  O     0.45055   0.75786   0.52482   0.00000  Uiso   1.00
C1585  C     0.42183   0.73079   0.54913   0.00000  Uiso   1.00
H1586  H     0.39523   0.72256   0.52606   0.00000  Uiso   1.00
H1587  H     0.40732   0.74834   0.57835   0.00000  Uiso   1.00
C1588  C     0.44290   0.68605   0.56287   0.00000  Uiso   1.00
H1589  H     0.45276   0.66752   0.53214   0.00000  Uiso   1.00
H1590  H     0.47148   0.69286   0.58352   0.00000  Uiso   1.00
C1591  C     0.41314   0.98930   0.58959   0.00000  Uiso   1.00
H1592  H     0.40380   0.67324   0.62119   0.00000  Uiso   1.00
H1593  H     0.42926   0.95702   0.59838   0.00000  Uiso   1.00
H1594  H     0.38456   0.98130   0.56931   0.00000  Uiso   1.00
Cl1595 Cl    0.38368   0.80114   0.83717   0.00000  Uiso   1.00
Cl1596 Cl    0.61626   0.86622   0.66283   0.00000  Uiso   1.00
Cl1597 Cl    0.61774   0.80100   0.83704   0.00000  Uiso   1.00
Cl1598 Cl    0.38231   0.86624   0.66287   0.00000  Uiso   1.00
C1599  C     0.75345   0.83334   0.74993   0.00000  Uiso   1.00
C1600  C     0.91322   0.83334   0.74991   0.00000  Uiso   1.00
C1601  C     0.83204   0.83331   0.66368   0.00000  Uiso   1.00
C1602  C     0.83299   0.83335   0.83620   0.00000  Uiso   1.00
C1603  C     0.85714   0.69071   0.78048   0.00000  Uiso   1.00
C1604  C     0.80959   0.97595   0.71945   0.00000  Uiso   1.00
C1605  C     0.80959   0.69062   0.71945   0.00000  Uiso   1.00
C1606  C     0.85714   0.97605   0.78048   0.00000  Uiso   1.00
C1607  C     0.68869   0.81843   0.78852   0.00000  Uiso   1.00
C1608  C     0.97798   0.84854   0.71133   0.00000  Uiso   1.00
C1609  C     0.97862   0.81840   0.78849   0.00000  Uiso   1.00
C1610  C     0.68806   0.84854   0.71134   0.00000  Uiso   1.00
C1611  C     0.82771   0.87297   0.54515   0.00000  Uiso   1.00
C1612  C     0.84195   0.79990   0.95606   0.00000  Uiso   1.00
C1613  C     0.79180   0.86261   0.94867   0.00000  Uiso   1.00
C1614  C     0.79920   0.79546   0.54852   0.00000  Uiso   1.00
C1615  C     0.83305   0.87284   0.59144   0.00000  Uiso   1.00
C1616  C     0.84753   0.80020   0.90994   0.00000  Uiso   1.00
C1617  C     0.80001   0.86448   0.90306   0.00000  Uiso   1.00
C1618  C     0.80817   0.79497   0.59469   0.00000  Uiso   1.00
C1619  C     0.82516   0.83340   0.61572   0.00000  Uiso   1.00
C1620  C     0.82762   0.83327   0.88394   0.00000  Uiso   1.00
C1621  C     0.81133   0.83400   0.52395   0.00000  Uiso   1.00
C1622  C     0.81377   0.83118   0.97543   0.00000  Uiso   1.00
C1623  C     0.95731   0.83339   0.74988   0.00000  Uiso   1.00
C1624  C     0.70936   0.83339   0.74991   0.00000  Uiso   1.00
H1625  H     0.87617   0.70898   0.80482   0.00000  Uiso   1.00
H1626  H     0.79061   0.95770   0.69505   0.00000  Uiso   1.00
H1627  H     0.79062   0.70880   0.69503   0.00000  Uiso   1.00
H1628  H     0.87618   0.95786   0.80481   0.00000  Uiso   1.00
H1629  H     0.84474   0.90308   0.60809   0.00000  Uiso   1.00
H1630  H     0.86801   0.77532   0.89461   0.00000  Uiso   1.00
H1631  H     0.78381   0.88939   0.88245   0.00000  Uiso   1.00
H1632  H     0.80215   0.76496   0.61444   0.00000  Uiso   1.00
N1633  N     0.83333   0.95240   0.75000   0.00000  Uiso   1.00
N1634  N     0.83333   0.71427   0.75000   0.00000  Uiso   1.00
O1635  O     0.77226   0.87154   0.74999   0.00000  Uiso   1.00
O1636  O     0.89441   0.79513   0.75000   0.00000  Uiso   1.00
O1637  O     0.89441   0.87154   0.75000   0.00000  Uiso   1.00
O1638  O     0.77226   0.79513   0.74999   0.00000  Uiso   1.00
O1639  O     0.83333   0.87155   0.68453   0.00000  Uiso   1.00
O1640  O     0.83334   0.79511   0.81547   0.00000  Uiso   1.00
O1641  O     0.83334   0.87155   0.81547   0.00000  Uiso   1.00
O1642  O     0.83333   0.79511   0.68453   0.00000  Uiso   1.00
Zn1643 Zn    0.83333   0.88437   0.75000   0.00000  Uiso   1.00
Zn1644 Zn    0.83333   0.78229   0.75000   0.00000  Uiso   1.00
O1645  O     0.83674   0.91152   0.52029   0.00000  Uiso   1.00
C1646  C     0.88006   0.92260   0.52291   0.00000  Uiso   1.00
H1647  H     0.89272   0.92120   0.98828   0.00000  Uiso   1.00
H1648  H     0.89949   0.89881   0.54369   0.00000  Uiso   1.00
C1649  C     0.88511   0.97097   0.54094   0.00000  Uiso   1.00
H1650  H     0.86783   0.99494   0.51862   0.00000  Uiso   1.00
H1651  H     0.87144   0.97321   0.57511   0.00000  Uiso   1.00
C1652  C     0.93127   0.98506   0.54341   0.00000  Uiso   1.00
H1653  H     0.94932   0.96151   0.56543   0.00000  Uiso   1.00
H1654  H     0.93372   0.68650   0.55758   0.00000  Uiso   1.00
H1655  H     0.94522   0.98508   0.50933   0.00000  Uiso   1.00
O1656  O     0.86192   0.76701   0.98167   0.00000  Uiso   1.00
C1657  C     0.90081   0.78355   0.99848   0.00000  Uiso   1.00
H1658  H     0.90432   0.77097   0.53353   0.00000  Uiso   1.00
H1659  H     0.90279   0.82135   0.50035   0.00000  Uiso   1.00
C1660  C     0.93700   0.76497   0.97025   0.00000  Uiso   1.00
H1661  H     0.93220   0.72812   0.96407   0.00000  Uiso   1.00
H1662  H     0.93737   0.78263   0.93730   0.00000  Uiso   1.00
C1663  C     0.97943   0.77176   0.99372   0.00000  Uiso   1.00
H1664  H     0.98441   0.80806   0.50197   0.00000  Uiso   1.00
H1665  H     0.67172   0.76036   0.97124   0.00000  Uiso   1.00
H1666  H     0.98093   0.75161   0.52523   0.00000  Uiso   1.00
O1667  O     0.76446   0.89370   0.96732   0.00000  Uiso   1.00
C1668  C     0.72294   0.87662   0.96468   0.00000  Uiso   1.00
H1669  H     0.71582   0.85838   0.99642   0.00000  Uiso   1.00
H1670  H     0.71766   0.85280   0.93585   0.00000  Uiso   1.00
C1671  C     0.69261   0.91647   0.95900   0.00000  Uiso   1.00
H1672  H     0.69632   0.94028   0.98781   0.00000  Uiso   1.00
H1673  H     0.70041   0.93497   0.92761   0.00000  Uiso   1.00
C1674  C     0.98030   0.90064   0.95620   0.00000  Uiso   1.00
H1675  H     0.97631   0.87417   0.92985   0.00000  Uiso   1.00
H1676  H     0.95983   0.92985   0.94737   0.00000  Uiso   1.00
H1677  H     0.97026   0.88692   0.98915   0.00000  Uiso   1.00
O1678  O     0.78388   0.75786   0.52482   0.00000  Uiso   1.00
C1679  C     0.75516   0.73079   0.54913   0.00000  Uiso   1.00
H1680  H     0.72856   0.72256   0.52606   0.00000  Uiso   1.00
H1681  H     0.74066   0.74834   0.57835   0.00000  Uiso   1.00
C1682  C     0.77623   0.68605   0.56287   0.00000  Uiso   1.00
H1683  H     0.78610   0.66752   0.53214   0.00000  Uiso   1.00
H1684  H     0.80481   0.69286   0.58352   0.00000  Uiso   1.00
C1685  C     0.74648   0.98930   0.58959   0.00000  Uiso   1.00
H1686  H     0.73713   0.67324   0.62119   0.00000  Uiso   1.00
H1687  H     0.76259   0.95702   0.59838   0.00000  Uiso   1.00
H1688  H     0.71790   0.98130   0.56931   0.00000  Uiso   1.00
Cl1689 Cl    0.71701   0.80114   0.83717   0.00000  Uiso   1.00
Cl1690 Cl    0.94959   0.86622   0.66283   0.00000  Uiso   1.00
Cl1691 Cl    0.95108   0.80100   0.83704   0.00000  Uiso   1.00
Cl1692 Cl    0.71564   0.86624   0.66287   0.00000  Uiso   1.00
loop_
_geom_bond_atom_site_label_1
_geom_bond_atom_site_label_2
_geom_bond_distance
_geom_bond_site_symmetry_2
_ccdc_geom_bond_type
C1     O40     1.275   .     A
C1     O37     1.275   .     A
C1     C26     1.402   .     S
C2     O39     1.275   .     A
C2     O38     1.275   .     A
C2     C25     1.402   .     S
C3     O41     1.286   .     A
C3     O44     1.286   .     A
C3     C21     1.441   .     S
C4     C22     1.431   .     S
C4     O43     1.285   .     A
C4     O42     1.284   .     A
C5     N36     1.366   .     A
C5     H27     1.082   .     S
C5     C572    1.415   1_545 S
C6     H28     1.082   .     S
C6     N35     1.366   .     A
C6     C289    1.415   .     S
C7     H29     1.082   .     S
C7     N36     1.366   .     A
C7     C570    1.415   1_545 S
C8     N35     1.366   .     A
C8     H30     1.082   .     S
C8     C287    1.415   .     S
C9     Cl91    1.772   .     S
C9     C26     1.400   .     A
C9     C199    1.380   1_455 S
C10    Cl92    1.773   .     S
C10    C25     1.400   .     A
C10    C106    1.380   .     S
C11    C25     1.400   .     A
C11    Cl93    1.772   .     S
C11    C103    1.380   .     S
C12    Cl94    1.773   .     S
C12    C26     1.400   .     A
C12    C198    1.380   1_455 S
C13    C23     1.407   .     A
C13    O47     1.388   .     S
C13    C17     1.385   .     A
C14    C18     1.384   .     A
C14    C24     1.412   .     A
C14    O58     1.384   .     S
C15    O69     1.382   .     S
C15    C19     1.385   .     A
C15    C24     1.404   .     A
C16    C20     1.400   .     A
C16    C23     1.407   .     A
C16    O80     1.398   .     S
C17    C21     1.393   .     A
C17    H31     1.083   .     S
C18    H32     1.084   .     S
C18    C22     1.393   .     A
C19    C22     1.396   .     A
C19    H33     1.084   .     S
C20    H34     1.081   .     S
C20    C21     1.399   .     A
C23    C870    1.448   1_554 S
C24    C869    1.448   .     S
N35    Zn45    2.005   .     S
N36    Zn46    2.005   .     S
O37    Zn45    1.978   .     S
O38    Zn46    1.978   .     S
O39    Zn45    1.978   .     S
O40    Zn46    1.978   .     S
O41    Zn45    1.983   .     S
O42    Zn46    1.983   .     S
O43    Zn45    1.984   .     S
O44    Zn46    1.984   .     S
O47    C48     1.417   .     S
C48    C51     1.530   .     S
C48    H50     1.118   .     S
C48    H895    1.110   1_554 S
H49    C894    1.110   .     S
C51    H52     1.112   .     S
C51    H53     1.111   .     S
C51    C54     1.526   .     S
C54    H55     1.111   .     S
C54    H57     1.110   .     S
C54    H338    1.110   .     S
H56    C618    1.110   1_545 S
O58    C59     1.416   .     S
C59    C62     1.532   .     S
C59    H906    1.111   .     S
C59    H907    1.117   .     S
H60    C905    1.111   1_554 S
H61    C905    1.117   1_554 S
C62    H64     1.110   .     S
C62    H63     1.112   .     S
C62    C65     1.526   .     S
C65    H912    1.108   .     S
C65    H161    1.110   .     S
C65    H914    1.111   .     S
H66    C911    1.108   1_554 S
H67    C253    1.110   1_455 S
H68    C911    1.111   1_554 S
O69    C70     1.414   .     S
C70    H71     1.112   .     S
C70    C73     1.528   .     S
C70    H72     1.119   .     S
C73    H75     1.112   .     S
C73    H74     1.112   .     S
C73    C264    1.526   1_455 S
C76    H78     1.110   .     S
C76    H79     1.110   .     S
C76    H77     1.111   .     S
C76    C167    1.526   .     S
O80    C81     1.416   .     S
C81    H82     1.111   .     S
C81    H83     1.114   .     S
C81    C84     1.533   .     S
C84    H85     1.112   .     S
C84    H86     1.110   .     S
C84    C651    1.526   1_545 S
C87    H89     1.111   .     S
C87    H90     1.111   .     S
C87    C366    1.526   .     S
C87    H370    1.111   .     S
H88    C651    1.111   1_545 S
C95    O134    1.275   .     A
C95    O131    1.275   .     A
C95    C120    1.402   .     S
C96    O133    1.275   .     A
C96    O132    1.275   .     A
C96    C119    1.402   .     S
C97    O135    1.286   .     A
C97    O138    1.286   .     A
C97    C115    1.441   .     S
C98    C116    1.431   .     S
C98    O137    1.285   .     A
C98    O136    1.284   .     A
C99    N130    1.366   .     A
C99    H121    1.082   .     S
C99    C666    1.415   1_545 S
C100   H122    1.082   .     S
C100   N129    1.366   .     A
C100   C383    1.415   .     S
C101   H123    1.082   .     S
C101   N130    1.366   .     A
C101   C664    1.415   1_545 S
C102   N129    1.366   .     A
C102   H124    1.082   .     S
C102   C381    1.415   .     S
C103   Cl185   1.772   .     S
C103   C120    1.400   .     A
C104   Cl186   1.773   .     S
C104   C119    1.400   .     A
C104   C200    1.380   .     S
C105   C119    1.400   .     A
C105   Cl187   1.772   .     S
C105   C197    1.380   .     S
C106   Cl188   1.773   .     S
C106   C120    1.400   .     A
C107   C117    1.407   .     A
C107   O141    1.388   .     S
C107   C111    1.385   .     A
C108   C112    1.384   .     A
C108   C118    1.412   .     A
C108   O152    1.384   .     S
C109   O163    1.382   .     S
C109   C113    1.385   .     A
C109   C118    1.404   .     A
C110   C114    1.400   .     A
C110   C117    1.407   .     A
C110   O174    1.398   .     S
C111   C115    1.393   .     A
C111   H125    1.083   .     S
C112   H126    1.084   .     S
C112   C116    1.393   .     A
C113   C116    1.396   .     A
C113   H127    1.084   .     S
C114   H128    1.081   .     S
C114   C115    1.399   .     A
C117   C964    1.448   1_554 S
C118   C963    1.448   .     S
N129   Zn139   2.005   .     S
N130   Zn140   2.005   .     S
O131   Zn139   1.978   .     S
O132   Zn140   1.978   .     S
O133   Zn139   1.978   .     S
O134   Zn140   1.978   .     S
O135   Zn139   1.983   .     S
O136   Zn140   1.983   .     S
O137   Zn139   1.984   .     S
O138   Zn140   1.984   .     S
O141   C142    1.417   .     S
C142   C145    1.530   .     S
C142   H144    1.118   .     S
C142   H989    1.110   1_554 S
H143   C988    1.110   .     S
C145   H146    1.112   .     S
C145   H147    1.111   .     S
C145   C148    1.526   .     S
C148   H149    1.111   .     S
C148   H151    1.110   .     S
C148   H432    1.110   .     S
H150   C712    1.110   1_545 S
O152   C153    1.416   .     S
C153   C156    1.532   .     S
C153   H1000   1.111   .     S
C153   H1001   1.117   .     S
H154   C999    1.111   1_554 S
H155   C999    1.117   1_554 S
C156   H158    1.110   .     S
C156   H157    1.112   .     S
C156   C159    1.526   .     S
C159   H1006   1.108   .     S
C159   H255    1.110   .     S
C159   H1008   1.111   .     S
H160   C1005   1.108   1_554 S
H162   C1005   1.111   1_554 S
O163   C164    1.414   .     S
C164   H165    1.112   .     S
C164   C167    1.528   .     S
C164   H166    1.119   .     S
C167   H169    1.112   .     S
C167   H168    1.112   .     S
C170   H172    1.110   .     S
C170   H173    1.110   .     S
C170   H171    1.111   .     S
C170   C261    1.526   .     S
O174   C175    1.416   .     S
C175   H176    1.111   .     S
C175   H177    1.114   .     S
C175   C178    1.533   .     S
C178   H179    1.112   .     S
C178   H180    1.110   .     S
C178   C745    1.526   1_545 S
C181   H183    1.111   .     S
C181   H184    1.111   .     S
C181   C460    1.526   .     S
C181   H464    1.111   .     S
H182   C745    1.111   1_545 S
C189   O228    1.275   .     A
C189   O225    1.275   .     A
C189   C214    1.402   .     S
C190   O227    1.275   .     A
C190   O226    1.275   .     A
C190   C213    1.402   .     S
C191   O229    1.286   .     A
C191   O232    1.286   .     A
C191   C209    1.441   .     S
C192   C210    1.431   .     S
C192   O231    1.285   .     A
C192   O230    1.284   .     A
C193   N224    1.366   .     A
C193   H215    1.082   .     S
C193   C760    1.415   1_545 S
C194   H216    1.082   .     S
C194   N223    1.366   .     A
C194   C477    1.415   .     S
C195   H217    1.082   .     S
C195   N224    1.366   .     A
C195   C758    1.415   1_545 S
C196   N223    1.366   .     A
C196   H218    1.082   .     S
C196   C475    1.415   .     S
C197   Cl279   1.772   .     S
C197   C214    1.400   .     A
C198   Cl280   1.773   .     S
C198   C213    1.400   .     A
C198   C12     1.380   1_655 S
C199   C213    1.400   .     A
C199   Cl281   1.772   .     S
C199   C9      1.380   1_655 S
C200   Cl282   1.773   .     S
C200   C214    1.400   .     A
C201   C211    1.407   .     A
C201   O235    1.388   .     S
C201   C205    1.385   .     A
C202   C206    1.384   .     A
C202   C212    1.412   .     A
C202   O246    1.384   .     S
C203   O257    1.382   .     S
C203   C207    1.385   .     A
C203   C212    1.404   .     A
C204   C208    1.400   .     A
C204   C211    1.407   .     A
C204   O268    1.398   .     S
C205   C209    1.393   .     A
C205   H219    1.083   .     S
C206   H220    1.084   .     S
C206   C210    1.393   .     A
C207   C210    1.396   .     A
C207   H221    1.084   .     S
C208   H222    1.081   .     S
C208   C209    1.399   .     A
C211   C1058   1.448   1_554 S
C212   C1057   1.448   .     S
N223   Zn233   2.005   .     S
N224   Zn234   2.005   .     S
O225   Zn233   1.978   .     S
O226   Zn234   1.978   .     S
O227   Zn233   1.978   .     S
O228   Zn234   1.978   .     S
O229   Zn233   1.983   .     S
O230   Zn234   1.983   .     S
O231   Zn233   1.984   .     S
O232   Zn234   1.984   .     S
O235   C236    1.417   .     S
C236   C239    1.530   .     S
C236   H238    1.118   .     S
C236   H1083   1.110   1_554 S
H237   C1082   1.110   .     S
C239   H240    1.112   .     S
C239   H241    1.111   .     S
C239   C242    1.526   .     S
C242   H243    1.111   .     S
C242   H245    1.110   .     S
C242   H526    1.110   .     S
H244   C806    1.110   1_545 S
O246   C247    1.416   .     S
C247   C250    1.532   .     S
C247   H1094   1.111   .     S
C247   H1095   1.117   .     S
H248   C1093   1.111   1_554 S
H249   C1093   1.117   1_554 S
C250   H252    1.110   .     S
C250   H251    1.112   .     S
C250   C253    1.526   .     S
C253   H1100   1.108   .     S
C253   H67     1.110   1_655 S
C253   H1102   1.111   .     S
H254   C1099   1.108   1_554 S
H256   C1099   1.111   1_554 S
O257   C258    1.414   .     S
C258   H259    1.112   .     S
C258   C261    1.528   .     S
C258   H260    1.119   .     S
C261   H263    1.112   .     S
C261   H262    1.112   .     S
C264   H266    1.110   .     S
C264   H267    1.110   .     S
C264   H265    1.111   .     S
C264   C73     1.526   1_655 S
O268   C269    1.416   .     S
C269   H270    1.111   .     S
C269   H271    1.114   .     S
C269   C272    1.533   .     S
C272   H273    1.112   .     S
C272   H274    1.110   .     S
C272   C839    1.526   1_545 S
C275   H277    1.111   .     S
C275   H278    1.111   .     S
C275   C554    1.526   .     S
C275   H558    1.111   .     S
H276   C839    1.111   1_545 S
C283   O322    1.275   .     A
C283   O319    1.275   .     A
C283   C308    1.402   .     S
C284   O321    1.275   .     A
C284   O320    1.275   .     A
C284   C307    1.402   .     S
C285   O323    1.286   .     A
C285   O326    1.286   .     A
C285   C303    1.441   .     S
C286   C304    1.431   .     S
C286   O325    1.285   .     A
C286   O324    1.284   .     A
C287   N318    1.366   .     A
C287   H309    1.082   .     S
C288   H310    1.082   .     S
C288   N317    1.366   .     A
C288   C571    1.415   .     S
C289   H311    1.082   .     S
C289   N318    1.366   .     A
C290   N317    1.366   .     A
C290   H312    1.082   .     S
C290   C569    1.415   .     S
C291   Cl373   1.772   .     S
C291   C308    1.400   .     A
C291   C481    1.380   1_455 S
C292   Cl374   1.773   .     S
C292   C307    1.400   .     A
C292   C388    1.380   .     S
C293   C307    1.400   .     A
C293   Cl375   1.772   .     S
C293   C385    1.380   .     S
C294   Cl376   1.773   .     S
C294   C308    1.400   .     A
C294   C480    1.380   1_455 S
C295   C305    1.407   .     A
C295   O329    1.388   .     S
C295   C299    1.385   .     A
C296   C300    1.384   .     A
C296   C306    1.412   .     A
C296   O340    1.384   .     S
C297   O351    1.382   .     S
C297   C301    1.385   .     A
C297   C306    1.404   .     A
C298   C302    1.400   .     A
C298   C305    1.407   .     A
C298   O362    1.398   .     S
C299   C303    1.393   .     A
C299   H313    1.083   .     S
C300   H314    1.084   .     S
C300   C304    1.393   .     A
C301   C304    1.396   .     A
C301   H315    1.084   .     S
C302   H316    1.081   .     S
C302   C303    1.399   .     A
C305   C1152   1.448   1_554 S
C306   C1151   1.448   .     S
N317   Zn327   2.005   .     S
N318   Zn328   2.005   .     S
O319   Zn327   1.978   .     S
O320   Zn328   1.978   .     S
O321   Zn327   1.978   .     S
O322   Zn328   1.978   .     S
O323   Zn327   1.983   .     S
O324   Zn328   1.983   .     S
O325   Zn327   1.984   .     S
O326   Zn328   1.984   .     S
O329   C330    1.417   .     S
C330   C333    1.530   .     S
C330   H332    1.118   .     S
C330   H1177   1.110   1_554 S
H331   C1176   1.110   .     S
C333   H334    1.112   .     S
C333   H335    1.111   .     S
C333   C336    1.526   .     S
C336   H337    1.111   .     S
C336   H339    1.110   .     S
C336   H620    1.110   .     S
O340   C341    1.416   .     S
C341   C344    1.532   .     S
C341   H1188   1.111   .     S
C341   H1189   1.117   .     S
H342   C1187   1.111   1_554 S
H343   C1187   1.117   1_554 S
C344   H346    1.110   .     S
C344   H345    1.112   .     S
C344   C347    1.526   .     S
C347   H1194   1.108   .     S
C347   H443    1.110   .     S
C347   H1196   1.111   .     S
H348   C1193   1.108   1_554 S
H349   C535    1.110   1_455 S
H350   C1193   1.111   1_554 S
O351   C352    1.414   .     S
C352   H353    1.112   .     S
C352   C355    1.528   .     S
C352   H354    1.119   .     S
C355   H357    1.112   .     S
C355   H356    1.112   .     S
C355   C546    1.526   1_455 S
C358   H360    1.110   .     S
C358   H361    1.110   .     S
C358   H359    1.111   .     S
C358   C449    1.526   .     S
O362   C363    1.416   .     S
C363   H364    1.111   .     S
C363   H365    1.114   .     S
C363   C366    1.533   .     S
C366   H367    1.112   .     S
C366   H368    1.110   .     S
C369   H371    1.111   .     S
C369   H372    1.111   .     S
C369   C648    1.526   .     S
C369   H652    1.111   .     S
C377   O416    1.275   .     A
C377   O413    1.275   .     A
C377   C402    1.402   .     S
C378   O415    1.275   .     A
C378   O414    1.275   .     A
C378   C401    1.402   .     S
C379   O417    1.286   .     A
C379   O420    1.286   .     A
C379   C397    1.441   .     S
C380   C398    1.431   .     S
C380   O419    1.285   .     A
C380   O418    1.284   .     A
C381   N412    1.366   .     A
C381   H403    1.082   .     S
C382   H404    1.082   .     S
C382   N411    1.366   .     A
C382   C665    1.415   .     S
C383   H405    1.082   .     S
C383   N412    1.366   .     A
C384   N411    1.366   .     A
C384   H406    1.082   .     S
C384   C663    1.415   .     S
C385   Cl467   1.772   .     S
C385   C402    1.400   .     A
C386   Cl468   1.773   .     S
C386   C401    1.400   .     A
C386   C482    1.380   .     S
C387   C401    1.400   .     A
C387   Cl469   1.772   .     S
C387   C479    1.380   .     S
C388   Cl470   1.773   .     S
C388   C402    1.400   .     A
C389   C399    1.407   .     A
C389   O423    1.388   .     S
C389   C393    1.385   .     A
C390   C394    1.384   .     A
C390   C400    1.412   .     A
C390   O434    1.384   .     S
C391   O445    1.382   .     S
C391   C395    1.385   .     A
C391   C400    1.404   .     A
C392   C396    1.400   .     A
C392   C399    1.407   .     A
C392   O456    1.398   .     S
C393   C397    1.393   .     A
C393   H407    1.083   .     S
C394   H408    1.084   .     S
C394   C398    1.393   .     A
C395   C398    1.396   .     A
C395   H409    1.084   .     S
C396   H410    1.081   .     S
C396   C397    1.399   .     A
C399   C1246   1.448   1_554 S
C400   C1245   1.448   .     S
N411   Zn421   2.005   .     S
N412   Zn422   2.005   .     S
O413   Zn421   1.978   .     S
O414   Zn422   1.978   .     S
O415   Zn421   1.978   .     S
O416   Zn422   1.978   .     S
O417   Zn421   1.983   .     S
O418   Zn422   1.983   .     S
O419   Zn421   1.984   .     S
O420   Zn422   1.984   .     S
O423   C424    1.417   .     S
C424   C427    1.530   .     S
C424   H426    1.118   .     S
C424   H1271   1.110   1_554 S
H425   C1270   1.110   .     S
C427   H428    1.112   .     S
C427   H429    1.111   .     S
C427   C430    1.526   .     S
C430   H431    1.111   .     S
C430   H433    1.110   .     S
C430   H714    1.110   .     S
O434   C435    1.416   .     S
C435   C438    1.532   .     S
C435   H1282   1.111   .     S
C435   H1283   1.117   .     S
H436   C1281   1.111   1_554 S
H437   C1281   1.117   1_554 S
C438   H440    1.110   .     S
C438   H439    1.112   .     S
C438   C441    1.526   .     S
C441   H1288   1.108   .     S
C441   H537    1.110   .     S
C441   H1290   1.111   .     S
H442   C1287   1.108   1_554 S
H444   C1287   1.111   1_554 S
O445   C446    1.414   .     S
C446   H447    1.112   .     S
C446   C449    1.528   .     S
C446   H448    1.119   .     S
C449   H451    1.112   .     S
C449   H450    1.112   .     S
C452   H454    1.110   .     S
C452   H455    1.110   .     S
C452   H453    1.111   .     S
C452   C543    1.526   .     S
O456   C457    1.416   .     S
C457   H458    1.111   .     S
C457   H459    1.114   .     S
C457   C460    1.533   .     S
C460   H461    1.112   .     S
C460   H462    1.110   .     S
C463   H465    1.111   .     S
C463   H466    1.111   .     S
C463   C742    1.526   .     S
C463   H746    1.111   .     S
C471   O510    1.275   .     A
C471   O507    1.275   .     A
C471   C496    1.402   .     S
C472   O509    1.275   .     A
C472   O508    1.275   .     A
C472   C495    1.402   .     S
C473   O511    1.286   .     A
C473   O514    1.286   .     A
C473   C491    1.441   .     S
C474   C492    1.431   .     S
C474   O513    1.285   .     A
C474   O512    1.284   .     A
C475   N506    1.366   .     A
C475   H497    1.082   .     S
C476   H498    1.082   .     S
C476   N505    1.366   .     A
C476   C759    1.415   .     S
C477   H499    1.082   .     S
C477   N506    1.366   .     A
C478   N505    1.366   .     A
C478   H500    1.082   .     S
C478   C757    1.415   .     S
C479   Cl561   1.772   .     S
C479   C496    1.400   .     A
C480   Cl562   1.773   .     S
C480   C495    1.400   .     A
C480   C294    1.380   1_655 S
C481   C495    1.400   .     A
C481   Cl563   1.772   .     S
C481   C291    1.380   1_655 S
C482   Cl564   1.773   .     S
C482   C496    1.400   .     A
C483   C493    1.407   .     A
C483   O517    1.388   .     S
C483   C487    1.385   .     A
C484   C488    1.384   .     A
C484   C494    1.412   .     A
C484   O528    1.384   .     S
C485   O539    1.382   .     S
C485   C489    1.385   .     A
C485   C494    1.404   .     A
C486   C490    1.400   .     A
C486   C493    1.407   .     A
C486   O550    1.398   .     S
C487   C491    1.393   .     A
C487   H501    1.083   .     S
C488   H502    1.084   .     S
C488   C492    1.393   .     A
C489   C492    1.396   .     A
C489   H503    1.084   .     S
C490   H504    1.081   .     S
C490   C491    1.399   .     A
C493   C1340   1.448   1_554 S
C494   C1339   1.448   .     S
N505   Zn515   2.005   .     S
N506   Zn516   2.005   .     S
O507   Zn515   1.978   .     S
O508   Zn516   1.978   .     S
O509   Zn515   1.978   .     S
O510   Zn516   1.978   .     S
O511   Zn515   1.983   .     S
O512   Zn516   1.983   .     S
O513   Zn515   1.984   .     S
O514   Zn516   1.984   .     S
O517   C518    1.417   .     S
C518   C521    1.530   .     S
C518   H520    1.118   .     S
C518   H1365   1.110   1_554 S
H519   C1364   1.110   .     S
C521   H522    1.112   .     S
C521   H523    1.111   .     S
C521   C524    1.526   .     S
C524   H525    1.111   .     S
C524   H527    1.110   .     S
C524   H808    1.110   .     S
O528   C529    1.416   .     S
C529   C532    1.532   .     S
C529   H1376   1.111   .     S
C529   H1377   1.117   .     S
H530   C1375   1.111   1_554 S
H531   C1375   1.117   1_554 S
C532   H534    1.110   .     S
C532   H533    1.112   .     S
C532   C535    1.526   .     S
C535   H1382   1.108   .     S
C535   H349    1.110   1_655 S
C535   H1384   1.111   .     S
H536   C1381   1.108   1_554 S
H538   C1381   1.111   1_554 S
O539   C540    1.414   .     S
C540   H541    1.112   .     S
C540   C543    1.528   .     S
C540   H542    1.119   .     S
C543   H545    1.112   .     S
C543   H544    1.112   .     S
C546   H548    1.110   .     S
C546   H549    1.110   .     S
C546   H547    1.111   .     S
C546   C355    1.526   1_655 S
O550   C551    1.416   .     S
C551   H552    1.111   .     S
C551   H553    1.114   .     S
C551   C554    1.533   .     S
C554   H555    1.112   .     S
C554   H556    1.110   .     S
C557   H559    1.111   .     S
C557   H560    1.111   .     S
C557   C836    1.526   .     S
C557   H840    1.111   .     S
C565   O604    1.275   .     A
C565   O601    1.275   .     A
C565   C590    1.402   .     S
C566   O603    1.275   .     A
C566   O602    1.275   .     A
C566   C589    1.402   .     S
C567   O605    1.286   .     A
C567   O608    1.286   .     A
C567   C585    1.441   .     S
C568   C586    1.431   .     S
C568   O607    1.285   .     A
C568   O606    1.284   .     A
C569   N600    1.366   .     A
C569   H591    1.082   .     S
C570   H592    1.082   .     S
C570   N599    1.366   .     A
C570   C7      1.415   1_565 S
C571   H593    1.082   .     S
C571   N600    1.366   .     A
C572   N599    1.366   .     A
C572   H594    1.082   .     S
C572   C5      1.415   1_565 S
C573   Cl655   1.772   .     S
C573   C590    1.400   .     A
C573   C763    1.380   1_455 S
C574   Cl656   1.773   .     S
C574   C589    1.400   .     A
C574   C670    1.380   .     S
C575   C589    1.400   .     A
C575   Cl657   1.772   .     S
C575   C667    1.380   .     S
C576   Cl658   1.773   .     S
C576   C590    1.400   .     A
C576   C762    1.380   1_455 S
C577   C587    1.407   .     A
C577   O611    1.388   .     S
C577   C581    1.385   .     A
C578   C582    1.384   .     A
C578   C588    1.412   .     A
C578   O622    1.384   .     S
C579   O633    1.382   .     S
C579   C583    1.385   .     A
C579   C588    1.404   .     A
C580   C584    1.400   .     A
C580   C587    1.407   .     A
C580   O644    1.398   .     S
C581   C585    1.393   .     A
C581   H595    1.083   .     S
C582   H596    1.084   .     S
C582   C586    1.393   .     A
C583   C586    1.396   .     A
C583   H597    1.084   .     S
C584   H598    1.081   .     S
C584   C585    1.399   .     A
C587   C1434   1.448   1_554 S
C588   C1433   1.448   .     S
N599   Zn609   2.005   .     S
N600   Zn610   2.005   .     S
O601   Zn609   1.978   .     S
O602   Zn610   1.978   .     S
O603   Zn609   1.978   .     S
O604   Zn610   1.978   .     S
O605   Zn609   1.983   .     S
O606   Zn610   1.983   .     S
O607   Zn609   1.984   .     S
O608   Zn610   1.984   .     S
O611   C612    1.417   .     S
C612   C615    1.530   .     S
C612   H614    1.118   .     S
C612   H1459   1.110   1_554 S
H613   C1458   1.110   .     S
C615   H616    1.112   .     S
C615   H617    1.111   .     S
C615   C618    1.526   .     S
C618   H619    1.111   .     S
C618   H621    1.110   .     S
C618   H56     1.110   1_565 S
O622   C623    1.416   .     S
C623   C626    1.532   .     S
C623   H1470   1.111   .     S
C623   H1471   1.117   .     S
H624   C1469   1.111   1_554 S
H625   C1469   1.117   1_554 S
C626   H628    1.110   .     S
C626   H627    1.112   .     S
C626   C629    1.526   .     S
C629   H1476   1.108   .     S
C629   H725    1.110   .     S
C629   H1478   1.111   .     S
H630   C1475   1.108   1_554 S
H631   C817    1.110   1_455 S
H632   C1475   1.111   1_554 S
O633   C634    1.414   .     S
C634   H635    1.112   .     S
C634   C637    1.528   .     S
C634   H636    1.119   .     S
C637   H639    1.112   .     S
C637   H638    1.112   .     S
C637   C828    1.526   1_455 S
C640   H642    1.110   .     S
C640   H643    1.110   .     S
C640   H641    1.111   .     S
C640   C731    1.526   .     S
O644   C645    1.416   .     S
C645   H646    1.111   .     S
C645   H647    1.114   .     S
C645   C648    1.533   .     S
C648   H649    1.112   .     S
C648   H650    1.110   .     S
C651   H653    1.111   .     S
C651   H654    1.111   .     S
C651   C84     1.526   1_565 S
C651   H88     1.111   1_565 S
C659   O698    1.275   .     A
C659   O695    1.275   .     A
C659   C684    1.402   .     S
C660   O697    1.275   .     A
C660   O696    1.275   .     A
C660   C683    1.402   .     S
C661   O699    1.286   .     A
C661   O702    1.286   .     A
C661   C679    1.441   .     S
C662   C680    1.431   .     S
C662   O701    1.285   .     A
C662   O700    1.284   .     A
C663   N694    1.366   .     A
C663   H685    1.082   .     S
C664   H686    1.082   .     S
C664   N693    1.366   .     A
C664   C101    1.415   1_565 S
C665   H687    1.082   .     S
C665   N694    1.366   .     A
C666   N693    1.366   .     A
C666   H688    1.082   .     S
C666   C99     1.415   1_565 S
C667   Cl749   1.772   .     S
C667   C684    1.400   .     A
C668   Cl750   1.773   .     S
C668   C683    1.400   .     A
C668   C764    1.380   .     S
C669   C683    1.400   .     A
C669   Cl751   1.772   .     S
C669   C761    1.380   .     S
C670   Cl752   1.773   .     S
C670   C684    1.400   .     A
C671   C681    1.407   .     A
C671   O705    1.388   .     S
C671   C675    1.385   .     A
C672   C676    1.384   .     A
C672   C682    1.412   .     A
C672   O716    1.384   .     S
C673   O727    1.382   .     S
C673   C677    1.385   .     A
C673   C682    1.404   .     A
C674   C678    1.400   .     A
C674   C681    1.407   .     A
C674   O738    1.398   .     S
C675   C679    1.393   .     A
C675   H689    1.083   .     S
C676   H690    1.084   .     S
C676   C680    1.393   .     A
C677   C680    1.396   .     A
C677   H691    1.084   .     S
C678   H692    1.081   .     S
C678   C679    1.399   .     A
C681   C1528   1.448   1_554 S
C682   C1527   1.448   .     S
N693   Zn703   2.005   .     S
N694   Zn704   2.005   .     S
O695   Zn703   1.978   .     S
O696   Zn704   1.978   .     S
O697   Zn703   1.978   .     S
O698   Zn704   1.978   .     S
O699   Zn703   1.983   .     S
O700   Zn704   1.983   .     S
O701   Zn703   1.984   .     S
O702   Zn704   1.984   .     S
O705   C706    1.417   .     S
C706   C709    1.530   .     S
C706   H708    1.118   .     S
C706   H1553   1.110   1_554 S
H707   C1552   1.110   .     S
C709   H710    1.112   .     S
C709   H711    1.111   .     S
C709   C712    1.526   .     S
C712   H713    1.111   .     S
C712   H715    1.110   .     S
C712   H150    1.110   1_565 S
O716   C717    1.416   .     S
C717   C720    1.532   .     S
C717   H1564   1.111   .     S
C717   H1565   1.117   .     S
H718   C1563   1.111   1_554 S
H719   C1563   1.117   1_554 S
C720   H722    1.110   .     S
C720   H721    1.112   .     S
C720   C723    1.526   .     S
C723   H1570   1.108   .     S
C723   H819    1.110   .     S
C723   H1572   1.111   .     S
H724   C1569   1.108   1_554 S
H726   C1569   1.111   1_554 S
O727   C728    1.414   .     S
C728   H729    1.112   .     S
C728   C731    1.528   .     S
C728   H730    1.119   .     S
C731   H733    1.112   .     S
C731   H732    1.112   .     S
C734   H736    1.110   .     S
C734   H737    1.110   .     S
C734   H735    1.111   .     S
C734   C825    1.526   .     S
O738   C739    1.416   .     S
C739   H740    1.111   .     S
C739   H741    1.114   .     S
C739   C742    1.533   .     S
C742   H743    1.112   .     S
C742   H744    1.110   .     S
C745   H747    1.111   .     S
C745   H748    1.111   .     S
C745   C178    1.526   1_565 S
C745   H182    1.111   1_565 S
C753   O792    1.275   .     A
C753   O789    1.275   .     A
C753   C778    1.402   .     S
C754   O791    1.275   .     A
C754   O790    1.275   .     A
C754   C777    1.402   .     S
C755   O793    1.286   .     A
C755   O796    1.286   .     A
C755   C773    1.441   .     S
C756   C774    1.431   .     S
C756   O795    1.285   .     A
C756   O794    1.284   .     A
C757   N788    1.366   .     A
C757   H779    1.082   .     S
C758   H780    1.082   .     S
C758   N787    1.366   .     A
C758   C195    1.415   1_565 S
C759   H781    1.082   .     S
C759   N788    1.366   .     A
C760   N787    1.366   .     A
C760   H782    1.082   .     S
C760   C193    1.415   1_565 S
C761   Cl843   1.772   .     S
C761   C778    1.400   .     A
C762   Cl844   1.773   .     S
C762   C777    1.400   .     A
C762   C576    1.380   1_655 S
C763   C777    1.400   .     A
C763   Cl845   1.772   .     S
C763   C573    1.380   1_655 S
C764   Cl846   1.773   .     S
C764   C778    1.400   .     A
C765   C775    1.407   .     A
C765   O799    1.388   .     S
C765   C769    1.385   .     A
C766   C770    1.384   .     A
C766   C776    1.412   .     A
C766   O810    1.384   .     S
C767   O821    1.382   .     S
C767   C771    1.385   .     A
C767   C776    1.404   .     A
C768   C772    1.400   .     A
C768   C775    1.407   .     A
C768   O832    1.398   .     S
C769   C773    1.393   .     A
C769   H783    1.083   .     S
C770   H784    1.084   .     S
C770   C774    1.393   .     A
C771   C774    1.396   .     A
C771   H785    1.084   .     S
C772   H786    1.081   .     S
C772   C773    1.399   .     A
C775   C1622   1.448   1_554 S
C776   C1621   1.448   .     S
N787   Zn797   2.005   .     S
N788   Zn798   2.005   .     S
O789   Zn797   1.978   .     S
O790   Zn798   1.978   .     S
O791   Zn797   1.978   .     S
O792   Zn798   1.978   .     S
O793   Zn797   1.983   .     S
O794   Zn798   1.983   .     S
O795   Zn797   1.984   .     S
O796   Zn798   1.984   .     S
O799   C800    1.417   .     S
C800   C803    1.530   .     S
C800   H802    1.118   .     S
C800   H1647   1.110   1_554 S
H801   C1646   1.110   .     S
C803   H804    1.112   .     S
C803   H805    1.111   .     S
C803   C806    1.526   .     S
C806   H807    1.111   .     S
C806   H809    1.110   .     S
C806   H244    1.110   1_565 S
O810   C811    1.416   .     S
C811   C814    1.532   .     S
C811   H1658   1.111   .     S
C811   H1659   1.117   .     S
H812   C1657   1.111   1_554 S
H813   C1657   1.117   1_554 S
C814   H816    1.110   .     S
C814   H815    1.112   .     S
C814   C817    1.526   .     S
C817   H1664   1.108   .     S
C817   H631    1.110   1_655 S
C817   H1666   1.111   .     S
H818   C1663   1.108   1_554 S
H820   C1663   1.111   1_554 S
O821   C822    1.414   .     S
C822   H823    1.112   .     S
C822   C825    1.528   .     S
C822   H824    1.119   .     S
C825   H827    1.112   .     S
C825   H826    1.112   .     S
C828   H830    1.110   .     S
C828   H831    1.110   .     S
C828   H829    1.111   .     S
C828   C637    1.526   1_655 S
O832   C833    1.416   .     S
C833   H834    1.111   .     S
C833   H835    1.114   .     S
C833   C836    1.533   .     S
C836   H837    1.112   .     S
C836   H838    1.110   .     S
C839   H841    1.111   .     S
C839   H842    1.111   .     S
C839   C272    1.526   1_565 S
C839   H276    1.111   1_565 S
C847   O886    1.275   .     A
C847   O883    1.275   .     A
C847   C872    1.402   .     S
C848   O885    1.275   .     A
C848   O884    1.275   .     A
C848   C871    1.402   .     S
C849   O887    1.286   .     A
C849   O890    1.286   .     A
C849   C867    1.441   .     S
C850   C868    1.431   .     S
C850   O889    1.285   .     A
C850   O888    1.284   .     A
C851   N882    1.366   .     A
C851   H873    1.082   .     S
C851   C1418   1.415   1_545 S
C852   H874    1.082   .     S
C852   N881    1.366   .     A
C852   C1135   1.415   .     S
C853   H875    1.082   .     S
C853   N882    1.366   .     A
C853   C1416   1.415   1_545 S
C854   N881    1.366   .     A
C854   H876    1.082   .     S
C854   C1133   1.415   .     S
C855   Cl937   1.772   .     S
C855   C872    1.400   .     A
C855   C1045   1.380   1_455 S
C856   Cl938   1.773   .     S
C856   C871    1.400   .     A
C856   C952    1.380   .     S
C857   C871    1.400   .     A
C857   Cl939   1.772   .     S
C857   C949    1.380   .     S
C858   Cl940   1.773   .     S
C858   C872    1.400   .     A
C858   C1044   1.380   1_455 S
C859   C869    1.407   .     A
C859   O893    1.388   .     S
C859   C863    1.385   .     A
C860   C864    1.384   .     A
C860   C870    1.412   .     A
C860   O904    1.384   .     S
C861   O915    1.382   .     S
C861   C865    1.385   .     A
C861   C870    1.404   .     A
C862   C866    1.400   .     A
C862   C869    1.407   .     A
C862   O926    1.398   .     S
C863   C867    1.393   .     A
C863   H877    1.083   .     S
C864   H878    1.084   .     S
C864   C868    1.393   .     A
C865   C868    1.396   .     A
C865   H879    1.084   .     S
C866   H880    1.081   .     S
C866   C867    1.399   .     A
C870   C23     1.448   1_556 S
N881   Zn891   2.005   .     S
N882   Zn892   2.005   .     S
O883   Zn891   1.978   .     S
O884   Zn892   1.978   .     S
O885   Zn891   1.978   .     S
O886   Zn892   1.978   .     S
O887   Zn891   1.983   .     S
O888   Zn892   1.983   .     S
O889   Zn891   1.984   .     S
O890   Zn892   1.984   .     S
O893   C894    1.417   .     S
C894   C897    1.530   .     S
C894   H896    1.118   .     S
H895   C48     1.110   1_556 S
C897   H898    1.112   .     S
C897   H899    1.111   .     S
C897   C900    1.526   .     S
C900   H901    1.111   .     S
C900   H903    1.110   .     S
C900   H1184   1.110   .     S
H902   C1464   1.110   1_545 S
O904   C905    1.416   .     S
C905   C908    1.532   .     S
C905   H60     1.111   1_556 S
C905   H61     1.117   1_556 S
C908   H910    1.110   .     S
C908   H909    1.112   .     S
C908   C911    1.526   .     S
C911   H66     1.108   1_556 S
C911   H1007   1.110   .     S
C911   H68     1.111   1_556 S
H913   C1099   1.110   1_455 S
O915   C916    1.414   .     S
C916   H917    1.112   .     S
C916   C919    1.528   .     S
C916   H918    1.119   .     S
C919   H921    1.112   .     S
C919   H920    1.112   .     S
C919   C1110   1.526   1_455 S
C922   H924    1.110   .     S
C922   H925    1.110   .     S
C922   H923    1.111   .     S
C922   C1013   1.526   .     S
O926   C927    1.416   .     S
C927   H928    1.111   .     S
C927   H929    1.114   .     S
C927   C930    1.533   .     S
C930   H931    1.112   .     S
C930   H932    1.110   .     S
C930   C1497   1.526   1_545 S
C933   H935    1.111   .     S
C933   H936    1.111   .     S
C933   C1212   1.526   .     S
C933   H1216   1.111   .     S
H934   C1497   1.111   1_545 S
C941   O980    1.275   .     A
C941   O977    1.275   .     A
C941   C966    1.402   .     S
C942   O979    1.275   .     A
C942   O978    1.275   .     A
C942   C965    1.402   .     S
C943   O981    1.286   .     A
C943   O984    1.286   .     A
C943   C961    1.441   .     S
C944   C962    1.431   .     S
C944   O983    1.285   .     A
C944   O982    1.284   .     A
C945   N976    1.366   .     A
C945   H967    1.082   .     S
C945   C1512   1.415   1_545 S
C946   H968    1.082   .     S
C946   N975    1.366   .     A
C946   C1229   1.415   .     S
C947   H969    1.082   .     S
C947   N976    1.366   .     A
C947   C1510   1.415   1_545 S
C948   N975    1.366   .     A
C948   H970    1.082   .     S
C948   C1227   1.415   .     S
C949   Cl1031  1.772   .     S
C949   C966    1.400   .     A
C950   Cl1032  1.773   .     S
C950   C965    1.400   .     A
C950   C1046   1.380   .     S
C951   C965    1.400   .     A
C951   Cl1033  1.772   .     S
C951   C1043   1.380   .     S
C952   Cl1034  1.773   .     S
C952   C966    1.400   .     A
C953   C963    1.407   .     A
C953   O987    1.388   .     S
C953   C957    1.385   .     A
C954   C958    1.384   .     A
C954   C964    1.412   .     A
C954   O998    1.384   .     S
C955   O1009   1.382   .     S
C955   C959    1.385   .     A
C955   C964    1.404   .     A
C956   C960    1.400   .     A
C956   C963    1.407   .     A
C956   O1020   1.398   .     S
C957   C961    1.393   .     A
C957   H971    1.083   .     S
C958   H972    1.084   .     S
C958   C962    1.393   .     A
C959   C962    1.396   .     A
C959   H973    1.084   .     S
C960   H974    1.081   .     S
C960   C961    1.399   .     A
C964   C117    1.448   1_556 S
N975   Zn985   2.005   .     S
N976   Zn986   2.005   .     S
O977   Zn985   1.978   .     S
O978   Zn986   1.978   .     S
O979   Zn985   1.978   .     S
O980   Zn986   1.978   .     S
O981   Zn985   1.983   .     S
O982   Zn986   1.983   .     S
O983   Zn985   1.984   .     S
O984   Zn986   1.984   .     S
O987   C988    1.417   .     S
C988   C991    1.530   .     S
C988   H990    1.118   .     S
H989   C142    1.110   1_556 S
C991   H992    1.112   .     S
C991   H993    1.111   .     S
C991   C994    1.526   .     S
C994   H995    1.111   .     S
C994   H997    1.110   .     S
C994   H1278   1.110   .     S
H996   C1558   1.110   1_545 S
O998   C999    1.416   .     S
C999   C1002   1.532   .     S
C999   H154    1.111   1_556 S
C999   H155    1.117   1_556 S
C1002  H1004   1.110   .     S
C1002  H1003   1.112   .     S
C1002  C1005   1.526   .     S
C1005  H160    1.108   1_556 S
C1005  H1101   1.110   .     S
C1005  H162    1.111   1_556 S
O1009  C1010   1.414   .     S
C1010  H1011   1.112   .     S
C1010  C1013   1.528   .     S
C1010  H1012   1.119   .     S
C1013  H1015   1.112   .     S
C1013  H1014   1.112   .     S
C1016  H1018   1.110   .     S
C1016  H1019   1.110   .     S
C1016  H1017   1.111   .     S
C1016  C1107   1.526   .     S
O1020  C1021   1.416   .     S
C1021  H1022   1.111   .     S
C1021  H1023   1.114   .     S
C1021  C1024   1.533   .     S
C1024  H1025   1.112   .     S
C1024  H1026   1.110   .     S
C1024  C1591   1.526   1_545 S
C1027  H1029   1.111   .     S
C1027  H1030   1.111   .     S
C1027  C1306   1.526   .     S
C1027  H1310   1.111   .     S
H1028  C1591   1.111   1_545 S
C1035  O1074   1.275   .     A
C1035  O1071   1.275   .     A
C1035  C1060   1.402   .     S
C1036  O1073   1.275   .     A
C1036  O1072   1.275   .     A
C1036  C1059   1.402   .     S
C1037  O1075   1.286   .     A
C1037  O1078   1.286   .     A
C1037  C1055   1.441   .     S
C1038  C1056   1.431   .     S
C1038  O1077   1.285   .     A
C1038  O1076   1.284   .     A
C1039  N1070   1.366   .     A
C1039  H1061   1.082   .     S
C1039  C1606   1.415   1_545 S
C1040  H1062   1.082   .     S
C1040  N1069   1.366   .     A
C1040  C1323   1.415   .     S
C1041  H1063   1.082   .     S
C1041  N1070   1.366   .     A
C1041  C1604   1.415   1_545 S
C1042  N1069   1.366   .     A
C1042  H1064   1.082   .     S
C1042  C1321   1.415   .     S
C1043  Cl1125  1.772   .     S
C1043  C1060   1.400   .     A
C1044  Cl1126  1.773   .     S
C1044  C1059   1.400   .     A
C1044  C858    1.380   1_655 S
C1045  C1059   1.400   .     A
C1045  Cl1127  1.772   .     S
C1045  C855    1.380   1_655 S
C1046  Cl1128  1.773   .     S
C1046  C1060   1.400   .     A
C1047  C1057   1.407   .     A
C1047  O1081   1.388   .     S
C1047  C1051   1.385   .     A
C1048  C1052   1.384   .     A
C1048  C1058   1.412   .     A
C1048  O1092   1.384   .     S
C1049  O1103   1.382   .     S
C1049  C1053   1.385   .     A
C1049  C1058   1.404   .     A
C1050  C1054   1.400   .     A
C1050  C1057   1.407   .     A
C1050  O1114   1.398   .     S
C1051  C1055   1.393   .     A
C1051  H1065   1.083   .     S
C1052  H1066   1.084   .     S
C1052  C1056   1.393   .     A
C1053  C1056   1.396   .     A
C1053  H1067   1.084   .     S
C1054  H1068   1.081   .     S
C1054  C1055   1.399   .     A
C1058  C211    1.448   1_556 S
N1069  Zn1079  2.005   .     S
N1070  Zn1080  2.005   .     S
O1071  Zn1079  1.978   .     S
O1072  Zn1080  1.978   .     S
O1073  Zn1079  1.978   .     S
O1074  Zn1080  1.978   .     S
O1075  Zn1079  1.983   .     S
O1076  Zn1080  1.983   .     S
O1077  Zn1079  1.984   .     S
O1078  Zn1080  1.984   .     S
O1081  C1082   1.417   .     S
C1082  C1085   1.530   .     S
C1082  H1084   1.118   .     S
H1083  C236    1.110   1_556 S
C1085  H1086   1.112   .     S
C1085  H1087   1.111   .     S
C1085  C1088   1.526   .     S
C1088  H1089   1.111   .     S
C1088  H1091   1.110   .     S
C1088  H1372   1.110   .     S
H1090  C1652   1.110   1_545 S
O1092  C1093   1.416   .     S
C1093  C1096   1.532   .     S
C1093  H248    1.111   1_556 S
C1093  H249    1.117   1_556 S
C1096  H1098   1.110   .     S
C1096  H1097   1.112   .     S
C1096  C1099   1.526   .     S
C1099  H254    1.108   1_556 S
C1099  H913    1.110   1_655 S
C1099  H256    1.111   1_556 S
O1103  C1104   1.414   .     S
C1104  H1105   1.112   .     S
C1104  C1107   1.528   .     S
C1104  H1106   1.119   .     S
C1107  H1109   1.112   .     S
C1107  H1108   1.112   .     S
C1110  H1112   1.110   .     S
C1110  H1113   1.110   .     S
C1110  H1111   1.111   .     S
C1110  C919    1.526   1_655 S
O1114  C1115   1.416   .     S
C1115  H1116   1.111   .     S
C1115  H1117   1.114   .     S
C1115  C1118   1.533   .     S
C1118  H1119   1.112   .     S
C1118  H1120   1.110   .     S
C1118  C1685   1.526   1_545 S
C1121  H1123   1.111   .     S
C1121  H1124   1.111   .     S
C1121  C1400   1.526   .     S
C1121  H1404   1.111   .     S
H1122  C1685   1.111   1_545 S
C1129  O1168   1.275   .     A
C1129  O1165   1.275   .     A
C1129  C1154   1.402   .     S
C1130  O1167   1.275   .     A
C1130  O1166   1.275   .     A
C1130  C1153   1.402   .     S
C1131  O1169   1.286   .     A
C1131  O1172   1.286   .     A
C1131  C1149   1.441   .     S
C1132  C1150   1.431   .     S
C1132  O1171   1.285   .     A
C1132  O1170   1.284   .     A
C1133  N1164   1.366   .     A
C1133  H1155   1.082   .     S
C1134  H1156   1.082   .     S
C1134  N1163   1.366   .     A
C1134  C1417   1.415   .     S
C1135  H1157   1.082   .     S
C1135  N1164   1.366   .     A
C1136  N1163   1.366   .     A
C1136  H1158   1.082   .     S
C1136  C1415   1.415   .     S
C1137  Cl1219  1.772   .     S
C1137  C1154   1.400   .     A
C1137  C1327   1.380   1_455 S
C1138  Cl1220  1.773   .     S
C1138  C1153   1.400   .     A
C1138  C1234   1.380   .     S
C1139  C1153   1.400   .     A
C1139  Cl1221  1.772   .     S
C1139  C1231   1.380   .     S
C1140  Cl1222  1.773   .     S
C1140  C1154   1.400   .     A
C1140  C1326   1.380   1_455 S
C1141  C1151   1.407   .     A
C1141  O1175   1.388   .     S
C1141  C1145   1.385   .     A
C1142  C1146   1.384   .     A
C1142  C1152   1.412   .     A
C1142  O1186   1.384   .     S
C1143  O1197   1.382   .     S
C1143  C1147   1.385   .     A
C1143  C1152   1.404   .     A
C1144  C1148   1.400   .     A
C1144  C1151   1.407   .     A
C1144  O1208   1.398   .     S
C1145  C1149   1.393   .     A
C1145  H1159   1.083   .     S
C1146  H1160   1.084   .     S
C1146  C1150   1.393   .     A
C1147  C1150   1.396   .     A
C1147  H1161   1.084   .     S
C1148  H1162   1.081   .     S
C1148  C1149   1.399   .     A
C1152  C305    1.448   1_556 S
N1163  Zn1173  2.005   .     S
N1164  Zn1174  2.005   .     S
O1165  Zn1173  1.978   .     S
O1166  Zn1174  1.978   .     S
O1167  Zn1173  1.978   .     S
O1168  Zn1174  1.978   .     S
O1169  Zn1173  1.983   .     S
O1170  Zn1174  1.983   .     S
O1171  Zn1173  1.984   .     S
O1172  Zn1174  1.984   .     S
O1175  C1176   1.417   .     S
C1176  C1179   1.530   .     S
C1176  H1178   1.118   .     S
H1177  C330    1.110   1_556 S
C1179  H1180   1.112   .     S
C1179  H1181   1.111   .     S
C1179  C1182   1.526   .     S
C1182  H1183   1.111   .     S
C1182  H1185   1.110   .     S
C1182  H1466   1.110   .     S
O1186  C1187   1.416   .     S
C1187  C1190   1.532   .     S
C1187  H342    1.111   1_556 S
C1187  H343    1.117   1_556 S
C1190  H1192   1.110   .     S
C1190  H1191   1.112   .     S
C1190  C1193   1.526   .     S
C1193  H348    1.108   1_556 S
C1193  H1289   1.110   .     S
C1193  H350    1.111   1_556 S
H1195  C1381   1.110   1_455 S
O1197  C1198   1.414   .     S
C1198  H1199   1.112   .     S
C1198  C1201   1.528   .     S
C1198  H1200   1.119   .     S
C1201  H1203   1.112   .     S
C1201  H1202   1.112   .     S
C1201  C1392   1.526   1_455 S
C1204  H1206   1.110   .     S
C1204  H1207   1.110   .     S
C1204  H1205   1.111   .     S
C1204  C1295   1.526   .     S
O1208  C1209   1.416   .     S
C1209  H1210   1.111   .     S
C1209  H1211   1.114   .     S
C1209  C1212   1.533   .     S
C1212  H1213   1.112   .     S
C1212  H1214   1.110   .     S
C1215  H1217   1.111   .     S
C1215  H1218   1.111   .     S
C1215  C1494   1.526   .     S
C1215  H1498   1.111   .     S
C1223  O1262   1.275   .     A
C1223  O1259   1.275   .     A
C1223  C1248   1.402   .     S
C1224  O1261   1.275   .     A
C1224  O1260   1.275   .     A
C1224  C1247   1.402   .     S
C1225  O1263   1.286   .     A
C1225  O1266   1.286   .     A
C1225  C1243   1.441   .     S
C1226  C1244   1.431   .     S
C1226  O1265   1.285   .     A
C1226  O1264   1.284   .     A
C1227  N1258   1.366   .     A
C1227  H1249   1.082   .     S
C1228  H1250   1.082   .     S
C1228  N1257   1.366   .     A
C1228  C1511   1.415   .     S
C1229  H1251   1.082   .     S
C1229  N1258   1.366   .     A
C1230  N1257   1.366   .     A
C1230  H1252   1.082   .     S
C1230  C1509   1.415   .     S
C1231  Cl1313  1.772   .     S
C1231  C1248   1.400   .     A
C1232  Cl1314  1.773   .     S
C1232  C1247   1.400   .     A
C1232  C1328   1.380   .     S
C1233  C1247   1.400   .     A
C1233  Cl1315  1.772   .     S
C1233  C1325   1.380   .     S
C1234  Cl1316  1.773   .     S
C1234  C1248   1.400   .     A
C1235  C1245   1.407   .     A
C1235  O1269   1.388   .     S
C1235  C1239   1.385   .     A
C1236  C1240   1.384   .     A
C1236  C1246   1.412   .     A
C1236  O1280   1.384   .     S
C1237  O1291   1.382   .     S
C1237  C1241   1.385   .     A
C1237  C1246   1.404   .     A
C1238  C1242   1.400   .     A
C1238  C1245   1.407   .     A
C1238  O1302   1.398   .     S
C1239  C1243   1.393   .     A
C1239  H1253   1.083   .     S
C1240  H1254   1.084   .     S
C1240  C1244   1.393   .     A
C1241  C1244   1.396   .     A
C1241  H1255   1.084   .     S
C1242  H1256   1.081   .     S
C1242  C1243   1.399   .     A
C1246  C399    1.448   1_556 S
N1257  Zn1267  2.005   .     S
N1258  Zn1268  2.005   .     S
O1259  Zn1267  1.978   .     S
O1260  Zn1268  1.978   .     S
O1261  Zn1267  1.978   .     S
O1262  Zn1268  1.978   .     S
O1263  Zn1267  1.983   .     S
O1264  Zn1268  1.983   .     S
O1265  Zn1267  1.984   .     S
O1266  Zn1268  1.984   .     S
O1269  C1270   1.417   .     S
C1270  C1273   1.530   .     S
C1270  H1272   1.118   .     S
H1271  C424    1.110   1_556 S
C1273  H1274   1.112   .     S
C1273  H1275   1.111   .     S
C1273  C1276   1.526   .     S
C1276  H1277   1.111   .     S
C1276  H1279   1.110   .     S
C1276  H1560   1.110   .     S
O1280  C1281   1.416   .     S
C1281  C1284   1.532   .     S
C1281  H436    1.111   1_556 S
C1281  H437    1.117   1_556 S
C1284  H1286   1.110   .     S
C1284  H1285   1.112   .     S
C1284  C1287   1.526   .     S
C1287  H442    1.108   1_556 S
C1287  H1383   1.110   .     S
C1287  H444    1.111   1_556 S
O1291  C1292   1.414   .     S
C1292  H1293   1.112   .     S
C1292  C1295   1.528   .     S
C1292  H1294   1.119   .     S
C1295  H1297   1.112   .     S
C1295  H1296   1.112   .     S
C1298  H1300   1.110   .     S
C1298  H1301   1.110   .     S
C1298  H1299   1.111   .     S
C1298  C1389   1.526   .     S
O1302  C1303   1.416   .     S
C1303  H1304   1.111   .     S
C1303  H1305   1.114   .     S
C1303  C1306   1.533   .     S
C1306  H1307   1.112   .     S
C1306  H1308   1.110   .     S
C1309  H1311   1.111   .     S
C1309  H1312   1.111   .     S
C1309  C1588   1.526   .     S
C1309  H1592   1.111   .     S
C1317  O1356   1.275   .     A
C1317  O1353   1.275   .     A
C1317  C1342   1.402   .     S
C1318  O1355   1.275   .     A
C1318  O1354   1.275   .     A
C1318  C1341   1.402   .     S
C1319  O1357   1.286   .     A
C1319  O1360   1.286   .     A
C1319  C1337   1.441   .     S
C1320  C1338   1.431   .     S
C1320  O1359   1.285   .     A
C1320  O1358   1.284   .     A
C1321  N1352   1.366   .     A
C1321  H1343   1.082   .     S
C1322  H1344   1.082   .     S
C1322  N1351   1.366   .     A
C1322  C1605   1.415   .     S
C1323  H1345   1.082   .     S
C1323  N1352   1.366   .     A
C1324  N1351   1.366   .     A
C1324  H1346   1.082   .     S
C1324  C1603   1.415   .     S
C1325  Cl1407  1.772   .     S
C1325  C1342   1.400   .     A
C1326  Cl1408  1.773   .     S
C1326  C1341   1.400   .     A
C1326  C1140   1.380   1_655 S
C1327  C1341   1.400   .     A
C1327  Cl1409  1.772   .     S
C1327  C1137   1.380   1_655 S
C1328  Cl1410  1.773   .     S
C1328  C1342   1.400   .     A
C1329  C1339   1.407   .     A
C1329  O1363   1.388   .     S
C1329  C1333   1.385   .     A
C1330  C1334   1.384   .     A
C1330  C1340   1.412   .     A
C1330  O1374   1.384   .     S
C1331  O1385   1.382   .     S
C1331  C1335   1.385   .     A
C1331  C1340   1.404   .     A
C1332  C1336   1.400   .     A
C1332  C1339   1.407   .     A
C1332  O1396   1.398   .     S
C1333  C1337   1.393   .     A
C1333  H1347   1.083   .     S
C1334  H1348   1.084   .     S
C1334  C1338   1.393   .     A
C1335  C1338   1.396   .     A
C1335  H1349   1.084   .     S
C1336  H1350   1.081   .     S
C1336  C1337   1.399   .     A
C1340  C493    1.448   1_556 S
N1351  Zn1361  2.005   .     S
N1352  Zn1362  2.005   .     S
O1353  Zn1361  1.978   .     S
O1354  Zn1362  1.978   .     S
O1355  Zn1361  1.978   .     S
O1356  Zn1362  1.978   .     S
O1357  Zn1361  1.983   .     S
O1358  Zn1362  1.983   .     S
O1359  Zn1361  1.984   .     S
O1360  Zn1362  1.984   .     S
O1363  C1364   1.417   .     S
C1364  C1367   1.530   .     S
C1364  H1366   1.118   .     S
H1365  C518    1.110   1_556 S
C1367  H1368   1.112   .     S
C1367  H1369   1.111   .     S
C1367  C1370   1.526   .     S
C1370  H1371   1.111   .     S
C1370  H1373   1.110   .     S
C1370  H1654   1.110   .     S
O1374  C1375   1.416   .     S
C1375  C1378   1.532   .     S
C1375  H530    1.111   1_556 S
C1375  H531    1.117   1_556 S
C1378  H1380   1.110   .     S
C1378  H1379   1.112   .     S
C1378  C1381   1.526   .     S
C1381  H536    1.108   1_556 S
C1381  H1195   1.110   1_655 S
C1381  H538    1.111   1_556 S
O1385  C1386   1.414   .     S
C1386  H1387   1.112   .     S
C1386  C1389   1.528   .     S
C1386  H1388   1.119   .     S
C1389  H1391   1.112   .     S
C1389  H1390   1.112   .     S
C1392  H1394   1.110   .     S
C1392  H1395   1.110   .     S
C1392  H1393   1.111   .     S
C1392  C1201   1.526   1_655 S
O1396  C1397   1.416   .     S
C1397  H1398   1.111   .     S
C1397  H1399   1.114   .     S
C1397  C1400   1.533   .     S
C1400  H1401   1.112   .     S
C1400  H1402   1.110   .     S
C1403  H1405   1.111   .     S
C1403  H1406   1.111   .     S
C1403  C1682   1.526   .     S
C1403  H1686   1.111   .     S
C1411  O1450   1.275   .     A
C1411  O1447   1.275   .     A
C1411  C1436   1.402   .     S
C1412  O1449   1.275   .     A
C1412  O1448   1.275   .     A
C1412  C1435   1.402   .     S
C1413  O1451   1.286   .     A
C1413  O1454   1.286   .     A
C1413  C1431   1.441   .     S
C1414  C1432   1.431   .     S
C1414  O1453   1.285   .     A
C1414  O1452   1.284   .     A
C1415  N1446   1.366   .     A
C1415  H1437   1.082   .     S
C1416  H1438   1.082   .     S
C1416  N1445   1.366   .     A
C1416  C853    1.415   1_565 S
C1417  H1439   1.082   .     S
C1417  N1446   1.366   .     A
C1418  N1445   1.366   .     A
C1418  H1440   1.082   .     S
C1418  C851    1.415   1_565 S
C1419  Cl1501  1.772   .     S
C1419  C1436   1.400   .     A
C1419  C1609   1.380   1_455 S
C1420  Cl1502  1.773   .     S
C1420  C1435   1.400   .     A
C1420  C1516   1.380   .     S
C1421  C1435   1.400   .     A
C1421  Cl1503  1.772   .     S
C1421  C1513   1.380   .     S
C1422  Cl1504  1.773   .     S
C1422  C1436   1.400   .     A
C1422  C1608   1.380   1_455 S
C1423  C1433   1.407   .     A
C1423  O1457   1.388   .     S
C1423  C1427   1.385   .     A
C1424  C1428   1.384   .     A
C1424  C1434   1.412   .     A
C1424  O1468   1.384   .     S
C1425  O1479   1.382   .     S
C1425  C1429   1.385   .     A
C1425  C1434   1.404   .     A
C1426  C1430   1.400   .     A
C1426  C1433   1.407   .     A
C1426  O1490   1.398   .     S
C1427  C1431   1.393   .     A
C1427  H1441   1.083   .     S
C1428  H1442   1.084   .     S
C1428  C1432   1.393   .     A
C1429  C1432   1.396   .     A
C1429  H1443   1.084   .     S
C1430  H1444   1.081   .     S
C1430  C1431   1.399   .     A
C1434  C587    1.448   1_556 S
N1445  Zn1455  2.005   .     S
N1446  Zn1456  2.005   .     S
O1447  Zn1455  1.978   .     S
O1448  Zn1456  1.978   .     S
O1449  Zn1455  1.978   .     S
O1450  Zn1456  1.978   .     S
O1451  Zn1455  1.983   .     S
O1452  Zn1456  1.983   .     S
O1453  Zn1455  1.984   .     S
O1454  Zn1456  1.984   .     S
O1457  C1458   1.417   .     S
C1458  C1461   1.530   .     S
C1458  H1460   1.118   .     S
H1459  C612    1.110   1_556 S
C1461  H1462   1.112   .     S
C1461  H1463   1.111   .     S
C1461  C1464   1.526   .     S
C1464  H1465   1.111   .     S
C1464  H1467   1.110   .     S
C1464  H902    1.110   1_565 S
O1468  C1469   1.416   .     S
C1469  C1472   1.532   .     S
C1469  H624    1.111   1_556 S
C1469  H625    1.117   1_556 S
C1472  H1474   1.110   .     S
C1472  H1473   1.112   .     S
C1472  C1475   1.526   .     S
C1475  H630    1.108   1_556 S
C1475  H1571   1.110   .     S
C1475  H632    1.111   1_556 S
H1477  C1663   1.110   1_455 S
O1479  C1480   1.414   .     S
C1480  H1481   1.112   .     S
C1480  C1483   1.528   .     S
C1480  H1482   1.119   .     S
C1483  H1485   1.112   .     S
C1483  H1484   1.112   .     S
C1483  C1674   1.526   1_455 S
C1486  H1488   1.110   .     S
C1486  H1489   1.110   .     S
C1486  H1487   1.111   .     S
C1486  C1577   1.526   .     S
O1490  C1491   1.416   .     S
C1491  H1492   1.111   .     S
C1491  H1493   1.114   .     S
C1491  C1494   1.533   .     S
C1494  H1495   1.112   .     S
C1494  H1496   1.110   .     S
C1497  H1499   1.111   .     S
C1497  H1500   1.111   .     S
C1497  C930    1.526   1_565 S
C1497  H934    1.111   1_565 S
C1505  O1544   1.275   .     A
C1505  O1541   1.275   .     A
C1505  C1530   1.402   .     S
C1506  O1543   1.275   .     A
C1506  O1542   1.275   .     A
C1506  C1529   1.402   .     S
C1507  O1545   1.286   .     A
C1507  O1548   1.286   .     A
C1507  C1525   1.441   .     S
C1508  C1526   1.431   .     S
C1508  O1547   1.285   .     A
C1508  O1546   1.284   .     A
C1509  N1540   1.366   .     A
C1509  H1531   1.082   .     S
C1510  H1532   1.082   .     S
C1510  N1539   1.366   .     A
C1510  C947    1.415   1_565 S
C1511  H1533   1.082   .     S
C1511  N1540   1.366   .     A
C1512  N1539   1.366   .     A
C1512  H1534   1.082   .     S
C1512  C945    1.415   1_565 S
C1513  Cl1595  1.772   .     S
C1513  C1530   1.400   .     A
C1514  Cl1596  1.773   .     S
C1514  C1529   1.400   .     A
C1514  C1610   1.380   .     S
C1515  C1529   1.400   .     A
C1515  Cl1597  1.772   .     S
C1515  C1607   1.380   .     S
C1516  Cl1598  1.773   .     S
C1516  C1530   1.400   .     A
C1517  C1527   1.407   .     A
C1517  O1551   1.388   .     S
C1517  C1521   1.385   .     A
C1518  C1522   1.384   .     A
C1518  C1528   1.412   .     A
C1518  O1562   1.384   .     S
C1519  O1573   1.382   .     S
C1519  C1523   1.385   .     A
C1519  C1528   1.404   .     A
C1520  C1524   1.400   .     A
C1520  C1527   1.407   .     A
C1520  O1584   1.398   .     S
C1521  C1525   1.393   .     A
C1521  H1535   1.083   .     S
C1522  H1536   1.084   .     S
C1522  C1526   1.393   .     A
C1523  C1526   1.396   .     A
C1523  H1537   1.084   .     S
C1524  H1538   1.081   .     S
C1524  C1525   1.399   .     A
C1528  C681    1.448   1_556 S
N1539  Zn1549  2.005   .     S
N1540  Zn1550  2.005   .     S
O1541  Zn1549  1.978   .     S
O1542  Zn1550  1.978   .     S
O1543  Zn1549  1.978   .     S
O1544  Zn1550  1.978   .     S
O1545  Zn1549  1.983   .     S
O1546  Zn1550  1.983   .     S
O1547  Zn1549  1.984   .     S
O1548  Zn1550  1.984   .     S
O1551  C1552   1.417   .     S
C1552  C1555   1.530   .     S
C1552  H1554   1.118   .     S
H1553  C706    1.110   1_556 S
C1555  H1556   1.112   .     S
C1555  H1557   1.111   .     S
C1555  C1558   1.526   .     S
C1558  H1559   1.111   .     S
C1558  H1561   1.110   .     S
C1558  H996    1.110   1_565 S
O1562  C1563   1.416   .     S
C1563  C1566   1.532   .     S
C1563  H718    1.111   1_556 S
C1563  H719    1.117   1_556 S
C1566  H1568   1.110   .     S
C1566  H1567   1.112   .     S
C1566  C1569   1.526   .     S
C1569  H724    1.108   1_556 S
C1569  H1665   1.110   .     S
C1569  H726    1.111   1_556 S
O1573  C1574   1.414   .     S
C1574  H1575   1.112   .     S
C1574  C1577   1.528   .     S
C1574  H1576   1.119   .     S
C1577  H1579   1.112   .     S
C1577  H1578   1.112   .     S
C1580  H1582   1.110   .     S
C1580  H1583   1.110   .     S
C1580  H1581   1.111   .     S
C1580  C1671   1.526   .     S
O1584  C1585   1.416   .     S
C1585  H1586   1.111   .     S
C1585  H1587   1.114   .     S
C1585  C1588   1.533   .     S
C1588  H1589   1.112   .     S
C1588  H1590   1.110   .     S
C1591  H1593   1.111   .     S
C1591  H1594   1.111   .     S
C1591  C1024   1.526   1_565 S
C1591  H1028   1.111   1_565 S
C1599  O1638   1.275   .     A
C1599  O1635   1.275   .     A
C1599  C1624   1.402   .     S
C1600  O1637   1.275   .     A
C1600  O1636   1.275   .     A
C1600  C1623   1.402   .     S
C1601  O1639   1.286   .     A
C1601  O1642   1.286   .     A
C1601  C1619   1.441   .     S
C1602  C1620   1.431   .     S
C1602  O1641   1.285   .     A
C1602  O1640   1.284   .     A
C1603  N1634   1.366   .     A
C1603  H1625   1.082   .     S
C1604  H1626   1.082   .     S
C1604  N1633   1.366   .     A
C1604  C1041   1.415   1_565 S
C1605  H1627   1.082   .     S
C1605  N1634   1.366   .     A
C1606  N1633   1.366   .     A
C1606  H1628   1.082   .     S
C1606  C1039   1.415   1_565 S
C1607  Cl1689  1.772   .     S
C1607  C1624   1.400   .     A
C1608  Cl1690  1.773   .     S
C1608  C1623   1.400   .     A
C1608  C1422   1.380   1_655 S
C1609  C1623   1.400   .     A
C1609  Cl1691  1.772   .     S
C1609  C1419   1.380   1_655 S
C1610  Cl1692  1.773   .     S
C1610  C1624   1.400   .     A
C1611  C1621   1.407   .     A
C1611  O1645   1.388   .     S
C1611  C1615   1.385   .     A
C1612  C1616   1.384   .     A
C1612  C1622   1.412   .     A
C1612  O1656   1.384   .     S
C1613  O1667   1.382   .     S
C1613  C1617   1.385   .     A
C1613  C1622   1.404   .     A
C1614  C1618   1.400   .     A
C1614  C1621   1.407   .     A
C1614  O1678   1.398   .     S
C1615  C1619   1.393   .     A
C1615  H1629   1.083   .     S
C1616  H1630   1.084   .     S
C1616  C1620   1.393   .     A
C1617  C1620   1.396   .     A
C1617  H1631   1.084   .     S
C1618  H1632   1.081   .     S
C1618  C1619   1.399   .     A
C1622  C775    1.448   1_556 S
N1633  Zn1643  2.005   .     S
N1634  Zn1644  2.005   .     S
O1635  Zn1643  1.978   .     S
O1636  Zn1644  1.978   .     S
O1637  Zn1643  1.978   .     S
O1638  Zn1644  1.978   .     S
O1639  Zn1643  1.983   .     S
O1640  Zn1644  1.983   .     S
O1641  Zn1643  1.984   .     S
O1642  Zn1644  1.984   .     S
O1645  C1646   1.417   .     S
C1646  C1649   1.530   .     S
C1646  H1648   1.118   .     S
H1647  C800    1.110   1_556 S
C1649  H1650   1.112   .     S
C1649  H1651   1.111   .     S
C1649  C1652   1.526   .     S
C1652  H1653   1.111   .     S
C1652  H1655   1.110   .     S
C1652  H1090   1.110   1_565 S
O1656  C1657   1.416   .     S
C1657  C1660   1.532   .     S
C1657  H812    1.111   1_556 S
C1657  H813    1.117   1_556 S
C1660  H1662   1.110   .     S
C1660  H1661   1.112   .     S
C1660  C1663   1.526   .     S
C1663  H818    1.108   1_556 S
C1663  H1477   1.110   1_655 S
C1663  H820    1.111   1_556 S
O1667  C1668   1.414   .     S
C1668  H1669   1.112   .     S
C1668  C1671   1.528   .     S
C1668  H1670   1.119   .     S
C1671  H1673   1.112   .     S
C1671  H1672   1.112   .     S
C1674  H1676   1.110   .     S
C1674  H1677   1.110   .     S
C1674  H1675   1.111   .     S
C1674  C1483   1.526   1_655 S
O1678  C1679   1.416   .     S
C1679  H1680   1.111   .     S
C1679  H1681   1.114   .     S
C1679  C1682   1.533   .     S
C1682  H1683   1.112   .     S
C1682  H1684   1.110   .     S
C1685  H1687   1.111   .     S
C1685  H1688   1.111   .     S
C1685  C1118   1.526   1_565 S
C1685  H1122   1.111   1_565 S
