data_str_m3_o2_o10_pcu_sym.29
_audit_creation_date              2020-01-03
_audit_creation_method            'Materials Studio'
_symmetry_space_group_name_H-M    'P1'
_symmetry_Int_Tables_number       1
_symmetry_cell_setting            triclinic
loop_
_symmetry_equiv_pos_as_xyz
  x,y,z
_cell_length_a                    25.7623
_cell_length_b                    29.8386
_cell_length_c                    28.4776
_cell_angle_alpha                 89.0780
_cell_angle_beta                  98.1834
_cell_angle_gamma                 90.8141
loop_
_atom_site_label
_atom_site_type_symbol
_atom_site_fract_x
_atom_site_fract_y
_atom_site_fract_z
_atom_site_U_iso_or_equiv
_atom_site_adp_type
_atom_site_occupancy
C1     C     0.16598   0.16384   0.25022   0.00000  Uiso   1.00
C2     C     0.15262   0.21136   0.44686   0.00000  Uiso   1.00
C3     C     0.16602   0.25011   0.02648   0.00000  Uiso   1.00
C4     C     0.16621   0.25038   0.47314   0.00000  Uiso   1.00
C5     C     0.06712   0.24975   0.23767   0.00000  Uiso   1.00
C6     C     0.26623   0.24994   0.26234   0.00000  Uiso   1.00
C7     C     0.01218   0.24916   0.23102   0.00000  Uiso   1.00
C8     C     0.32120   0.24993   0.26906   0.00000  Uiso   1.00
C9     C     0.12197   0.04836   0.27902   0.00000  Uiso   1.00
C10    C     0.12681   0.45087   0.20569   0.00000  Uiso   1.00
C11    C     0.12996   0.09466   0.28087   0.00000  Uiso   1.00
C12    C     0.16591   0.33620   0.24957   0.00000  Uiso   1.00
C13    C     0.13583   0.40516   0.20661   0.00000  Uiso   1.00
C14    C     0.16043   0.11585   0.24992   0.00000  Uiso   1.00
C15    C     0.15986   0.38414   0.24824   0.00000  Uiso   1.00
C16    C     0.18271   0.09142   0.21665   0.00000  Uiso   1.00
C17    C     0.17492   0.40863   0.28941   0.00000  Uiso   1.00
C18    C     0.17569   0.04553   0.21505   0.00000  Uiso   1.00
C19    C     0.16747   0.45431   0.28865   0.00000  Uiso   1.00
C20    C     0.14553   0.02409   0.24608   0.00000  Uiso   1.00
C21    C     0.14408   0.47565   0.24702   0.00000  Uiso   1.00
C22    C     0.12080   0.23691   0.04734   0.00000  Uiso   1.00
C23    C     0.18027   0.28926   0.44852   0.00000  Uiso   1.00
C24    C     0.12349   0.23512   0.09718   0.00000  Uiso   1.00
C25    C     0.18193   0.28755   0.39897   0.00000  Uiso   1.00
C26    C     0.20894   0.26656   0.10670   0.00000  Uiso   1.00
C27    C     0.14939   0.21297   0.39668   0.00000  Uiso   1.00
C28    C     0.21134   0.26329   0.05782   0.00000  Uiso   1.00
H29    H     0.32523   0.24807   0.19487   0.00000  Uiso   1.00
H30    H     0.19426   0.31682   0.38038   0.00000  Uiso   1.00
H31    H     0.07839   0.04828   0.32951   0.00000  Uiso   1.00
H32    H     0.08974   0.00016   0.17053   0.00000  Uiso   1.00
H33    H     0.07223   0.23848   0.48839   0.00000  Uiso   1.00
H34    H     0.20097   0.35220   0.45103   0.00000  Uiso   1.00
H35    H     0.23482   0.30459   0.15819   0.00000  Uiso   1.00
H36    H     0.10455   0.19061   0.34296   0.00000  Uiso   1.00
H37    H     0.26001   0.26018   0.01159   0.00000  Uiso   1.00
H38    H     0.13543   0.14738   0.44869   0.00000  Uiso   1.00
H39    H     0.00821   0.25078   0.30525   0.00000  Uiso   1.00
H40    H     0.11161   0.11412   0.30556   0.00000  Uiso   1.00
H41    H     0.12284   0.38593   0.17504   0.00000  Uiso   1.00
H42    H     0.20612   0.10778   0.19248   0.00000  Uiso   1.00
H43    H     0.19338   0.39261   0.32182   0.00000  Uiso   1.00
H44    H     0.19456   0.02650   0.19027   0.00000  Uiso   1.00
H45    H     0.18159   0.47333   0.32011   0.00000  Uiso   1.00
H46    H     0.08961   0.22358   0.11264   0.00000  Uiso   1.00
N47    N     0.16667   0.24999   0.12624   0.00000  Uiso   1.00
N48    N     0.16667   0.25001   0.37377   0.00000  Uiso   1.00
O49    O     0.16667   0.18453   0.28974   0.00000  Uiso   1.00
O50    O     0.10158   0.46973   0.16416   0.00000  Uiso   1.00
O51    O     0.07315   0.22624   0.02098   0.00000  Uiso   1.00
O52    O     0.19208   0.32835   0.47331   0.00000  Uiso   1.00
O53    O     0.24999   0.28769   0.13399   0.00000  Uiso   1.00
O54    O     0.12595   0.17761   0.37134   0.00000  Uiso   1.00
O55    O     0.25840   0.27453   0.04242   0.00000  Uiso   1.00
O56    O     0.14084   0.17273   0.47091   0.00000  Uiso   1.00
O57    O     0.16666   0.31546   0.21026   0.00000  Uiso   1.00
O58    O     0.16667   0.18453   0.21026   0.00000  Uiso   1.00
O59    O     0.16666   0.31547   0.28974   0.00000  Uiso   1.00
O60    O     0.09058   0.25000   0.28045   0.00000  Uiso   1.00
O61    O     0.24275   0.25000   0.21956   0.00000  Uiso   1.00
O62    O     0.09058   0.24999   0.20097   0.00000  Uiso   1.00
O63    O     0.24275   0.25000   0.29904   0.00000  Uiso   1.00
O64    O     0.09171   0.02619   0.30861   0.00000  Uiso   1.00
Zn65   Zn    0.16667   0.25000   0.30307   0.00000  Uiso   1.00
Zn66   Zn    0.16667   0.24999   0.19693   0.00000  Uiso   1.00
C67    C     0.49931   0.16384   0.25022   0.00000  Uiso   1.00
C68    C     0.48595   0.21136   0.44686   0.00000  Uiso   1.00
C69    C     0.49936   0.25011   0.02648   0.00000  Uiso   1.00
C70    C     0.49955   0.25038   0.47314   0.00000  Uiso   1.00
C71    C     0.40045   0.24975   0.23767   0.00000  Uiso   1.00
C72    C     0.59956   0.24994   0.26234   0.00000  Uiso   1.00
C73    C     0.34551   0.24916   0.23102   0.00000  Uiso   1.00
C74    C     0.65453   0.24993   0.26906   0.00000  Uiso   1.00
C75    C     0.45531   0.04836   0.27902   0.00000  Uiso   1.00
C76    C     0.46015   0.45087   0.20569   0.00000  Uiso   1.00
C77    C     0.46329   0.09466   0.28087   0.00000  Uiso   1.00
C78    C     0.49925   0.33620   0.24957   0.00000  Uiso   1.00
C79    C     0.46917   0.40516   0.20661   0.00000  Uiso   1.00
C80    C     0.49376   0.11585   0.24992   0.00000  Uiso   1.00
C81    C     0.49319   0.38414   0.24824   0.00000  Uiso   1.00
C82    C     0.51605   0.09142   0.21665   0.00000  Uiso   1.00
C83    C     0.50825   0.40863   0.28941   0.00000  Uiso   1.00
C84    C     0.50902   0.04553   0.21505   0.00000  Uiso   1.00
C85    C     0.50080   0.45431   0.28865   0.00000  Uiso   1.00
C86    C     0.47886   0.02409   0.24608   0.00000  Uiso   1.00
C87    C     0.47741   0.47565   0.24702   0.00000  Uiso   1.00
C88    C     0.45413   0.23691   0.04734   0.00000  Uiso   1.00
C89    C     0.51361   0.28926   0.44852   0.00000  Uiso   1.00
C90    C     0.45682   0.23512   0.09718   0.00000  Uiso   1.00
C91    C     0.51526   0.28755   0.39897   0.00000  Uiso   1.00
C92    C     0.54228   0.26656   0.10670   0.00000  Uiso   1.00
C93    C     0.48272   0.21297   0.39668   0.00000  Uiso   1.00
C94    C     0.54467   0.26329   0.05782   0.00000  Uiso   1.00
H95    H     0.65856   0.24807   0.19487   0.00000  Uiso   1.00
H96    H     0.52759   0.31682   0.38038   0.00000  Uiso   1.00
H97    H     0.41172   0.04828   0.32951   0.00000  Uiso   1.00
H98    H     0.42307   0.00016   0.17053   0.00000  Uiso   1.00
H99    H     0.40557   0.23848   0.48839   0.00000  Uiso   1.00
H100   H     0.53430   0.35220   0.45103   0.00000  Uiso   1.00
H101   H     0.56815   0.30459   0.15819   0.00000  Uiso   1.00
H102   H     0.43789   0.19061   0.34296   0.00000  Uiso   1.00
H103   H     0.59334   0.26018   0.01159   0.00000  Uiso   1.00
H104   H     0.46876   0.14738   0.44869   0.00000  Uiso   1.00
H105   H     0.34154   0.25078   0.30525   0.00000  Uiso   1.00
H106   H     0.44495   0.11412   0.30556   0.00000  Uiso   1.00
H107   H     0.45617   0.38593   0.17504   0.00000  Uiso   1.00
H108   H     0.53946   0.10778   0.19248   0.00000  Uiso   1.00
H109   H     0.52671   0.39261   0.32182   0.00000  Uiso   1.00
H110   H     0.52789   0.02650   0.19027   0.00000  Uiso   1.00
H111   H     0.51492   0.47333   0.32011   0.00000  Uiso   1.00
H112   H     0.42295   0.22358   0.11264   0.00000  Uiso   1.00
N113   N     0.50000   0.24999   0.12624   0.00000  Uiso   1.00
N114   N     0.50000   0.25001   0.37377   0.00000  Uiso   1.00
O115   O     0.50000   0.18453   0.28974   0.00000  Uiso   1.00
O116   O     0.43492   0.46973   0.16416   0.00000  Uiso   1.00
O117   O     0.40649   0.22624   0.02098   0.00000  Uiso   1.00
O118   O     0.52542   0.32835   0.47331   0.00000  Uiso   1.00
O119   O     0.58332   0.28769   0.13399   0.00000  Uiso   1.00
O120   O     0.45928   0.17761   0.37134   0.00000  Uiso   1.00
O121   O     0.59173   0.27453   0.04242   0.00000  Uiso   1.00
O122   O     0.47417   0.17273   0.47091   0.00000  Uiso   1.00
O123   O     0.50000   0.31546   0.21026   0.00000  Uiso   1.00
O124   O     0.50000   0.18453   0.21026   0.00000  Uiso   1.00
O125   O     0.50000   0.31547   0.28974   0.00000  Uiso   1.00
O126   O     0.42392   0.25000   0.28045   0.00000  Uiso   1.00
O127   O     0.57608   0.25000   0.21956   0.00000  Uiso   1.00
O128   O     0.42392   0.24999   0.20097   0.00000  Uiso   1.00
O129   O     0.57608   0.25000   0.29904   0.00000  Uiso   1.00
O130   O     0.42505   0.02619   0.30861   0.00000  Uiso   1.00
Zn131  Zn    0.50000   0.25000   0.30307   0.00000  Uiso   1.00
Zn132  Zn    0.50000   0.24999   0.19693   0.00000  Uiso   1.00
C133   C     0.83264   0.16384   0.25022   0.00000  Uiso   1.00
C134   C     0.81928   0.21136   0.44686   0.00000  Uiso   1.00
C135   C     0.83269   0.25011   0.02648   0.00000  Uiso   1.00
C136   C     0.83288   0.25038   0.47314   0.00000  Uiso   1.00
C137   C     0.73378   0.24975   0.23767   0.00000  Uiso   1.00
C138   C     0.93289   0.24994   0.26234   0.00000  Uiso   1.00
C139   C     0.67884   0.24916   0.23102   0.00000  Uiso   1.00
C140   C     0.98786   0.24993   0.26906   0.00000  Uiso   1.00
C141   C     0.78864   0.04836   0.27902   0.00000  Uiso   1.00
C142   C     0.79348   0.45087   0.20569   0.00000  Uiso   1.00
C143   C     0.79663   0.09466   0.28087   0.00000  Uiso   1.00
C144   C     0.83258   0.33620   0.24957   0.00000  Uiso   1.00
C145   C     0.80250   0.40516   0.20661   0.00000  Uiso   1.00
C146   C     0.82709   0.11585   0.24992   0.00000  Uiso   1.00
C147   C     0.82652   0.38414   0.24824   0.00000  Uiso   1.00
C148   C     0.84938   0.09142   0.21665   0.00000  Uiso   1.00
C149   C     0.84159   0.40863   0.28941   0.00000  Uiso   1.00
C150   C     0.84235   0.04553   0.21505   0.00000  Uiso   1.00
C151   C     0.83414   0.45431   0.28865   0.00000  Uiso   1.00
C152   C     0.81219   0.02409   0.24608   0.00000  Uiso   1.00
C153   C     0.81074   0.47565   0.24702   0.00000  Uiso   1.00
C154   C     0.78747   0.23691   0.04734   0.00000  Uiso   1.00
C155   C     0.84694   0.28926   0.44852   0.00000  Uiso   1.00
C156   C     0.79015   0.23512   0.09718   0.00000  Uiso   1.00
C157   C     0.84859   0.28755   0.39897   0.00000  Uiso   1.00
C158   C     0.87561   0.26656   0.10670   0.00000  Uiso   1.00
C159   C     0.81606   0.21297   0.39668   0.00000  Uiso   1.00
C160   C     0.87801   0.26329   0.05782   0.00000  Uiso   1.00
H161   H     0.99190   0.24807   0.19487   0.00000  Uiso   1.00
H162   H     0.86093   0.31682   0.38038   0.00000  Uiso   1.00
H163   H     0.74505   0.04828   0.32951   0.00000  Uiso   1.00
H164   H     0.75641   0.00016   0.17053   0.00000  Uiso   1.00
H165   H     0.73890   0.23848   0.48839   0.00000  Uiso   1.00
H166   H     0.86764   0.35220   0.45103   0.00000  Uiso   1.00
H167   H     0.90148   0.30459   0.15819   0.00000  Uiso   1.00
H168   H     0.77122   0.19061   0.34296   0.00000  Uiso   1.00
H169   H     0.92667   0.26018   0.01159   0.00000  Uiso   1.00
H170   H     0.80210   0.14738   0.44869   0.00000  Uiso   1.00
H171   H     0.67487   0.25078   0.30525   0.00000  Uiso   1.00
H172   H     0.77828   0.11412   0.30556   0.00000  Uiso   1.00
H173   H     0.78951   0.38593   0.17504   0.00000  Uiso   1.00
H174   H     0.87279   0.10778   0.19248   0.00000  Uiso   1.00
H175   H     0.86004   0.39261   0.32182   0.00000  Uiso   1.00
H176   H     0.86122   0.02650   0.19027   0.00000  Uiso   1.00
H177   H     0.84826   0.47333   0.32011   0.00000  Uiso   1.00
H178   H     0.75628   0.22358   0.11264   0.00000  Uiso   1.00
N179   N     0.83333   0.24999   0.12624   0.00000  Uiso   1.00
N180   N     0.83333   0.25001   0.37377   0.00000  Uiso   1.00
O181   O     0.83334   0.18453   0.28974   0.00000  Uiso   1.00
O182   O     0.76825   0.46973   0.16416   0.00000  Uiso   1.00
O183   O     0.73982   0.22624   0.02098   0.00000  Uiso   1.00
O184   O     0.85875   0.32835   0.47331   0.00000  Uiso   1.00
O185   O     0.91666   0.28769   0.13399   0.00000  Uiso   1.00
O186   O     0.79261   0.17761   0.37134   0.00000  Uiso   1.00
O187   O     0.92506   0.27453   0.04242   0.00000  Uiso   1.00
O188   O     0.80751   0.17273   0.47091   0.00000  Uiso   1.00
O189   O     0.83333   0.31546   0.21026   0.00000  Uiso   1.00
O190   O     0.83334   0.18453   0.21026   0.00000  Uiso   1.00
O191   O     0.83333   0.31547   0.28974   0.00000  Uiso   1.00
O192   O     0.75725   0.25000   0.28045   0.00000  Uiso   1.00
O193   O     0.90942   0.25000   0.21956   0.00000  Uiso   1.00
O194   O     0.75725   0.24999   0.20097   0.00000  Uiso   1.00
O195   O     0.90942   0.25000   0.29904   0.00000  Uiso   1.00
O196   O     0.75838   0.02619   0.30861   0.00000  Uiso   1.00
Zn197  Zn    0.83333   0.25000   0.30307   0.00000  Uiso   1.00
Zn198  Zn    0.83333   0.24999   0.19693   0.00000  Uiso   1.00
C199   C     0.16598   0.66384   0.25022   0.00000  Uiso   1.00
C200   C     0.15262   0.71136   0.44686   0.00000  Uiso   1.00
C201   C     0.16602   0.75011   0.02648   0.00000  Uiso   1.00
C202   C     0.16621   0.75038   0.47314   0.00000  Uiso   1.00
C203   C     0.06712   0.74975   0.23767   0.00000  Uiso   1.00
C204   C     0.26623   0.74994   0.26234   0.00000  Uiso   1.00
C205   C     0.01218   0.74916   0.23102   0.00000  Uiso   1.00
C206   C     0.32120   0.74993   0.26906   0.00000  Uiso   1.00
C207   C     0.12197   0.54836   0.27902   0.00000  Uiso   1.00
C208   C     0.12681   0.95087   0.20569   0.00000  Uiso   1.00
C209   C     0.12996   0.59466   0.28087   0.00000  Uiso   1.00
C210   C     0.16591   0.83620   0.24957   0.00000  Uiso   1.00
C211   C     0.13583   0.90516   0.20661   0.00000  Uiso   1.00
C212   C     0.16043   0.61585   0.24992   0.00000  Uiso   1.00
C213   C     0.15986   0.88414   0.24824   0.00000  Uiso   1.00
C214   C     0.18271   0.59142   0.21665   0.00000  Uiso   1.00
C215   C     0.17492   0.90863   0.28941   0.00000  Uiso   1.00
C216   C     0.17569   0.54553   0.21505   0.00000  Uiso   1.00
C217   C     0.16747   0.95431   0.28865   0.00000  Uiso   1.00
C218   C     0.14553   0.52409   0.24608   0.00000  Uiso   1.00
C219   C     0.14408   0.97565   0.24702   0.00000  Uiso   1.00
C220   C     0.12080   0.73691   0.04734   0.00000  Uiso   1.00
C221   C     0.18027   0.78926   0.44852   0.00000  Uiso   1.00
C222   C     0.12349   0.73512   0.09718   0.00000  Uiso   1.00
C223   C     0.18193   0.78755   0.39897   0.00000  Uiso   1.00
C224   C     0.20894   0.76656   0.10670   0.00000  Uiso   1.00
C225   C     0.14939   0.71297   0.39668   0.00000  Uiso   1.00
C226   C     0.21134   0.76329   0.05782   0.00000  Uiso   1.00
H227   H     0.32523   0.74807   0.19487   0.00000  Uiso   1.00
H228   H     0.19426   0.81682   0.38038   0.00000  Uiso   1.00
H229   H     0.07839   0.54828   0.32951   0.00000  Uiso   1.00
H230   H     0.08974   0.50016   0.17053   0.00000  Uiso   1.00
H231   H     0.07223   0.73848   0.48839   0.00000  Uiso   1.00
H232   H     0.20097   0.85220   0.45103   0.00000  Uiso   1.00
H233   H     0.23482   0.80459   0.15819   0.00000  Uiso   1.00
H234   H     0.10455   0.69061   0.34296   0.00000  Uiso   1.00
H235   H     0.26001   0.76018   0.01159   0.00000  Uiso   1.00
H236   H     0.13543   0.64738   0.44869   0.00000  Uiso   1.00
H237   H     0.00821   0.75078   0.30525   0.00000  Uiso   1.00
H238   H     0.11161   0.61412   0.30556   0.00000  Uiso   1.00
H239   H     0.12284   0.88593   0.17504   0.00000  Uiso   1.00
H240   H     0.20612   0.60778   0.19248   0.00000  Uiso   1.00
H241   H     0.19338   0.89261   0.32182   0.00000  Uiso   1.00
H242   H     0.19456   0.52650   0.19027   0.00000  Uiso   1.00
H243   H     0.18159   0.97333   0.32011   0.00000  Uiso   1.00
H244   H     0.08961   0.72358   0.11264   0.00000  Uiso   1.00
N245   N     0.16667   0.74999   0.12624   0.00000  Uiso   1.00
N246   N     0.16667   0.75001   0.37377   0.00000  Uiso   1.00
O247   O     0.16667   0.68453   0.28974   0.00000  Uiso   1.00
O248   O     0.10158   0.96973   0.16416   0.00000  Uiso   1.00
O249   O     0.07315   0.72624   0.02098   0.00000  Uiso   1.00
O250   O     0.19208   0.82835   0.47331   0.00000  Uiso   1.00
O251   O     0.24999   0.78769   0.13399   0.00000  Uiso   1.00
O252   O     0.12595   0.67761   0.37134   0.00000  Uiso   1.00
O253   O     0.25840   0.77453   0.04242   0.00000  Uiso   1.00
O254   O     0.14084   0.67273   0.47091   0.00000  Uiso   1.00
O255   O     0.16666   0.81546   0.21026   0.00000  Uiso   1.00
O256   O     0.16667   0.68453   0.21026   0.00000  Uiso   1.00
O257   O     0.16666   0.81547   0.28974   0.00000  Uiso   1.00
O258   O     0.09058   0.75000   0.28045   0.00000  Uiso   1.00
O259   O     0.24275   0.75000   0.21956   0.00000  Uiso   1.00
O260   O     0.09058   0.74999   0.20097   0.00000  Uiso   1.00
O261   O     0.24275   0.75000   0.29904   0.00000  Uiso   1.00
O262   O     0.09171   0.52619   0.30861   0.00000  Uiso   1.00
Zn263  Zn    0.16667   0.75000   0.30307   0.00000  Uiso   1.00
Zn264  Zn    0.16667   0.74999   0.19693   0.00000  Uiso   1.00
C265   C     0.49931   0.66384   0.25022   0.00000  Uiso   1.00
C266   C     0.48595   0.71136   0.44686   0.00000  Uiso   1.00
C267   C     0.49936   0.75011   0.02648   0.00000  Uiso   1.00
C268   C     0.49955   0.75038   0.47314   0.00000  Uiso   1.00
C269   C     0.40045   0.74975   0.23767   0.00000  Uiso   1.00
C270   C     0.59956   0.74994   0.26234   0.00000  Uiso   1.00
C271   C     0.34551   0.74916   0.23102   0.00000  Uiso   1.00
C272   C     0.65453   0.74993   0.26906   0.00000  Uiso   1.00
C273   C     0.45531   0.54836   0.27902   0.00000  Uiso   1.00
C274   C     0.46015   0.95087   0.20569   0.00000  Uiso   1.00
C275   C     0.46329   0.59466   0.28087   0.00000  Uiso   1.00
C276   C     0.49925   0.83620   0.24957   0.00000  Uiso   1.00
C277   C     0.46917   0.90516   0.20661   0.00000  Uiso   1.00
C278   C     0.49376   0.61585   0.24992   0.00000  Uiso   1.00
C279   C     0.49319   0.88414   0.24824   0.00000  Uiso   1.00
C280   C     0.51605   0.59142   0.21665   0.00000  Uiso   1.00
C281   C     0.50825   0.90863   0.28941   0.00000  Uiso   1.00
C282   C     0.50902   0.54553   0.21505   0.00000  Uiso   1.00
C283   C     0.50080   0.95431   0.28865   0.00000  Uiso   1.00
C284   C     0.47886   0.52409   0.24608   0.00000  Uiso   1.00
C285   C     0.47741   0.97565   0.24702   0.00000  Uiso   1.00
C286   C     0.45413   0.73691   0.04734   0.00000  Uiso   1.00
C287   C     0.51361   0.78926   0.44852   0.00000  Uiso   1.00
C288   C     0.45682   0.73512   0.09718   0.00000  Uiso   1.00
C289   C     0.51526   0.78755   0.39897   0.00000  Uiso   1.00
C290   C     0.54228   0.76656   0.10670   0.00000  Uiso   1.00
C291   C     0.48272   0.71297   0.39668   0.00000  Uiso   1.00
C292   C     0.54467   0.76329   0.05782   0.00000  Uiso   1.00
H293   H     0.65856   0.74807   0.19487   0.00000  Uiso   1.00
H294   H     0.52759   0.81682   0.38038   0.00000  Uiso   1.00
H295   H     0.41172   0.54828   0.32951   0.00000  Uiso   1.00
H296   H     0.42307   0.50016   0.17053   0.00000  Uiso   1.00
H297   H     0.40557   0.73848   0.48839   0.00000  Uiso   1.00
H298   H     0.53430   0.85220   0.45103   0.00000  Uiso   1.00
H299   H     0.56815   0.80459   0.15819   0.00000  Uiso   1.00
H300   H     0.43789   0.69061   0.34296   0.00000  Uiso   1.00
H301   H     0.59334   0.76018   0.01159   0.00000  Uiso   1.00
H302   H     0.46876   0.64738   0.44869   0.00000  Uiso   1.00
H303   H     0.34154   0.75078   0.30525   0.00000  Uiso   1.00
H304   H     0.44495   0.61412   0.30556   0.00000  Uiso   1.00
H305   H     0.45617   0.88593   0.17504   0.00000  Uiso   1.00
H306   H     0.53946   0.60778   0.19248   0.00000  Uiso   1.00
H307   H     0.52671   0.89261   0.32182   0.00000  Uiso   1.00
H308   H     0.52789   0.52650   0.19027   0.00000  Uiso   1.00
H309   H     0.51492   0.97333   0.32011   0.00000  Uiso   1.00
H310   H     0.42295   0.72358   0.11264   0.00000  Uiso   1.00
N311   N     0.50000   0.74999   0.12624   0.00000  Uiso   1.00
N312   N     0.50000   0.75001   0.37377   0.00000  Uiso   1.00
O313   O     0.50000   0.68453   0.28974   0.00000  Uiso   1.00
O314   O     0.43492   0.96973   0.16416   0.00000  Uiso   1.00
O315   O     0.40649   0.72624   0.02098   0.00000  Uiso   1.00
O316   O     0.52542   0.82835   0.47331   0.00000  Uiso   1.00
O317   O     0.58332   0.78769   0.13399   0.00000  Uiso   1.00
O318   O     0.45928   0.67761   0.37134   0.00000  Uiso   1.00
O319   O     0.59173   0.77453   0.04242   0.00000  Uiso   1.00
O320   O     0.47417   0.67273   0.47091   0.00000  Uiso   1.00
O321   O     0.50000   0.81546   0.21026   0.00000  Uiso   1.00
O322   O     0.50000   0.68453   0.21026   0.00000  Uiso   1.00
O323   O     0.50000   0.81547   0.28974   0.00000  Uiso   1.00
O324   O     0.42392   0.75000   0.28045   0.00000  Uiso   1.00
O325   O     0.57608   0.75000   0.21956   0.00000  Uiso   1.00
O326   O     0.42392   0.74999   0.20097   0.00000  Uiso   1.00
O327   O     0.57608   0.75000   0.29904   0.00000  Uiso   1.00
O328   O     0.42505   0.52619   0.30861   0.00000  Uiso   1.00
Zn329  Zn    0.50000   0.75000   0.30307   0.00000  Uiso   1.00
Zn330  Zn    0.50000   0.74999   0.19693   0.00000  Uiso   1.00
C331   C     0.83264   0.66384   0.25022   0.00000  Uiso   1.00
C332   C     0.81928   0.71136   0.44686   0.00000  Uiso   1.00
C333   C     0.83269   0.75011   0.02648   0.00000  Uiso   1.00
C334   C     0.83288   0.75038   0.47314   0.00000  Uiso   1.00
C335   C     0.73378   0.74975   0.23767   0.00000  Uiso   1.00
C336   C     0.93289   0.74994   0.26234   0.00000  Uiso   1.00
C337   C     0.67884   0.74916   0.23102   0.00000  Uiso   1.00
C338   C     0.98786   0.74993   0.26906   0.00000  Uiso   1.00
C339   C     0.78864   0.54836   0.27902   0.00000  Uiso   1.00
C340   C     0.79348   0.95087   0.20569   0.00000  Uiso   1.00
C341   C     0.79663   0.59466   0.28087   0.00000  Uiso   1.00
C342   C     0.83258   0.83620   0.24957   0.00000  Uiso   1.00
C343   C     0.80250   0.90516   0.20661   0.00000  Uiso   1.00
C344   C     0.82709   0.61585   0.24992   0.00000  Uiso   1.00
C345   C     0.82652   0.88414   0.24824   0.00000  Uiso   1.00
C346   C     0.84938   0.59142   0.21665   0.00000  Uiso   1.00
C347   C     0.84159   0.90863   0.28941   0.00000  Uiso   1.00
C348   C     0.84235   0.54553   0.21505   0.00000  Uiso   1.00
C349   C     0.83414   0.95431   0.28865   0.00000  Uiso   1.00
C350   C     0.81219   0.52409   0.24608   0.00000  Uiso   1.00
C351   C     0.81074   0.97565   0.24702   0.00000  Uiso   1.00
C352   C     0.78747   0.73691   0.04734   0.00000  Uiso   1.00
C353   C     0.84694   0.78926   0.44852   0.00000  Uiso   1.00
C354   C     0.79015   0.73512   0.09718   0.00000  Uiso   1.00
C355   C     0.84859   0.78755   0.39897   0.00000  Uiso   1.00
C356   C     0.87561   0.76656   0.10670   0.00000  Uiso   1.00
C357   C     0.81606   0.71297   0.39668   0.00000  Uiso   1.00
C358   C     0.87801   0.76329   0.05782   0.00000  Uiso   1.00
H359   H     0.99190   0.74807   0.19487   0.00000  Uiso   1.00
H360   H     0.86093   0.81682   0.38038   0.00000  Uiso   1.00
H361   H     0.74505   0.54828   0.32951   0.00000  Uiso   1.00
H362   H     0.75641   0.50016   0.17053   0.00000  Uiso   1.00
H363   H     0.73890   0.73848   0.48839   0.00000  Uiso   1.00
H364   H     0.86764   0.85220   0.45103   0.00000  Uiso   1.00
H365   H     0.90148   0.80459   0.15819   0.00000  Uiso   1.00
H366   H     0.77122   0.69061   0.34296   0.00000  Uiso   1.00
H367   H     0.92667   0.76018   0.01159   0.00000  Uiso   1.00
H368   H     0.80210   0.64738   0.44869   0.00000  Uiso   1.00
H369   H     0.67487   0.75078   0.30525   0.00000  Uiso   1.00
H370   H     0.77828   0.61412   0.30556   0.00000  Uiso   1.00
H371   H     0.78951   0.88593   0.17504   0.00000  Uiso   1.00
H372   H     0.87279   0.60778   0.19248   0.00000  Uiso   1.00
H373   H     0.86004   0.89261   0.32182   0.00000  Uiso   1.00
H374   H     0.86122   0.52650   0.19027   0.00000  Uiso   1.00
H375   H     0.84826   0.97333   0.32011   0.00000  Uiso   1.00
H376   H     0.75628   0.72358   0.11264   0.00000  Uiso   1.00
N377   N     0.83333   0.74999   0.12624   0.00000  Uiso   1.00
N378   N     0.83333   0.75001   0.37377   0.00000  Uiso   1.00
O379   O     0.83334   0.68453   0.28974   0.00000  Uiso   1.00
O380   O     0.76825   0.96973   0.16416   0.00000  Uiso   1.00
O381   O     0.73982   0.72624   0.02098   0.00000  Uiso   1.00
O382   O     0.85875   0.82835   0.47331   0.00000  Uiso   1.00
O383   O     0.91666   0.78769   0.13399   0.00000  Uiso   1.00
O384   O     0.79261   0.67761   0.37134   0.00000  Uiso   1.00
O385   O     0.92506   0.77453   0.04242   0.00000  Uiso   1.00
O386   O     0.80751   0.67273   0.47091   0.00000  Uiso   1.00
O387   O     0.83333   0.81546   0.21026   0.00000  Uiso   1.00
O388   O     0.83334   0.68453   0.21026   0.00000  Uiso   1.00
O389   O     0.83333   0.81547   0.28974   0.00000  Uiso   1.00
O390   O     0.75725   0.75000   0.28045   0.00000  Uiso   1.00
O391   O     0.90942   0.75000   0.21956   0.00000  Uiso   1.00
O392   O     0.75725   0.74999   0.20097   0.00000  Uiso   1.00
O393   O     0.90942   0.75000   0.29904   0.00000  Uiso   1.00
O394   O     0.75838   0.52619   0.30861   0.00000  Uiso   1.00
Zn395  Zn    0.83333   0.75000   0.30307   0.00000  Uiso   1.00
Zn396  Zn    0.83333   0.74999   0.19693   0.00000  Uiso   1.00
C397   C     0.16598   0.16384   0.75022   0.00000  Uiso   1.00
C398   C     0.15262   0.21136   0.94686   0.00000  Uiso   1.00
C399   C     0.16602   0.25011   0.52648   0.00000  Uiso   1.00
C400   C     0.16621   0.25038   0.97314   0.00000  Uiso   1.00
C401   C     0.06712   0.24975   0.73767   0.00000  Uiso   1.00
C402   C     0.26623   0.24994   0.76234   0.00000  Uiso   1.00
C403   C     0.01218   0.24916   0.73102   0.00000  Uiso   1.00
C404   C     0.32120   0.24993   0.76906   0.00000  Uiso   1.00
C405   C     0.12197   0.04836   0.77902   0.00000  Uiso   1.00
C406   C     0.12681   0.45087   0.70569   0.00000  Uiso   1.00
C407   C     0.12996   0.09466   0.78087   0.00000  Uiso   1.00
C408   C     0.16591   0.33620   0.74957   0.00000  Uiso   1.00
C409   C     0.13583   0.40516   0.70661   0.00000  Uiso   1.00
C410   C     0.16043   0.11585   0.74992   0.00000  Uiso   1.00
C411   C     0.15986   0.38414   0.74824   0.00000  Uiso   1.00
C412   C     0.18271   0.09142   0.71665   0.00000  Uiso   1.00
C413   C     0.17492   0.40863   0.78941   0.00000  Uiso   1.00
C414   C     0.17569   0.04553   0.71505   0.00000  Uiso   1.00
C415   C     0.16747   0.45431   0.78865   0.00000  Uiso   1.00
C416   C     0.14553   0.02409   0.74608   0.00000  Uiso   1.00
C417   C     0.14408   0.47565   0.74702   0.00000  Uiso   1.00
C418   C     0.12080   0.23691   0.54734   0.00000  Uiso   1.00
C419   C     0.18027   0.28926   0.94852   0.00000  Uiso   1.00
C420   C     0.12349   0.23512   0.59718   0.00000  Uiso   1.00
C421   C     0.18193   0.28755   0.89897   0.00000  Uiso   1.00
C422   C     0.20894   0.26656   0.60670   0.00000  Uiso   1.00
C423   C     0.14939   0.21297   0.89668   0.00000  Uiso   1.00
C424   C     0.21134   0.26329   0.55782   0.00000  Uiso   1.00
H425   H     0.32523   0.24807   0.69487   0.00000  Uiso   1.00
H426   H     0.19426   0.31682   0.88038   0.00000  Uiso   1.00
H427   H     0.07839   0.04828   0.82951   0.00000  Uiso   1.00
H428   H     0.08974   0.00016   0.67053   0.00000  Uiso   1.00
H429   H     0.07223   0.23848   0.98839   0.00000  Uiso   1.00
H430   H     0.20097   0.35220   0.95103   0.00000  Uiso   1.00
H431   H     0.23482   0.30459   0.65819   0.00000  Uiso   1.00
H432   H     0.10455   0.19061   0.84296   0.00000  Uiso   1.00
H433   H     0.26001   0.26018   0.51159   0.00000  Uiso   1.00
H434   H     0.13543   0.14738   0.94869   0.00000  Uiso   1.00
H435   H     0.00821   0.25078   0.80525   0.00000  Uiso   1.00
H436   H     0.11161   0.11412   0.80556   0.00000  Uiso   1.00
H437   H     0.12284   0.38593   0.67504   0.00000  Uiso   1.00
H438   H     0.20612   0.10778   0.69248   0.00000  Uiso   1.00
H439   H     0.19338   0.39261   0.82182   0.00000  Uiso   1.00
H440   H     0.19456   0.02650   0.69027   0.00000  Uiso   1.00
H441   H     0.18159   0.47333   0.82011   0.00000  Uiso   1.00
H442   H     0.08961   0.22358   0.61264   0.00000  Uiso   1.00
N443   N     0.16667   0.24999   0.62624   0.00000  Uiso   1.00
N444   N     0.16667   0.25001   0.87377   0.00000  Uiso   1.00
O445   O     0.16667   0.18453   0.78974   0.00000  Uiso   1.00
O446   O     0.10158   0.46973   0.66416   0.00000  Uiso   1.00
O447   O     0.07315   0.22624   0.52098   0.00000  Uiso   1.00
O448   O     0.19208   0.32835   0.97331   0.00000  Uiso   1.00
O449   O     0.24999   0.28769   0.63399   0.00000  Uiso   1.00
O450   O     0.12595   0.17761   0.87134   0.00000  Uiso   1.00
O451   O     0.25840   0.27453   0.54242   0.00000  Uiso   1.00
O452   O     0.14084   0.17273   0.97091   0.00000  Uiso   1.00
O453   O     0.16666   0.31546   0.71026   0.00000  Uiso   1.00
O454   O     0.16667   0.18453   0.71026   0.00000  Uiso   1.00
O455   O     0.16666   0.31547   0.78974   0.00000  Uiso   1.00
O456   O     0.09058   0.25000   0.78045   0.00000  Uiso   1.00
O457   O     0.24275   0.25000   0.71956   0.00000  Uiso   1.00
O458   O     0.09058   0.24999   0.70097   0.00000  Uiso   1.00
O459   O     0.24275   0.25000   0.79904   0.00000  Uiso   1.00
O460   O     0.09171   0.02619   0.80861   0.00000  Uiso   1.00
Zn461  Zn    0.16667   0.25000   0.80307   0.00000  Uiso   1.00
Zn462  Zn    0.16667   0.24999   0.69693   0.00000  Uiso   1.00
C463   C     0.49931   0.16384   0.75022   0.00000  Uiso   1.00
C464   C     0.48595   0.21136   0.94686   0.00000  Uiso   1.00
C465   C     0.49936   0.25011   0.52648   0.00000  Uiso   1.00
C466   C     0.49955   0.25038   0.97314   0.00000  Uiso   1.00
C467   C     0.40045   0.24975   0.73767   0.00000  Uiso   1.00
C468   C     0.59956   0.24994   0.76234   0.00000  Uiso   1.00
C469   C     0.34551   0.24916   0.73102   0.00000  Uiso   1.00
C470   C     0.65453   0.24993   0.76906   0.00000  Uiso   1.00
C471   C     0.45531   0.04836   0.77902   0.00000  Uiso   1.00
C472   C     0.46015   0.45087   0.70569   0.00000  Uiso   1.00
C473   C     0.46329   0.09466   0.78087   0.00000  Uiso   1.00
C474   C     0.49925   0.33620   0.74957   0.00000  Uiso   1.00
C475   C     0.46917   0.40516   0.70661   0.00000  Uiso   1.00
C476   C     0.49376   0.11585   0.74992   0.00000  Uiso   1.00
C477   C     0.49319   0.38414   0.74824   0.00000  Uiso   1.00
C478   C     0.51605   0.09142   0.71665   0.00000  Uiso   1.00
C479   C     0.50825   0.40863   0.78941   0.00000  Uiso   1.00
C480   C     0.50902   0.04553   0.71505   0.00000  Uiso   1.00
C481   C     0.50080   0.45431   0.78865   0.00000  Uiso   1.00
C482   C     0.47886   0.02409   0.74608   0.00000  Uiso   1.00
C483   C     0.47741   0.47565   0.74702   0.00000  Uiso   1.00
C484   C     0.45413   0.23691   0.54734   0.00000  Uiso   1.00
C485   C     0.51361   0.28926   0.94852   0.00000  Uiso   1.00
C486   C     0.45682   0.23512   0.59718   0.00000  Uiso   1.00
C487   C     0.51526   0.28755   0.89897   0.00000  Uiso   1.00
C488   C     0.54228   0.26656   0.60670   0.00000  Uiso   1.00
C489   C     0.48272   0.21297   0.89668   0.00000  Uiso   1.00
C490   C     0.54467   0.26329   0.55782   0.00000  Uiso   1.00
H491   H     0.65856   0.24807   0.69487   0.00000  Uiso   1.00
H492   H     0.52759   0.31682   0.88038   0.00000  Uiso   1.00
H493   H     0.41172   0.04828   0.82951   0.00000  Uiso   1.00
H494   H     0.42307   0.00016   0.67053   0.00000  Uiso   1.00
H495   H     0.40557   0.23848   0.98839   0.00000  Uiso   1.00
H496   H     0.53430   0.35220   0.95103   0.00000  Uiso   1.00
H497   H     0.56815   0.30459   0.65819   0.00000  Uiso   1.00
H498   H     0.43789   0.19061   0.84296   0.00000  Uiso   1.00
H499   H     0.59334   0.26018   0.51159   0.00000  Uiso   1.00
H500   H     0.46876   0.14738   0.94869   0.00000  Uiso   1.00
H501   H     0.34154   0.25078   0.80525   0.00000  Uiso   1.00
H502   H     0.44495   0.11412   0.80556   0.00000  Uiso   1.00
H503   H     0.45617   0.38593   0.67504   0.00000  Uiso   1.00
H504   H     0.53946   0.10778   0.69248   0.00000  Uiso   1.00
H505   H     0.52671   0.39261   0.82182   0.00000  Uiso   1.00
H506   H     0.52789   0.02650   0.69027   0.00000  Uiso   1.00
H507   H     0.51492   0.47333   0.82011   0.00000  Uiso   1.00
H508   H     0.42295   0.22358   0.61264   0.00000  Uiso   1.00
N509   N     0.50000   0.24999   0.62624   0.00000  Uiso   1.00
N510   N     0.50000   0.25001   0.87377   0.00000  Uiso   1.00
O511   O     0.50000   0.18453   0.78974   0.00000  Uiso   1.00
O512   O     0.43492   0.46973   0.66416   0.00000  Uiso   1.00
O513   O     0.40649   0.22624   0.52098   0.00000  Uiso   1.00
O514   O     0.52542   0.32835   0.97331   0.00000  Uiso   1.00
O515   O     0.58332   0.28769   0.63399   0.00000  Uiso   1.00
O516   O     0.45928   0.17761   0.87134   0.00000  Uiso   1.00
O517   O     0.59173   0.27453   0.54242   0.00000  Uiso   1.00
O518   O     0.47417   0.17273   0.97091   0.00000  Uiso   1.00
O519   O     0.50000   0.31546   0.71026   0.00000  Uiso   1.00
O520   O     0.50000   0.18453   0.71026   0.00000  Uiso   1.00
O521   O     0.50000   0.31547   0.78974   0.00000  Uiso   1.00
O522   O     0.42392   0.25000   0.78045   0.00000  Uiso   1.00
O523   O     0.57608   0.25000   0.71956   0.00000  Uiso   1.00
O524   O     0.42392   0.24999   0.70097   0.00000  Uiso   1.00
O525   O     0.57608   0.25000   0.79904   0.00000  Uiso   1.00
O526   O     0.42505   0.02619   0.80861   0.00000  Uiso   1.00
Zn527  Zn    0.50000   0.25000   0.80307   0.00000  Uiso   1.00
Zn528  Zn    0.50000   0.24999   0.69693   0.00000  Uiso   1.00
C529   C     0.83264   0.16384   0.75022   0.00000  Uiso   1.00
C530   C     0.81928   0.21136   0.94686   0.00000  Uiso   1.00
C531   C     0.83269   0.25011   0.52648   0.00000  Uiso   1.00
C532   C     0.83288   0.25038   0.97314   0.00000  Uiso   1.00
C533   C     0.73378   0.24975   0.73767   0.00000  Uiso   1.00
C534   C     0.93289   0.24994   0.76234   0.00000  Uiso   1.00
C535   C     0.67884   0.24916   0.73102   0.00000  Uiso   1.00
C536   C     0.98786   0.24993   0.76906   0.00000  Uiso   1.00
C537   C     0.78864   0.04836   0.77902   0.00000  Uiso   1.00
C538   C     0.79348   0.45087   0.70569   0.00000  Uiso   1.00
C539   C     0.79663   0.09466   0.78087   0.00000  Uiso   1.00
C540   C     0.83258   0.33620   0.74957   0.00000  Uiso   1.00
C541   C     0.80250   0.40516   0.70661   0.00000  Uiso   1.00
C542   C     0.82709   0.11585   0.74992   0.00000  Uiso   1.00
C543   C     0.82652   0.38414   0.74824   0.00000  Uiso   1.00
C544   C     0.84938   0.09142   0.71665   0.00000  Uiso   1.00
C545   C     0.84159   0.40863   0.78941   0.00000  Uiso   1.00
C546   C     0.84235   0.04553   0.71505   0.00000  Uiso   1.00
C547   C     0.83414   0.45431   0.78865   0.00000  Uiso   1.00
C548   C     0.81219   0.02409   0.74608   0.00000  Uiso   1.00
C549   C     0.81074   0.47565   0.74702   0.00000  Uiso   1.00
C550   C     0.78747   0.23691   0.54734   0.00000  Uiso   1.00
C551   C     0.84694   0.28926   0.94852   0.00000  Uiso   1.00
C552   C     0.79015   0.23512   0.59718   0.00000  Uiso   1.00
C553   C     0.84859   0.28755   0.89897   0.00000  Uiso   1.00
C554   C     0.87561   0.26656   0.60670   0.00000  Uiso   1.00
C555   C     0.81606   0.21297   0.89668   0.00000  Uiso   1.00
C556   C     0.87801   0.26329   0.55782   0.00000  Uiso   1.00
H557   H     0.99190   0.24807   0.69487   0.00000  Uiso   1.00
H558   H     0.86093   0.31682   0.88038   0.00000  Uiso   1.00
H559   H     0.74505   0.04828   0.82951   0.00000  Uiso   1.00
H560   H     0.75641   0.00016   0.67053   0.00000  Uiso   1.00
H561   H     0.73890   0.23848   0.98839   0.00000  Uiso   1.00
H562   H     0.86764   0.35220   0.95103   0.00000  Uiso   1.00
H563   H     0.90148   0.30459   0.65819   0.00000  Uiso   1.00
H564   H     0.77122   0.19061   0.84296   0.00000  Uiso   1.00
H565   H     0.92667   0.26018   0.51159   0.00000  Uiso   1.00
H566   H     0.80210   0.14738   0.94869   0.00000  Uiso   1.00
H567   H     0.67487   0.25078   0.80525   0.00000  Uiso   1.00
H568   H     0.77828   0.11412   0.80556   0.00000  Uiso   1.00
H569   H     0.78951   0.38593   0.67504   0.00000  Uiso   1.00
H570   H     0.87279   0.10778   0.69248   0.00000  Uiso   1.00
H571   H     0.86004   0.39261   0.82182   0.00000  Uiso   1.00
H572   H     0.86122   0.02650   0.69027   0.00000  Uiso   1.00
H573   H     0.84826   0.47333   0.82011   0.00000  Uiso   1.00
H574   H     0.75628   0.22358   0.61264   0.00000  Uiso   1.00
N575   N     0.83333   0.24999   0.62624   0.00000  Uiso   1.00
N576   N     0.83333   0.25001   0.87377   0.00000  Uiso   1.00
O577   O     0.83334   0.18453   0.78974   0.00000  Uiso   1.00
O578   O     0.76825   0.46973   0.66416   0.00000  Uiso   1.00
O579   O     0.73982   0.22624   0.52098   0.00000  Uiso   1.00
O580   O     0.85875   0.32835   0.97331   0.00000  Uiso   1.00
O581   O     0.91666   0.28769   0.63399   0.00000  Uiso   1.00
O582   O     0.79261   0.17761   0.87134   0.00000  Uiso   1.00
O583   O     0.92506   0.27453   0.54242   0.00000  Uiso   1.00
O584   O     0.80751   0.17273   0.97091   0.00000  Uiso   1.00
O585   O     0.83333   0.31546   0.71026   0.00000  Uiso   1.00
O586   O     0.83334   0.18453   0.71026   0.00000  Uiso   1.00
O587   O     0.83333   0.31547   0.78974   0.00000  Uiso   1.00
O588   O     0.75725   0.25000   0.78045   0.00000  Uiso   1.00
O589   O     0.90942   0.25000   0.71956   0.00000  Uiso   1.00
O590   O     0.75725   0.24999   0.70097   0.00000  Uiso   1.00
O591   O     0.90942   0.25000   0.79904   0.00000  Uiso   1.00
O592   O     0.75838   0.02619   0.80861   0.00000  Uiso   1.00
Zn593  Zn    0.83333   0.25000   0.80307   0.00000  Uiso   1.00
Zn594  Zn    0.83333   0.24999   0.69693   0.00000  Uiso   1.00
C595   C     0.16598   0.66384   0.75022   0.00000  Uiso   1.00
C596   C     0.15262   0.71136   0.94686   0.00000  Uiso   1.00
C597   C     0.16602   0.75011   0.52648   0.00000  Uiso   1.00
C598   C     0.16621   0.75038   0.97314   0.00000  Uiso   1.00
C599   C     0.06712   0.74975   0.73767   0.00000  Uiso   1.00
C600   C     0.26623   0.74994   0.76234   0.00000  Uiso   1.00
C601   C     0.01218   0.74916   0.73102   0.00000  Uiso   1.00
C602   C     0.32120   0.74993   0.76906   0.00000  Uiso   1.00
C603   C     0.12197   0.54836   0.77902   0.00000  Uiso   1.00
C604   C     0.12681   0.95087   0.70569   0.00000  Uiso   1.00
C605   C     0.12996   0.59466   0.78087   0.00000  Uiso   1.00
C606   C     0.16591   0.83620   0.74957   0.00000  Uiso   1.00
C607   C     0.13583   0.90516   0.70661   0.00000  Uiso   1.00
C608   C     0.16043   0.61585   0.74992   0.00000  Uiso   1.00
C609   C     0.15986   0.88414   0.74824   0.00000  Uiso   1.00
C610   C     0.18271   0.59142   0.71665   0.00000  Uiso   1.00
C611   C     0.17492   0.90863   0.78941   0.00000  Uiso   1.00
C612   C     0.17569   0.54553   0.71505   0.00000  Uiso   1.00
C613   C     0.16747   0.95431   0.78865   0.00000  Uiso   1.00
C614   C     0.14553   0.52409   0.74608   0.00000  Uiso   1.00
C615   C     0.14408   0.97565   0.74702   0.00000  Uiso   1.00
C616   C     0.12080   0.73691   0.54734   0.00000  Uiso   1.00
C617   C     0.18027   0.78926   0.94852   0.00000  Uiso   1.00
C618   C     0.12349   0.73512   0.59718   0.00000  Uiso   1.00
C619   C     0.18193   0.78755   0.89897   0.00000  Uiso   1.00
C620   C     0.20894   0.76656   0.60670   0.00000  Uiso   1.00
C621   C     0.14939   0.71297   0.89668   0.00000  Uiso   1.00
C622   C     0.21134   0.76329   0.55782   0.00000  Uiso   1.00
H623   H     0.32523   0.74807   0.69487   0.00000  Uiso   1.00
H624   H     0.19426   0.81682   0.88038   0.00000  Uiso   1.00
H625   H     0.07839   0.54828   0.82951   0.00000  Uiso   1.00
H626   H     0.08974   0.50016   0.67053   0.00000  Uiso   1.00
H627   H     0.07223   0.73848   0.98839   0.00000  Uiso   1.00
H628   H     0.20097   0.85220   0.95103   0.00000  Uiso   1.00
H629   H     0.23482   0.80459   0.65819   0.00000  Uiso   1.00
H630   H     0.10455   0.69061   0.84296   0.00000  Uiso   1.00
H631   H     0.26001   0.76018   0.51159   0.00000  Uiso   1.00
H632   H     0.13543   0.64738   0.94869   0.00000  Uiso   1.00
H633   H     0.00821   0.75078   0.80525   0.00000  Uiso   1.00
H634   H     0.11161   0.61412   0.80556   0.00000  Uiso   1.00
H635   H     0.12284   0.88593   0.67504   0.00000  Uiso   1.00
H636   H     0.20612   0.60778   0.69248   0.00000  Uiso   1.00
H637   H     0.19338   0.89261   0.82182   0.00000  Uiso   1.00
H638   H     0.19456   0.52650   0.69027   0.00000  Uiso   1.00
H639   H     0.18159   0.97333   0.82011   0.00000  Uiso   1.00
H640   H     0.08961   0.72358   0.61264   0.00000  Uiso   1.00
N641   N     0.16667   0.74999   0.62624   0.00000  Uiso   1.00
N642   N     0.16667   0.75001   0.87377   0.00000  Uiso   1.00
O643   O     0.16667   0.68453   0.78974   0.00000  Uiso   1.00
O644   O     0.10158   0.96973   0.66416   0.00000  Uiso   1.00
O645   O     0.07315   0.72624   0.52098   0.00000  Uiso   1.00
O646   O     0.19208   0.82835   0.97331   0.00000  Uiso   1.00
O647   O     0.24999   0.78769   0.63399   0.00000  Uiso   1.00
O648   O     0.12595   0.67761   0.87134   0.00000  Uiso   1.00
O649   O     0.25840   0.77453   0.54242   0.00000  Uiso   1.00
O650   O     0.14084   0.67273   0.97091   0.00000  Uiso   1.00
O651   O     0.16666   0.81546   0.71026   0.00000  Uiso   1.00
O652   O     0.16667   0.68453   0.71026   0.00000  Uiso   1.00
O653   O     0.16666   0.81547   0.78974   0.00000  Uiso   1.00
O654   O     0.09058   0.75000   0.78045   0.00000  Uiso   1.00
O655   O     0.24275   0.75000   0.71956   0.00000  Uiso   1.00
O656   O     0.09058   0.74999   0.70097   0.00000  Uiso   1.00
O657   O     0.24275   0.75000   0.79904   0.00000  Uiso   1.00
O658   O     0.09171   0.52619   0.80861   0.00000  Uiso   1.00
Zn659  Zn    0.16667   0.75000   0.80307   0.00000  Uiso   1.00
Zn660  Zn    0.16667   0.74999   0.69693   0.00000  Uiso   1.00
C661   C     0.49931   0.66384   0.75022   0.00000  Uiso   1.00
C662   C     0.48595   0.71136   0.94686   0.00000  Uiso   1.00
C663   C     0.49936   0.75011   0.52648   0.00000  Uiso   1.00
C664   C     0.49955   0.75038   0.97314   0.00000  Uiso   1.00
C665   C     0.40045   0.74975   0.73767   0.00000  Uiso   1.00
C666   C     0.59956   0.74994   0.76234   0.00000  Uiso   1.00
C667   C     0.34551   0.74916   0.73102   0.00000  Uiso   1.00
C668   C     0.65453   0.74993   0.76906   0.00000  Uiso   1.00
C669   C     0.45531   0.54836   0.77902   0.00000  Uiso   1.00
C670   C     0.46015   0.95087   0.70569   0.00000  Uiso   1.00
C671   C     0.46329   0.59466   0.78087   0.00000  Uiso   1.00
C672   C     0.49925   0.83620   0.74957   0.00000  Uiso   1.00
C673   C     0.46917   0.90516   0.70661   0.00000  Uiso   1.00
C674   C     0.49376   0.61585   0.74992   0.00000  Uiso   1.00
C675   C     0.49319   0.88414   0.74824   0.00000  Uiso   1.00
C676   C     0.51605   0.59142   0.71665   0.00000  Uiso   1.00
C677   C     0.50825   0.90863   0.78941   0.00000  Uiso   1.00
C678   C     0.50902   0.54553   0.71505   0.00000  Uiso   1.00
C679   C     0.50080   0.95431   0.78865   0.00000  Uiso   1.00
C680   C     0.47886   0.52409   0.74608   0.00000  Uiso   1.00
C681   C     0.47741   0.97565   0.74702   0.00000  Uiso   1.00
C682   C     0.45413   0.73691   0.54734   0.00000  Uiso   1.00
C683   C     0.51361   0.78926   0.94852   0.00000  Uiso   1.00
C684   C     0.45682   0.73512   0.59718   0.00000  Uiso   1.00
C685   C     0.51526   0.78755   0.89897   0.00000  Uiso   1.00
C686   C     0.54228   0.76656   0.60670   0.00000  Uiso   1.00
C687   C     0.48272   0.71297   0.89668   0.00000  Uiso   1.00
C688   C     0.54467   0.76329   0.55782   0.00000  Uiso   1.00
H689   H     0.65856   0.74807   0.69487   0.00000  Uiso   1.00
H690   H     0.52759   0.81682   0.88038   0.00000  Uiso   1.00
H691   H     0.41172   0.54828   0.82951   0.00000  Uiso   1.00
H692   H     0.42307   0.50016   0.67053   0.00000  Uiso   1.00
H693   H     0.40557   0.73848   0.98839   0.00000  Uiso   1.00
H694   H     0.53430   0.85220   0.95103   0.00000  Uiso   1.00
H695   H     0.56815   0.80459   0.65819   0.00000  Uiso   1.00
H696   H     0.43789   0.69061   0.84296   0.00000  Uiso   1.00
H697   H     0.59334   0.76018   0.51159   0.00000  Uiso   1.00
H698   H     0.46876   0.64738   0.94869   0.00000  Uiso   1.00
H699   H     0.34154   0.75078   0.80525   0.00000  Uiso   1.00
H700   H     0.44495   0.61412   0.80556   0.00000  Uiso   1.00
H701   H     0.45617   0.88593   0.67504   0.00000  Uiso   1.00
H702   H     0.53946   0.60778   0.69248   0.00000  Uiso   1.00
H703   H     0.52671   0.89261   0.82182   0.00000  Uiso   1.00
H704   H     0.52789   0.52650   0.69027   0.00000  Uiso   1.00
H705   H     0.51492   0.97333   0.82011   0.00000  Uiso   1.00
H706   H     0.42295   0.72358   0.61264   0.00000  Uiso   1.00
N707   N     0.50000   0.74999   0.62624   0.00000  Uiso   1.00
N708   N     0.50000   0.75001   0.87377   0.00000  Uiso   1.00
O709   O     0.50000   0.68453   0.78974   0.00000  Uiso   1.00
O710   O     0.43492   0.96973   0.66416   0.00000  Uiso   1.00
O711   O     0.40649   0.72624   0.52098   0.00000  Uiso   1.00
O712   O     0.52542   0.82835   0.97331   0.00000  Uiso   1.00
O713   O     0.58332   0.78769   0.63399   0.00000  Uiso   1.00
O714   O     0.45928   0.67761   0.87134   0.00000  Uiso   1.00
O715   O     0.59173   0.77453   0.54242   0.00000  Uiso   1.00
O716   O     0.47417   0.67273   0.97091   0.00000  Uiso   1.00
O717   O     0.50000   0.81546   0.71026   0.00000  Uiso   1.00
O718   O     0.50000   0.68453   0.71026   0.00000  Uiso   1.00
O719   O     0.50000   0.81547   0.78974   0.00000  Uiso   1.00
O720   O     0.42392   0.75000   0.78045   0.00000  Uiso   1.00
O721   O     0.57608   0.75000   0.71956   0.00000  Uiso   1.00
O722   O     0.42392   0.74999   0.70097   0.00000  Uiso   1.00
O723   O     0.57608   0.75000   0.79904   0.00000  Uiso   1.00
O724   O     0.42505   0.52619   0.80861   0.00000  Uiso   1.00
Zn725  Zn    0.50000   0.75000   0.80307   0.00000  Uiso   1.00
Zn726  Zn    0.50000   0.74999   0.69693   0.00000  Uiso   1.00
C727   C     0.83264   0.66384   0.75022   0.00000  Uiso   1.00
C728   C     0.81928   0.71136   0.94686   0.00000  Uiso   1.00
C729   C     0.83269   0.75011   0.52648   0.00000  Uiso   1.00
C730   C     0.83288   0.75038   0.97314   0.00000  Uiso   1.00
C731   C     0.73378   0.74975   0.73767   0.00000  Uiso   1.00
C732   C     0.93289   0.74994   0.76234   0.00000  Uiso   1.00
C733   C     0.67884   0.74916   0.73102   0.00000  Uiso   1.00
C734   C     0.98786   0.74993   0.76906   0.00000  Uiso   1.00
C735   C     0.78864   0.54836   0.77902   0.00000  Uiso   1.00
C736   C     0.79348   0.95087   0.70569   0.00000  Uiso   1.00
C737   C     0.79663   0.59466   0.78087   0.00000  Uiso   1.00
C738   C     0.83258   0.83620   0.74957   0.00000  Uiso   1.00
C739   C     0.80250   0.90516   0.70661   0.00000  Uiso   1.00
C740   C     0.82709   0.61585   0.74992   0.00000  Uiso   1.00
C741   C     0.82652   0.88414   0.74824   0.00000  Uiso   1.00
C742   C     0.84938   0.59142   0.71665   0.00000  Uiso   1.00
C743   C     0.84159   0.90863   0.78941   0.00000  Uiso   1.00
C744   C     0.84235   0.54553   0.71505   0.00000  Uiso   1.00
C745   C     0.83414   0.95431   0.78865   0.00000  Uiso   1.00
C746   C     0.81219   0.52409   0.74608   0.00000  Uiso   1.00
C747   C     0.81074   0.97565   0.74702   0.00000  Uiso   1.00
C748   C     0.78747   0.73691   0.54734   0.00000  Uiso   1.00
C749   C     0.84694   0.78926   0.94852   0.00000  Uiso   1.00
C750   C     0.79015   0.73512   0.59718   0.00000  Uiso   1.00
C751   C     0.84859   0.78755   0.89897   0.00000  Uiso   1.00
C752   C     0.87561   0.76656   0.60670   0.00000  Uiso   1.00
C753   C     0.81606   0.71297   0.89668   0.00000  Uiso   1.00
C754   C     0.87801   0.76329   0.55782   0.00000  Uiso   1.00
H755   H     0.99190   0.74807   0.69487   0.00000  Uiso   1.00
H756   H     0.86093   0.81682   0.88038   0.00000  Uiso   1.00
H757   H     0.74505   0.54828   0.82951   0.00000  Uiso   1.00
H758   H     0.75641   0.50016   0.67053   0.00000  Uiso   1.00
H759   H     0.73890   0.73848   0.98839   0.00000  Uiso   1.00
H760   H     0.86764   0.85220   0.95103   0.00000  Uiso   1.00
H761   H     0.90148   0.80459   0.65819   0.00000  Uiso   1.00
H762   H     0.77122   0.69061   0.84296   0.00000  Uiso   1.00
H763   H     0.92667   0.76018   0.51159   0.00000  Uiso   1.00
H764   H     0.80210   0.64738   0.94869   0.00000  Uiso   1.00
H765   H     0.67487   0.75078   0.80525   0.00000  Uiso   1.00
H766   H     0.77828   0.61412   0.80556   0.00000  Uiso   1.00
H767   H     0.78951   0.88593   0.67504   0.00000  Uiso   1.00
H768   H     0.87279   0.60778   0.69248   0.00000  Uiso   1.00
H769   H     0.86004   0.89261   0.82182   0.00000  Uiso   1.00
H770   H     0.86122   0.52650   0.69027   0.00000  Uiso   1.00
H771   H     0.84826   0.97333   0.82011   0.00000  Uiso   1.00
H772   H     0.75628   0.72358   0.61264   0.00000  Uiso   1.00
N773   N     0.83333   0.74999   0.62624   0.00000  Uiso   1.00
N774   N     0.83333   0.75001   0.87377   0.00000  Uiso   1.00
O775   O     0.83334   0.68453   0.78974   0.00000  Uiso   1.00
O776   O     0.76825   0.96973   0.66416   0.00000  Uiso   1.00
O777   O     0.73982   0.72624   0.52098   0.00000  Uiso   1.00
O778   O     0.85875   0.82835   0.97331   0.00000  Uiso   1.00
O779   O     0.91666   0.78769   0.63399   0.00000  Uiso   1.00
O780   O     0.79261   0.67761   0.87134   0.00000  Uiso   1.00
O781   O     0.92506   0.77453   0.54242   0.00000  Uiso   1.00
O782   O     0.80751   0.67273   0.97091   0.00000  Uiso   1.00
O783   O     0.83333   0.81546   0.71026   0.00000  Uiso   1.00
O784   O     0.83334   0.68453   0.71026   0.00000  Uiso   1.00
O785   O     0.83333   0.81547   0.78974   0.00000  Uiso   1.00
O786   O     0.75725   0.75000   0.78045   0.00000  Uiso   1.00
O787   O     0.90942   0.75000   0.71956   0.00000  Uiso   1.00
O788   O     0.75725   0.74999   0.70097   0.00000  Uiso   1.00
O789   O     0.90942   0.75000   0.79904   0.00000  Uiso   1.00
O790   O     0.75838   0.52619   0.80861   0.00000  Uiso   1.00
Zn791  Zn    0.83333   0.75000   0.80307   0.00000  Uiso   1.00
Zn792  Zn    0.83333   0.74999   0.69693   0.00000  Uiso   1.00
loop_
_geom_bond_atom_site_label_1
_geom_bond_atom_site_label_2
_geom_bond_distance
_geom_bond_site_symmetry_2
_ccdc_geom_bond_type
C1     O58     1.288   .     A
C1     C14     1.437   .     S
C1     O49     1.290   .     A
C2     C4      1.407   .     A
C2     C27     1.420   .     A
C2     O56     1.383   .     S
C3     C28     1.420   .     A
C3     C22     1.429   .     A
C3     C400    1.519   1_554 S
C4     C23     1.415   .     A
C4     C399    1.519   .     S
C5     O62     1.280   .     A
C5     C7      1.401   .     S
C5     O60     1.280   .     A
C6     O63     1.280   .     A
C6     O61     1.281   .     A
C6     C8      1.402   .     S
C7     C140    1.327   1_455 S
C7     H161    1.087   1_455 S
C8     C73     1.327   .     S
C8     H105    1.088   .     S
C9     O64     1.382   .     S
C9     C11     1.395   .     A
C9     C20     1.403   .     A
C10    C21     1.414   .     A
C10    O50     1.381   .     S
C10    C13     1.386   .     A
C11    H40     1.082   .     S
C11    C14     1.399   .     A
C12    C15     1.440   .     S
C12    O57     1.291   .     A
C12    O59     1.289   .     A
C13    H41     1.084   .     S
C13    C15     1.400   .     A
C14    C16     1.396   .     A
C15    C17     1.396   .     A
C16    C18     1.380   .     A
C16    H42     1.084   .     S
C17    H43     1.084   .     S
C17    C19     1.379   .     A
C18    H44     1.084   .     S
C18    C20     1.399   .     A
C19    H45     1.084   .     S
C19    C21     1.399   .     A
C20    C219    1.445   1_545 S
C21    C218    1.445   .     S
C22    C24     1.411   .     A
C22    O51     1.381   .     S
C23    O52     1.381   .     S
C23    C25     1.420   .     A
C24    H46     1.082   .     S
C24    N47     1.362   .     A
C25    N48     1.363   .     A
C25    H30     1.081   .     S
C26    C28     1.407   .     A
C26    N47     1.374   .     A
C26    O53     1.372   .     S
C27    N48     1.375   .     A
C27    O54     1.372   .     S
C28    O55     1.382   .     S
H29    C73     1.087   .     S
H31    O64     0.992   .     S
H32    O248    0.990   1_545 S
H33    O447    0.989   .     S
H34    O52     0.992   .     S
H35    O53     0.988   .     S
H36    O54     0.988   .     S
H37    O55     0.989   .     S
H38    O56     0.990   .     S
H39    C140    1.088   1_455 S
N47    Zn66    2.013   .     S
N48    Zn65    2.013   .     S
O49    Zn65    1.996   .     S
O50    H230    0.990   .     S
O51    H429    0.989   1_554 S
O57    Zn66    1.996   .     S
O58    Zn66    1.984   .     S
O59    Zn65    1.984   .     S
O60    Zn65    1.974   .     S
O61    Zn66    1.974   .     S
O62    Zn66    1.980   .     S
O63    Zn65    1.980   .     S
C67    O124    1.288   .     A
C67    C80     1.437   .     S
C67    O115    1.290   .     A
C68    C70     1.407   .     A
C68    C93     1.420   .     A
C68    O122    1.383   .     S
C69    C94     1.420   .     A
C69    C88     1.429   .     A
C69    C466    1.519   1_554 S
C70    C89     1.415   .     A
C70    C465    1.519   .     S
C71    O128    1.280   .     A
C71    C73     1.401   .     S
C71    O126    1.280   .     A
C72    O129    1.280   .     A
C72    O127    1.281   .     A
C72    C74     1.402   .     S
C74    C139    1.327   .     S
C74    H171    1.088   .     S
C75    O130    1.382   .     S
C75    C77     1.395   .     A
C75    C86     1.403   .     A
C76    C87     1.414   .     A
C76    O116    1.381   .     S
C76    C79     1.386   .     A
C77    H106    1.082   .     S
C77    C80     1.399   .     A
C78    C81     1.440   .     S
C78    O123    1.291   .     A
C78    O125    1.289   .     A
C79    H107    1.084   .     S
C79    C81     1.400   .     A
C80    C82     1.396   .     A
C81    C83     1.396   .     A
C82    C84     1.380   .     A
C82    H108    1.084   .     S
C83    H109    1.084   .     S
C83    C85     1.379   .     A
C84    H110    1.084   .     S
C84    C86     1.399   .     A
C85    H111    1.084   .     S
C85    C87     1.399   .     A
C86    C285    1.445   1_545 S
C87    C284    1.445   .     S
C88    C90     1.411   .     A
C88    O117    1.381   .     S
C89    O118    1.381   .     S
C89    C91     1.420   .     A
C90    H112    1.082   .     S
C90    N113    1.362   .     A
C91    N114    1.363   .     A
C91    H96     1.081   .     S
C92    C94     1.407   .     A
C92    N113    1.374   .     A
C92    O119    1.372   .     S
C93    N114    1.375   .     A
C93    O120    1.372   .     S
C94    O121    1.382   .     S
H95    C139    1.087   .     S
H97    O130    0.992   .     S
H98    O314    0.990   1_545 S
H99    O513    0.989   .     S
H100   O118    0.992   .     S
H101   O119    0.988   .     S
H102   O120    0.988   .     S
H103   O121    0.989   .     S
H104   O122    0.990   .     S
N113   Zn132   2.013   .     S
N114   Zn131   2.013   .     S
O115   Zn131   1.996   .     S
O116   H296    0.990   .     S
O117   H495    0.989   1_554 S
O123   Zn132   1.996   .     S
O124   Zn132   1.984   .     S
O125   Zn131   1.984   .     S
O126   Zn131   1.974   .     S
O127   Zn132   1.974   .     S
O128   Zn132   1.980   .     S
O129   Zn131   1.980   .     S
C133   O190    1.288   .     A
C133   C146    1.437   .     S
C133   O181    1.290   .     A
C134   C136    1.407   .     A
C134   C159    1.420   .     A
C134   O188    1.383   .     S
C135   C160    1.420   .     A
C135   C154    1.429   .     A
C135   C532    1.519   1_554 S
C136   C155    1.415   .     A
C136   C531    1.519   .     S
C137   O194    1.280   .     A
C137   C139    1.401   .     S
C137   O192    1.280   .     A
C138   O195    1.280   .     A
C138   O193    1.281   .     A
C138   C140    1.402   .     S
C140   C7      1.327   1_655 S
C140   H39     1.088   1_655 S
C141   O196    1.382   .     S
C141   C143    1.395   .     A
C141   C152    1.403   .     A
C142   C153    1.414   .     A
C142   O182    1.381   .     S
C142   C145    1.386   .     A
C143   H172    1.082   .     S
C143   C146    1.399   .     A
C144   C147    1.440   .     S
C144   O189    1.291   .     A
C144   O191    1.289   .     A
C145   H173    1.084   .     S
C145   C147    1.400   .     A
C146   C148    1.396   .     A
C147   C149    1.396   .     A
C148   C150    1.380   .     A
C148   H174    1.084   .     S
C149   H175    1.084   .     S
C149   C151    1.379   .     A
C150   H176    1.084   .     S
C150   C152    1.399   .     A
C151   H177    1.084   .     S
C151   C153    1.399   .     A
C152   C351    1.445   1_545 S
C153   C350    1.445   .     S
C154   C156    1.411   .     A
C154   O183    1.381   .     S
C155   O184    1.381   .     S
C155   C157    1.420   .     A
C156   H178    1.082   .     S
C156   N179    1.362   .     A
C157   N180    1.363   .     A
C157   H162    1.081   .     S
C158   C160    1.407   .     A
C158   N179    1.374   .     A
C158   O185    1.372   .     S
C159   N180    1.375   .     A
C159   O186    1.372   .     S
C160   O187    1.382   .     S
H161   C7      1.087   1_655 S
H163   O196    0.992   .     S
H164   O380    0.990   1_545 S
H165   O579    0.989   .     S
H166   O184    0.992   .     S
H167   O185    0.988   .     S
H168   O186    0.988   .     S
H169   O187    0.989   .     S
H170   O188    0.990   .     S
N179   Zn198   2.013   .     S
N180   Zn197   2.013   .     S
O181   Zn197   1.996   .     S
O182   H362    0.990   .     S
O183   H561    0.989   1_554 S
O189   Zn198   1.996   .     S
O190   Zn198   1.984   .     S
O191   Zn197   1.984   .     S
O192   Zn197   1.974   .     S
O193   Zn198   1.974   .     S
O194   Zn198   1.980   .     S
O195   Zn197   1.980   .     S
C199   O256    1.288   .     A
C199   C212    1.437   .     S
C199   O247    1.290   .     A
C200   C202    1.407   .     A
C200   C225    1.420   .     A
C200   O254    1.383   .     S
C201   C226    1.420   .     A
C201   C220    1.429   .     A
C201   C598    1.519   1_554 S
C202   C221    1.415   .     A
C202   C597    1.519   .     S
C203   O260    1.280   .     A
C203   C205    1.401   .     S
C203   O258    1.280   .     A
C204   O261    1.280   .     A
C204   O259    1.281   .     A
C204   C206    1.402   .     S
C205   C338    1.327   1_455 S
C205   H359    1.087   1_455 S
C206   C271    1.327   .     S
C206   H303    1.088   .     S
C207   O262    1.382   .     S
C207   C209    1.395   .     A
C207   C218    1.403   .     A
C208   C219    1.414   .     A
C208   O248    1.381   .     S
C208   C211    1.386   .     A
C209   H238    1.082   .     S
C209   C212    1.399   .     A
C210   C213    1.440   .     S
C210   O255    1.291   .     A
C210   O257    1.289   .     A
C211   H239    1.084   .     S
C211   C213    1.400   .     A
C212   C214    1.396   .     A
C213   C215    1.396   .     A
C214   C216    1.380   .     A
C214   H240    1.084   .     S
C215   H241    1.084   .     S
C215   C217    1.379   .     A
C216   H242    1.084   .     S
C216   C218    1.399   .     A
C217   H243    1.084   .     S
C217   C219    1.399   .     A
C219   C20     1.445   1_565 S
C220   C222    1.411   .     A
C220   O249    1.381   .     S
C221   O250    1.381   .     S
C221   C223    1.420   .     A
C222   H244    1.082   .     S
C222   N245    1.362   .     A
C223   N246    1.363   .     A
C223   H228    1.081   .     S
C224   C226    1.407   .     A
C224   N245    1.374   .     A
C224   O251    1.372   .     S
C225   N246    1.375   .     A
C225   O252    1.372   .     S
C226   O253    1.382   .     S
H227   C271    1.087   .     S
H229   O262    0.992   .     S
H231   O645    0.989   .     S
H232   O250    0.992   .     S
H233   O251    0.988   .     S
H234   O252    0.988   .     S
H235   O253    0.989   .     S
H236   O254    0.990   .     S
H237   C338    1.088   1_455 S
N245   Zn264   2.013   .     S
N246   Zn263   2.013   .     S
O247   Zn263   1.996   .     S
O248   H32     0.990   1_565 S
O249   H627    0.989   1_554 S
O255   Zn264   1.996   .     S
O256   Zn264   1.984   .     S
O257   Zn263   1.984   .     S
O258   Zn263   1.974   .     S
O259   Zn264   1.974   .     S
O260   Zn264   1.980   .     S
O261   Zn263   1.980   .     S
C265   O322    1.288   .     A
C265   C278    1.437   .     S
C265   O313    1.290   .     A
C266   C268    1.407   .     A
C266   C291    1.420   .     A
C266   O320    1.383   .     S
C267   C292    1.420   .     A
C267   C286    1.429   .     A
C267   C664    1.519   1_554 S
C268   C287    1.415   .     A
C268   C663    1.519   .     S
C269   O326    1.280   .     A
C269   C271    1.401   .     S
C269   O324    1.280   .     A
C270   O327    1.280   .     A
C270   O325    1.281   .     A
C270   C272    1.402   .     S
C272   C337    1.327   .     S
C272   H369    1.088   .     S
C273   O328    1.382   .     S
C273   C275    1.395   .     A
C273   C284    1.403   .     A
C274   C285    1.414   .     A
C274   O314    1.381   .     S
C274   C277    1.386   .     A
C275   H304    1.082   .     S
C275   C278    1.399   .     A
C276   C279    1.440   .     S
C276   O321    1.291   .     A
C276   O323    1.289   .     A
C277   H305    1.084   .     S
C277   C279    1.400   .     A
C278   C280    1.396   .     A
C279   C281    1.396   .     A
C280   C282    1.380   .     A
C280   H306    1.084   .     S
C281   H307    1.084   .     S
C281   C283    1.379   .     A
C282   H308    1.084   .     S
C282   C284    1.399   .     A
C283   H309    1.084   .     S
C283   C285    1.399   .     A
C285   C86     1.445   1_565 S
C286   C288    1.411   .     A
C286   O315    1.381   .     S
C287   O316    1.381   .     S
C287   C289    1.420   .     A
C288   H310    1.082   .     S
C288   N311    1.362   .     A
C289   N312    1.363   .     A
C289   H294    1.081   .     S
C290   C292    1.407   .     A
C290   N311    1.374   .     A
C290   O317    1.372   .     S
C291   N312    1.375   .     A
C291   O318    1.372   .     S
C292   O319    1.382   .     S
H293   C337    1.087   .     S
H295   O328    0.992   .     S
H297   O711    0.989   .     S
H298   O316    0.992   .     S
H299   O317    0.988   .     S
H300   O318    0.988   .     S
H301   O319    0.989   .     S
H302   O320    0.990   .     S
N311   Zn330   2.013   .     S
N312   Zn329   2.013   .     S
O313   Zn329   1.996   .     S
O314   H98     0.990   1_565 S
O315   H693    0.989   1_554 S
O321   Zn330   1.996   .     S
O322   Zn330   1.984   .     S
O323   Zn329   1.984   .     S
O324   Zn329   1.974   .     S
O325   Zn330   1.974   .     S
O326   Zn330   1.980   .     S
O327   Zn329   1.980   .     S
C331   O388    1.288   .     A
C331   C344    1.437   .     S
C331   O379    1.290   .     A
C332   C334    1.407   .     A
C332   C357    1.420   .     A
C332   O386    1.383   .     S
C333   C358    1.420   .     A
C333   C352    1.429   .     A
C333   C730    1.519   1_554 S
C334   C353    1.415   .     A
C334   C729    1.519   .     S
C335   O392    1.280   .     A
C335   C337    1.401   .     S
C335   O390    1.280   .     A
C336   O393    1.280   .     A
C336   O391    1.281   .     A
C336   C338    1.402   .     S
C338   C205    1.327   1_655 S
C338   H237    1.088   1_655 S
C339   O394    1.382   .     S
C339   C341    1.395   .     A
C339   C350    1.403   .     A
C340   C351    1.414   .     A
C340   O380    1.381   .     S
C340   C343    1.386   .     A
C341   H370    1.082   .     S
C341   C344    1.399   .     A
C342   C345    1.440   .     S
C342   O387    1.291   .     A
C342   O389    1.289   .     A
C343   H371    1.084   .     S
C343   C345    1.400   .     A
C344   C346    1.396   .     A
C345   C347    1.396   .     A
C346   C348    1.380   .     A
C346   H372    1.084   .     S
C347   H373    1.084   .     S
C347   C349    1.379   .     A
C348   H374    1.084   .     S
C348   C350    1.399   .     A
C349   H375    1.084   .     S
C349   C351    1.399   .     A
C351   C152    1.445   1_565 S
C352   C354    1.411   .     A
C352   O381    1.381   .     S
C353   O382    1.381   .     S
C353   C355    1.420   .     A
C354   H376    1.082   .     S
C354   N377    1.362   .     A
C355   N378    1.363   .     A
C355   H360    1.081   .     S
C356   C358    1.407   .     A
C356   N377    1.374   .     A
C356   O383    1.372   .     S
C357   N378    1.375   .     A
C357   O384    1.372   .     S
C358   O385    1.382   .     S
H359   C205    1.087   1_655 S
H361   O394    0.992   .     S
H363   O777    0.989   .     S
H364   O382    0.992   .     S
H365   O383    0.988   .     S
H366   O384    0.988   .     S
H367   O385    0.989   .     S
H368   O386    0.990   .     S
N377   Zn396   2.013   .     S
N378   Zn395   2.013   .     S
O379   Zn395   1.996   .     S
O380   H164    0.990   1_565 S
O381   H759    0.989   1_554 S
O387   Zn396   1.996   .     S
O388   Zn396   1.984   .     S
O389   Zn395   1.984   .     S
O390   Zn395   1.974   .     S
O391   Zn396   1.974   .     S
O392   Zn396   1.980   .     S
O393   Zn395   1.980   .     S
C397   O454    1.288   .     A
C397   C410    1.437   .     S
C397   O445    1.290   .     A
C398   C400    1.407   .     A
C398   C423    1.420   .     A
C398   O452    1.383   .     S
C399   C424    1.420   .     A
C399   C418    1.429   .     A
C400   C419    1.415   .     A
C400   C3      1.519   1_556 S
C401   O458    1.280   .     A
C401   C403    1.401   .     S
C401   O456    1.280   .     A
C402   O459    1.280   .     A
C402   O457    1.281   .     A
C402   C404    1.402   .     S
C403   C536    1.327   1_455 S
C403   H557    1.087   1_455 S
C404   C469    1.327   .     S
C404   H501    1.088   .     S
C405   O460    1.382   .     S
C405   C407    1.395   .     A
C405   C416    1.403   .     A
C406   C417    1.414   .     A
C406   O446    1.381   .     S
C406   C409    1.386   .     A
C407   H436    1.082   .     S
C407   C410    1.399   .     A
C408   C411    1.440   .     S
C408   O453    1.291   .     A
C408   O455    1.289   .     A
C409   H437    1.084   .     S
C409   C411    1.400   .     A
C410   C412    1.396   .     A
C411   C413    1.396   .     A
C412   C414    1.380   .     A
C412   H438    1.084   .     S
C413   H439    1.084   .     S
C413   C415    1.379   .     A
C414   H440    1.084   .     S
C414   C416    1.399   .     A
C415   H441    1.084   .     S
C415   C417    1.399   .     A
C416   C615    1.445   1_545 S
C417   C614    1.445   .     S
C418   C420    1.411   .     A
C418   O447    1.381   .     S
C419   O448    1.381   .     S
C419   C421    1.420   .     A
C420   H442    1.082   .     S
C420   N443    1.362   .     A
C421   N444    1.363   .     A
C421   H426    1.081   .     S
C422   C424    1.407   .     A
C422   N443    1.374   .     A
C422   O449    1.372   .     S
C423   N444    1.375   .     A
C423   O450    1.372   .     S
C424   O451    1.382   .     S
H425   C469    1.087   .     S
H427   O460    0.992   .     S
H428   O644    0.990   1_545 S
H429   O51     0.989   1_556 S
H430   O448    0.992   .     S
H431   O449    0.988   .     S
H432   O450    0.988   .     S
H433   O451    0.989   .     S
H434   O452    0.990   .     S
H435   C536    1.088   1_455 S
N443   Zn462   2.013   .     S
N444   Zn461   2.013   .     S
O445   Zn461   1.996   .     S
O446   H626    0.990   .     S
O453   Zn462   1.996   .     S
O454   Zn462   1.984   .     S
O455   Zn461   1.984   .     S
O456   Zn461   1.974   .     S
O457   Zn462   1.974   .     S
O458   Zn462   1.980   .     S
O459   Zn461   1.980   .     S
C463   O520    1.288   .     A
C463   C476    1.437   .     S
C463   O511    1.290   .     A
C464   C466    1.407   .     A
C464   C489    1.420   .     A
C464   O518    1.383   .     S
C465   C490    1.420   .     A
C465   C484    1.429   .     A
C466   C485    1.415   .     A
C466   C69     1.519   1_556 S
C467   O524    1.280   .     A
C467   C469    1.401   .     S
C467   O522    1.280   .     A
C468   O525    1.280   .     A
C468   O523    1.281   .     A
C468   C470    1.402   .     S
C470   C535    1.327   .     S
C470   H567    1.088   .     S
C471   O526    1.382   .     S
C471   C473    1.395   .     A
C471   C482    1.403   .     A
C472   C483    1.414   .     A
C472   O512    1.381   .     S
C472   C475    1.386   .     A
C473   H502    1.082   .     S
C473   C476    1.399   .     A
C474   C477    1.440   .     S
C474   O519    1.291   .     A
C474   O521    1.289   .     A
C475   H503    1.084   .     S
C475   C477    1.400   .     A
C476   C478    1.396   .     A
C477   C479    1.396   .     A
C478   C480    1.380   .     A
C478   H504    1.084   .     S
C479   H505    1.084   .     S
C479   C481    1.379   .     A
C480   H506    1.084   .     S
C480   C482    1.399   .     A
C481   H507    1.084   .     S
C481   C483    1.399   .     A
C482   C681    1.445   1_545 S
C483   C680    1.445   .     S
C484   C486    1.411   .     A
C484   O513    1.381   .     S
C485   O514    1.381   .     S
C485   C487    1.420   .     A
C486   H508    1.082   .     S
C486   N509    1.362   .     A
C487   N510    1.363   .     A
C487   H492    1.081   .     S
C488   C490    1.407   .     A
C488   N509    1.374   .     A
C488   O515    1.372   .     S
C489   N510    1.375   .     A
C489   O516    1.372   .     S
C490   O517    1.382   .     S
H491   C535    1.087   .     S
H493   O526    0.992   .     S
H494   O710    0.990   1_545 S
H495   O117    0.989   1_556 S
H496   O514    0.992   .     S
H497   O515    0.988   .     S
H498   O516    0.988   .     S
H499   O517    0.989   .     S
H500   O518    0.990   .     S
N509   Zn528   2.013   .     S
N510   Zn527   2.013   .     S
O511   Zn527   1.996   .     S
O512   H692    0.990   .     S
O519   Zn528   1.996   .     S
O520   Zn528   1.984   .     S
O521   Zn527   1.984   .     S
O522   Zn527   1.974   .     S
O523   Zn528   1.974   .     S
O524   Zn528   1.980   .     S
O525   Zn527   1.980   .     S
C529   O586    1.288   .     A
C529   C542    1.437   .     S
C529   O577    1.290   .     A
C530   C532    1.407   .     A
C530   C555    1.420   .     A
C530   O584    1.383   .     S
C531   C556    1.420   .     A
C531   C550    1.429   .     A
C532   C551    1.415   .     A
C532   C135    1.519   1_556 S
C533   O590    1.280   .     A
C533   C535    1.401   .     S
C533   O588    1.280   .     A
C534   O591    1.280   .     A
C534   O589    1.281   .     A
C534   C536    1.402   .     S
C536   C403    1.327   1_655 S
C536   H435    1.088   1_655 S
C537   O592    1.382   .     S
C537   C539    1.395   .     A
C537   C548    1.403   .     A
C538   C549    1.414   .     A
C538   O578    1.381   .     S
C538   C541    1.386   .     A
C539   H568    1.082   .     S
C539   C542    1.399   .     A
C540   C543    1.440   .     S
C540   O585    1.291   .     A
C540   O587    1.289   .     A
C541   H569    1.084   .     S
C541   C543    1.400   .     A
C542   C544    1.396   .     A
C543   C545    1.396   .     A
C544   C546    1.380   .     A
C544   H570    1.084   .     S
C545   H571    1.084   .     S
C545   C547    1.379   .     A
C546   H572    1.084   .     S
C546   C548    1.399   .     A
C547   H573    1.084   .     S
C547   C549    1.399   .     A
C548   C747    1.445   1_545 S
C549   C746    1.445   .     S
C550   C552    1.411   .     A
C550   O579    1.381   .     S
C551   O580    1.381   .     S
C551   C553    1.420   .     A
C552   H574    1.082   .     S
C552   N575    1.362   .     A
C553   N576    1.363   .     A
C553   H558    1.081   .     S
C554   C556    1.407   .     A
C554   N575    1.374   .     A
C554   O581    1.372   .     S
C555   N576    1.375   .     A
C555   O582    1.372   .     S
C556   O583    1.382   .     S
H557   C403    1.087   1_655 S
H559   O592    0.992   .     S
H560   O776    0.990   1_545 S
H561   O183    0.989   1_556 S
H562   O580    0.992   .     S
H563   O581    0.988   .     S
H564   O582    0.988   .     S
H565   O583    0.989   .     S
H566   O584    0.990   .     S
N575   Zn594   2.013   .     S
N576   Zn593   2.013   .     S
O577   Zn593   1.996   .     S
O578   H758    0.990   .     S
O585   Zn594   1.996   .     S
O586   Zn594   1.984   .     S
O587   Zn593   1.984   .     S
O588   Zn593   1.974   .     S
O589   Zn594   1.974   .     S
O590   Zn594   1.980   .     S
O591   Zn593   1.980   .     S
C595   O652    1.288   .     A
C595   C608    1.437   .     S
C595   O643    1.290   .     A
C596   C598    1.407   .     A
C596   C621    1.420   .     A
C596   O650    1.383   .     S
C597   C622    1.420   .     A
C597   C616    1.429   .     A
C598   C617    1.415   .     A
C598   C201    1.519   1_556 S
C599   O656    1.280   .     A
C599   C601    1.401   .     S
C599   O654    1.280   .     A
C600   O657    1.280   .     A
C600   O655    1.281   .     A
C600   C602    1.402   .     S
C601   C734    1.327   1_455 S
C601   H755    1.087   1_455 S
C602   C667    1.327   .     S
C602   H699    1.088   .     S
C603   O658    1.382   .     S
C603   C605    1.395   .     A
C603   C614    1.403   .     A
C604   C615    1.414   .     A
C604   O644    1.381   .     S
C604   C607    1.386   .     A
C605   H634    1.082   .     S
C605   C608    1.399   .     A
C606   C609    1.440   .     S
C606   O651    1.291   .     A
C606   O653    1.289   .     A
C607   H635    1.084   .     S
C607   C609    1.400   .     A
C608   C610    1.396   .     A
C609   C611    1.396   .     A
C610   C612    1.380   .     A
C610   H636    1.084   .     S
C611   H637    1.084   .     S
C611   C613    1.379   .     A
C612   H638    1.084   .     S
C612   C614    1.399   .     A
C613   H639    1.084   .     S
C613   C615    1.399   .     A
C615   C416    1.445   1_565 S
C616   C618    1.411   .     A
C616   O645    1.381   .     S
C617   O646    1.381   .     S
C617   C619    1.420   .     A
C618   H640    1.082   .     S
C618   N641    1.362   .     A
C619   N642    1.363   .     A
C619   H624    1.081   .     S
C620   C622    1.407   .     A
C620   N641    1.374   .     A
C620   O647    1.372   .     S
C621   N642    1.375   .     A
C621   O648    1.372   .     S
C622   O649    1.382   .     S
H623   C667    1.087   .     S
H625   O658    0.992   .     S
H627   O249    0.989   1_556 S
H628   O646    0.992   .     S
H629   O647    0.988   .     S
H630   O648    0.988   .     S
H631   O649    0.989   .     S
H632   O650    0.990   .     S
H633   C734    1.088   1_455 S
N641   Zn660   2.013   .     S
N642   Zn659   2.013   .     S
O643   Zn659   1.996   .     S
O644   H428    0.990   1_565 S
O651   Zn660   1.996   .     S
O652   Zn660   1.984   .     S
O653   Zn659   1.984   .     S
O654   Zn659   1.974   .     S
O655   Zn660   1.974   .     S
O656   Zn660   1.980   .     S
O657   Zn659   1.980   .     S
C661   O718    1.288   .     A
C661   C674    1.437   .     S
C661   O709    1.290   .     A
C662   C664    1.407   .     A
C662   C687    1.420   .     A
C662   O716    1.383   .     S
C663   C688    1.420   .     A
C663   C682    1.429   .     A
C664   C683    1.415   .     A
C664   C267    1.519   1_556 S
C665   O722    1.280   .     A
C665   C667    1.401   .     S
C665   O720    1.280   .     A
C666   O723    1.280   .     A
C666   O721    1.281   .     A
C666   C668    1.402   .     S
C668   C733    1.327   .     S
C668   H765    1.088   .     S
C669   O724    1.382   .     S
C669   C671    1.395   .     A
C669   C680    1.403   .     A
C670   C681    1.414   .     A
C670   O710    1.381   .     S
C670   C673    1.386   .     A
C671   H700    1.082   .     S
C671   C674    1.399   .     A
C672   C675    1.440   .     S
C672   O717    1.291   .     A
C672   O719    1.289   .     A
C673   H701    1.084   .     S
C673   C675    1.400   .     A
C674   C676    1.396   .     A
C675   C677    1.396   .     A
C676   C678    1.380   .     A
C676   H702    1.084   .     S
C677   H703    1.084   .     S
C677   C679    1.379   .     A
C678   H704    1.084   .     S
C678   C680    1.399   .     A
C679   H705    1.084   .     S
C679   C681    1.399   .     A
C681   C482    1.445   1_565 S
C682   C684    1.411   .     A
C682   O711    1.381   .     S
C683   O712    1.381   .     S
C683   C685    1.420   .     A
C684   H706    1.082   .     S
C684   N707    1.362   .     A
C685   N708    1.363   .     A
C685   H690    1.081   .     S
C686   C688    1.407   .     A
C686   N707    1.374   .     A
C686   O713    1.372   .     S
C687   N708    1.375   .     A
C687   O714    1.372   .     S
C688   O715    1.382   .     S
H689   C733    1.087   .     S
H691   O724    0.992   .     S
H693   O315    0.989   1_556 S
H694   O712    0.992   .     S
H695   O713    0.988   .     S
H696   O714    0.988   .     S
H697   O715    0.989   .     S
H698   O716    0.990   .     S
N707   Zn726   2.013   .     S
N708   Zn725   2.013   .     S
O709   Zn725   1.996   .     S
O710   H494    0.990   1_565 S
O717   Zn726   1.996   .     S
O718   Zn726   1.984   .     S
O719   Zn725   1.984   .     S
O720   Zn725   1.974   .     S
O721   Zn726   1.974   .     S
O722   Zn726   1.980   .     S
O723   Zn725   1.980   .     S
C727   O784    1.288   .     A
C727   C740    1.437   .     S
C727   O775    1.290   .     A
C728   C730    1.407   .     A
C728   C753    1.420   .     A
C728   O782    1.383   .     S
C729   C754    1.420   .     A
C729   C748    1.429   .     A
C730   C749    1.415   .     A
C730   C333    1.519   1_556 S
C731   O788    1.280   .     A
C731   C733    1.401   .     S
C731   O786    1.280   .     A
C732   O789    1.280   .     A
C732   O787    1.281   .     A
C732   C734    1.402   .     S
C734   C601    1.327   1_655 S
C734   H633    1.088   1_655 S
C735   O790    1.382   .     S
C735   C737    1.395   .     A
C735   C746    1.403   .     A
C736   C747    1.414   .     A
C736   O776    1.381   .     S
C736   C739    1.386   .     A
C737   H766    1.082   .     S
C737   C740    1.399   .     A
C738   C741    1.440   .     S
C738   O783    1.291   .     A
C738   O785    1.289   .     A
C739   H767    1.084   .     S
C739   C741    1.400   .     A
C740   C742    1.396   .     A
C741   C743    1.396   .     A
C742   C744    1.380   .     A
C742   H768    1.084   .     S
C743   H769    1.084   .     S
C743   C745    1.379   .     A
C744   H770    1.084   .     S
C744   C746    1.399   .     A
C745   H771    1.084   .     S
C745   C747    1.399   .     A
C747   C548    1.445   1_565 S
C748   C750    1.411   .     A
C748   O777    1.381   .     S
C749   O778    1.381   .     S
C749   C751    1.420   .     A
C750   H772    1.082   .     S
C750   N773    1.362   .     A
C751   N774    1.363   .     A
C751   H756    1.081   .     S
C752   C754    1.407   .     A
C752   N773    1.374   .     A
C752   O779    1.372   .     S
C753   N774    1.375   .     A
C753   O780    1.372   .     S
C754   O781    1.382   .     S
H755   C601    1.087   1_655 S
H757   O790    0.992   .     S
H759   O381    0.989   1_556 S
H760   O778    0.992   .     S
H761   O779    0.988   .     S
H762   O780    0.988   .     S
H763   O781    0.989   .     S
H764   O782    0.990   .     S
N773   Zn792   2.013   .     S
N774   Zn791   2.013   .     S
O775   Zn791   1.996   .     S
O776   H560    0.990   1_565 S
O783   Zn792   1.996   .     S
O784   Zn792   1.984   .     S
O785   Zn791   1.984   .     S
O786   Zn791   1.974   .     S
O787   Zn792   1.974   .     S
O788   Zn792   1.980   .     S
O789   Zn791   1.980   .     S
