data_str_m1_o10_o18_pcu_sym.129
_audit_creation_date              2020-01-03
_audit_creation_method            'Materials Studio'
_symmetry_space_group_name_H-M    'P1'
_symmetry_Int_Tables_number       1
_symmetry_cell_setting            triclinic
loop_
_symmetry_equiv_pos_as_xyz
  x,y,z
_cell_length_a                    32.7138
_cell_length_b                    32.6661
_cell_length_c                    35.4241
_cell_angle_alpha                 98.1961
_cell_angle_beta                  72.8849
_cell_angle_gamma                 98.2087
loop_
_atom_site_label
_atom_site_type_symbol
_atom_site_fract_x
_atom_site_fract_y
_atom_site_fract_z
_atom_site_U_iso_or_equiv
_atom_site_adp_type
_atom_site_occupancy
C1     C     0.05274   0.15996   0.25902   0.00000  Uiso   1.00
C2     C     0.19785   0.12923   0.45798   0.00000  Uiso   1.00
C3     C     0.22375   0.11430   0.47652   0.00000  Uiso   1.00
C4     C     0.28103   0.17336   0.24123   0.00000  Uiso   1.00
C5     C     0.21467   0.11940   0.01800   0.00000  Uiso   1.00
C6     C     0.17612   0.13636   0.04077   0.00000  Uiso   1.00
C7     C     0.24335   0.10833   0.03718   0.00000  Uiso   1.00
C8     C     0.23470   0.11637   0.07877   0.00000  Uiso   1.00
C9     C     0.17016   0.14666   0.08174   0.00000  Uiso   1.00
C10    C     0.32692   0.17474   0.23717   0.00000  Uiso   1.00
C11    C     0.00747   0.15795   0.26338   0.00000  Uiso   1.00
C12    C     0.08368   0.19158   0.41985   0.00000  Uiso   1.00
C13    C     0.17979   0.32210   0.23922   0.00000  Uiso   1.00
C14    C     0.15059   0.01304   0.26324   0.00000  Uiso   1.00
C15    C     0.15644   0.05632   0.25858   0.00000  Uiso   1.00
C16    C     0.17661   0.27765   0.24158   0.00000  Uiso   1.00
C17    C     0.18813   0.14549   0.14390   0.00000  Uiso   1.00
C18    C     0.14466   0.18713   0.35659   0.00000  Uiso   1.00
C19    C     0.12763   0.18792   0.40053   0.00000  Uiso   1.00
C20    C     0.19817   0.13600   0.10073   0.00000  Uiso   1.00
C21    C     0.06655   0.18613   0.46032   0.00000  Uiso   1.00
C22    C     0.28167   0.08894   0.01448   0.00000  Uiso   1.00
C23    C     0.15433   0.18001   0.42282   0.00000  Uiso   1.00
C24    C     0.02374   0.19433   0.20404   0.00000  Uiso   1.00
C25    C     0.11261   0.33223   0.29354   0.00000  Uiso   1.00
C26    C     0.26328   0.10479   0.09901   0.00000  Uiso   1.00
C27    C     0.05473   0.20020   0.39851   0.00000  Uiso   1.00
C28    C     0.13596   0.16647   0.46118   0.00000  Uiso   1.00
C29    C     0.09217   0.17204   0.48139   0.00000  Uiso   1.00
C30    C     0.16071   0.14822   0.48006   0.00000  Uiso   1.00
C31    C     0.14620   0.14529   0.02145   0.00000  Uiso   1.00
C32    C     0.10192   0.14872   0.04102   0.00000  Uiso   1.00
C33    C     0.07545   0.16212   0.02129   0.00000  Uiso   1.00
H34    H     0.20704   0.00241   0.21704   0.00000  Uiso   1.00
H35    H     0.00345   0.16660   0.48619   0.00000  Uiso   1.00
H36    H     0.20542   0.22230   0.40264   0.00000  Uiso   1.00
H37    H     0.21360   0.17259   0.38342   0.00000  Uiso   1.00
H38    H     0.09553   0.10666   0.08152   0.00000  Uiso   1.00
H39    H     0.07776   0.15472   0.10163   0.00000  Uiso   1.00
H40    H     0.14486   0.16497   0.09928   0.00000  Uiso   1.00
H41    H     0.25182   0.10010   0.45787   0.00000  Uiso   1.00
H42    H     0.20620   0.12362   0.42600   0.00000  Uiso   1.00
H43    H     0.01681   0.13500   0.04992   0.00000  Uiso   1.00
H44    H     0.02892   0.18471   0.06841   0.00000  Uiso   1.00
H45    H     0.31817   0.15637   0.32293   0.00000  Uiso   1.00
H46    H     0.31888   0.10927   0.29603   0.00000  Uiso   1.00
H47    H     0.02078   0.21672   0.00286   0.00000  Uiso   1.00
N48    N     0.03095   0.16456   0.04234   0.00000  Uiso   1.00
N49    N     0.08050   0.13138   0.07786   0.00000  Uiso   1.00
N50    N     0.31223   0.07348   0.49639   0.00000  Uiso   1.00
N51    N     0.04776   0.20993   0.17766   0.00000  Uiso   1.00
N52    N     0.31194   0.13979   0.29735   0.00000  Uiso   1.00
N53    N     0.08224   0.32109   0.31776   0.00000  Uiso   1.00
N54    N     0.28605   0.09558   0.11522   0.00000  Uiso   1.00
N55    N     0.02260   0.19424   0.47844   0.00000  Uiso   1.00
N56    N     0.03150   0.20704   0.38161   0.00000  Uiso   1.00
N57    N     0.20001   0.19143   0.40918   0.00000  Uiso   1.00
O58    O     0.16667   0.16667   0.25000   0.00000  Uiso   1.00
O59    O     0.15693   0.12393   0.16625   0.00000  Uiso   1.00
O60    O     0.12687   0.20646   0.33749   0.00000  Uiso   1.00
O61    O     0.21088   0.17493   0.15877   0.00000  Uiso   1.00
O62    O     0.17198   0.16135   0.33749   0.00000  Uiso   1.00
O63    O     0.17849   0.08101   0.27821   0.00000  Uiso   1.00
O64    O     0.14581   0.26136   0.26767   0.00000  Uiso   1.00
O65    O     0.07452   0.13251   0.23607   0.00000  Uiso   1.00
O66    O     0.26785   0.19179   0.21806   0.00000  Uiso   1.00
O67    O     0.06990   0.18960   0.27820   0.00000  Uiso   1.00
O68    O     0.25440   0.15277   0.26768   0.00000  Uiso   1.00
O69    O     0.13800   0.06903   0.23607   0.00000  Uiso   1.00
O70    O     0.20437   0.25527   0.21806   0.00000  Uiso   1.00
Zn71   Zn    0.19244   0.14090   0.28278   0.00000  Uiso   1.00
Zn72   Zn    0.13459   0.12378   0.22258   0.00000  Uiso   1.00
Zn73   Zn    0.21166   0.19664   0.21188   0.00000  Uiso   1.00
Zn74   Zn    0.12798   0.20535   0.28277   0.00000  Uiso   1.00
C75    C     0.38607   0.15996   0.25902   0.00000  Uiso   1.00
C76    C     0.53118   0.12923   0.45798   0.00000  Uiso   1.00
C77    C     0.55708   0.11430   0.47652   0.00000  Uiso   1.00
C78    C     0.61436   0.17336   0.24123   0.00000  Uiso   1.00
C79    C     0.54800   0.11940   0.01800   0.00000  Uiso   1.00
C80    C     0.50946   0.13636   0.04077   0.00000  Uiso   1.00
C81    C     0.57668   0.10833   0.03718   0.00000  Uiso   1.00
C82    C     0.56803   0.11637   0.07877   0.00000  Uiso   1.00
C83    C     0.50349   0.14666   0.08174   0.00000  Uiso   1.00
C84    C     0.66026   0.17474   0.23717   0.00000  Uiso   1.00
C85    C     0.34080   0.15795   0.26338   0.00000  Uiso   1.00
C86    C     0.41701   0.19158   0.41985   0.00000  Uiso   1.00
C87    C     0.51312   0.32210   0.23922   0.00000  Uiso   1.00
C88    C     0.48393   0.01304   0.26324   0.00000  Uiso   1.00
C89    C     0.48977   0.05632   0.25858   0.00000  Uiso   1.00
C90    C     0.50994   0.27765   0.24158   0.00000  Uiso   1.00
C91    C     0.52146   0.14549   0.14390   0.00000  Uiso   1.00
C92    C     0.47799   0.18713   0.35659   0.00000  Uiso   1.00
C93    C     0.46096   0.18792   0.40053   0.00000  Uiso   1.00
C94    C     0.53150   0.13600   0.10073   0.00000  Uiso   1.00
C95    C     0.39989   0.18613   0.46032   0.00000  Uiso   1.00
C96    C     0.61500   0.08894   0.01448   0.00000  Uiso   1.00
C97    C     0.48766   0.18001   0.42282   0.00000  Uiso   1.00
C98    C     0.35707   0.19433   0.20404   0.00000  Uiso   1.00
C99    C     0.44594   0.33223   0.29354   0.00000  Uiso   1.00
C100   C     0.59661   0.10479   0.09901   0.00000  Uiso   1.00
C101   C     0.38806   0.20020   0.39851   0.00000  Uiso   1.00
C102   C     0.46930   0.16647   0.46118   0.00000  Uiso   1.00
C103   C     0.42550   0.17204   0.48139   0.00000  Uiso   1.00
C104   C     0.49405   0.14822   0.48006   0.00000  Uiso   1.00
C105   C     0.47954   0.14529   0.02145   0.00000  Uiso   1.00
C106   C     0.43525   0.14872   0.04102   0.00000  Uiso   1.00
C107   C     0.40878   0.16212   0.02129   0.00000  Uiso   1.00
H108   H     0.54037   0.00241   0.21704   0.00000  Uiso   1.00
H109   H     0.33678   0.16660   0.48619   0.00000  Uiso   1.00
H110   H     0.53876   0.22230   0.40264   0.00000  Uiso   1.00
H111   H     0.54693   0.17259   0.38342   0.00000  Uiso   1.00
H112   H     0.42886   0.10666   0.08152   0.00000  Uiso   1.00
H113   H     0.41109   0.15472   0.10163   0.00000  Uiso   1.00
H114   H     0.47820   0.16497   0.09928   0.00000  Uiso   1.00
H115   H     0.58516   0.10010   0.45787   0.00000  Uiso   1.00
H116   H     0.53954   0.12362   0.42600   0.00000  Uiso   1.00
H117   H     0.35015   0.13500   0.04992   0.00000  Uiso   1.00
H118   H     0.36225   0.18471   0.06841   0.00000  Uiso   1.00
H119   H     0.65151   0.15637   0.32293   0.00000  Uiso   1.00
H120   H     0.65222   0.10927   0.29603   0.00000  Uiso   1.00
H121   H     0.35411   0.21672   0.00286   0.00000  Uiso   1.00
N122   N     0.36428   0.16456   0.04234   0.00000  Uiso   1.00
N123   N     0.41384   0.13138   0.07786   0.00000  Uiso   1.00
N124   N     0.64556   0.07348   0.49639   0.00000  Uiso   1.00
N125   N     0.38109   0.20993   0.17766   0.00000  Uiso   1.00
N126   N     0.64527   0.13979   0.29735   0.00000  Uiso   1.00
N127   N     0.41557   0.32109   0.31776   0.00000  Uiso   1.00
N128   N     0.61938   0.09558   0.11522   0.00000  Uiso   1.00
N129   N     0.35594   0.19424   0.47844   0.00000  Uiso   1.00
N130   N     0.36483   0.20704   0.38161   0.00000  Uiso   1.00
N131   N     0.53335   0.19143   0.40918   0.00000  Uiso   1.00
O132   O     0.50000   0.16667   0.25000   0.00000  Uiso   1.00
O133   O     0.49027   0.12393   0.16625   0.00000  Uiso   1.00
O134   O     0.46020   0.20646   0.33749   0.00000  Uiso   1.00
O135   O     0.54421   0.17493   0.15877   0.00000  Uiso   1.00
O136   O     0.50532   0.16135   0.33749   0.00000  Uiso   1.00
O137   O     0.51182   0.08101   0.27821   0.00000  Uiso   1.00
O138   O     0.47914   0.26136   0.26767   0.00000  Uiso   1.00
O139   O     0.40785   0.13251   0.23607   0.00000  Uiso   1.00
O140   O     0.60119   0.19179   0.21806   0.00000  Uiso   1.00
O141   O     0.40323   0.18960   0.27820   0.00000  Uiso   1.00
O142   O     0.58773   0.15277   0.26768   0.00000  Uiso   1.00
O143   O     0.47133   0.06903   0.23607   0.00000  Uiso   1.00
O144   O     0.53771   0.25527   0.21806   0.00000  Uiso   1.00
Zn145  Zn    0.52577   0.14090   0.28278   0.00000  Uiso   1.00
Zn146  Zn    0.46792   0.12378   0.22258   0.00000  Uiso   1.00
Zn147  Zn    0.54500   0.19664   0.21188   0.00000  Uiso   1.00
Zn148  Zn    0.46131   0.20535   0.28277   0.00000  Uiso   1.00
C149   C     0.71941   0.15996   0.25902   0.00000  Uiso   1.00
C150   C     0.86452   0.12923   0.45798   0.00000  Uiso   1.00
C151   C     0.89042   0.11430   0.47652   0.00000  Uiso   1.00
C152   C     0.94769   0.17336   0.24123   0.00000  Uiso   1.00
C153   C     0.88133   0.11940   0.01800   0.00000  Uiso   1.00
C154   C     0.84279   0.13636   0.04077   0.00000  Uiso   1.00
C155   C     0.91001   0.10833   0.03718   0.00000  Uiso   1.00
C156   C     0.90137   0.11637   0.07877   0.00000  Uiso   1.00
C157   C     0.83682   0.14666   0.08174   0.00000  Uiso   1.00
C158   C     0.99359   0.17474   0.23717   0.00000  Uiso   1.00
C159   C     0.67414   0.15795   0.26338   0.00000  Uiso   1.00
C160   C     0.75035   0.19158   0.41985   0.00000  Uiso   1.00
C161   C     0.84646   0.32210   0.23922   0.00000  Uiso   1.00
C162   C     0.81726   0.01304   0.26324   0.00000  Uiso   1.00
C163   C     0.82310   0.05632   0.25858   0.00000  Uiso   1.00
C164   C     0.84328   0.27765   0.24158   0.00000  Uiso   1.00
C165   C     0.85480   0.14549   0.14390   0.00000  Uiso   1.00
C166   C     0.81133   0.18713   0.35659   0.00000  Uiso   1.00
C167   C     0.79429   0.18792   0.40053   0.00000  Uiso   1.00
C168   C     0.86483   0.13600   0.10073   0.00000  Uiso   1.00
C169   C     0.73322   0.18613   0.46032   0.00000  Uiso   1.00
C170   C     0.94834   0.08894   0.01448   0.00000  Uiso   1.00
C171   C     0.82100   0.18001   0.42282   0.00000  Uiso   1.00
C172   C     0.69040   0.19433   0.20404   0.00000  Uiso   1.00
C173   C     0.77928   0.33223   0.29354   0.00000  Uiso   1.00
C174   C     0.92995   0.10479   0.09901   0.00000  Uiso   1.00
C175   C     0.72139   0.20020   0.39851   0.00000  Uiso   1.00
C176   C     0.80263   0.16647   0.46118   0.00000  Uiso   1.00
C177   C     0.75884   0.17204   0.48139   0.00000  Uiso   1.00
C178   C     0.82738   0.14822   0.48006   0.00000  Uiso   1.00
C179   C     0.81287   0.14529   0.02145   0.00000  Uiso   1.00
C180   C     0.76859   0.14872   0.04102   0.00000  Uiso   1.00
C181   C     0.74211   0.16212   0.02129   0.00000  Uiso   1.00
H182   H     0.87370   0.00241   0.21704   0.00000  Uiso   1.00
H183   H     0.67012   0.16660   0.48619   0.00000  Uiso   1.00
H184   H     0.87209   0.22230   0.40264   0.00000  Uiso   1.00
H185   H     0.88027   0.17259   0.38342   0.00000  Uiso   1.00
H186   H     0.76219   0.10666   0.08152   0.00000  Uiso   1.00
H187   H     0.74443   0.15472   0.10163   0.00000  Uiso   1.00
H188   H     0.81153   0.16497   0.09928   0.00000  Uiso   1.00
H189   H     0.91849   0.10010   0.45787   0.00000  Uiso   1.00
H190   H     0.87287   0.12362   0.42600   0.00000  Uiso   1.00
H191   H     0.68348   0.13500   0.04992   0.00000  Uiso   1.00
H192   H     0.69558   0.18471   0.06841   0.00000  Uiso   1.00
H193   H     0.98484   0.15637   0.32293   0.00000  Uiso   1.00
H194   H     0.98555   0.10927   0.29603   0.00000  Uiso   1.00
H195   H     0.68745   0.21672   0.00286   0.00000  Uiso   1.00
N196   N     0.69762   0.16456   0.04234   0.00000  Uiso   1.00
N197   N     0.74717   0.13138   0.07786   0.00000  Uiso   1.00
N198   N     0.97889   0.07348   0.49639   0.00000  Uiso   1.00
N199   N     0.71443   0.20993   0.17766   0.00000  Uiso   1.00
N200   N     0.97861   0.13979   0.29735   0.00000  Uiso   1.00
N201   N     0.74890   0.32109   0.31776   0.00000  Uiso   1.00
N202   N     0.95271   0.09558   0.11522   0.00000  Uiso   1.00
N203   N     0.68927   0.19424   0.47844   0.00000  Uiso   1.00
N204   N     0.69817   0.20704   0.38161   0.00000  Uiso   1.00
N205   N     0.86668   0.19143   0.40918   0.00000  Uiso   1.00
O206   O     0.83333   0.16667   0.25000   0.00000  Uiso   1.00
O207   O     0.82360   0.12393   0.16625   0.00000  Uiso   1.00
O208   O     0.79354   0.20646   0.33749   0.00000  Uiso   1.00
O209   O     0.87755   0.17493   0.15877   0.00000  Uiso   1.00
O210   O     0.83865   0.16135   0.33749   0.00000  Uiso   1.00
O211   O     0.84515   0.08101   0.27821   0.00000  Uiso   1.00
O212   O     0.81247   0.26136   0.26767   0.00000  Uiso   1.00
O213   O     0.74119   0.13251   0.23607   0.00000  Uiso   1.00
O214   O     0.93452   0.19179   0.21806   0.00000  Uiso   1.00
O215   O     0.73656   0.18960   0.27820   0.00000  Uiso   1.00
O216   O     0.92106   0.15277   0.26768   0.00000  Uiso   1.00
O217   O     0.80467   0.06903   0.23607   0.00000  Uiso   1.00
O218   O     0.87104   0.25527   0.21806   0.00000  Uiso   1.00
Zn219  Zn    0.85910   0.14090   0.28278   0.00000  Uiso   1.00
Zn220  Zn    0.80125   0.12378   0.22258   0.00000  Uiso   1.00
Zn221  Zn    0.87833   0.19664   0.21188   0.00000  Uiso   1.00
Zn222  Zn    0.79465   0.20535   0.28277   0.00000  Uiso   1.00
C223   C     0.05274   0.49329   0.25902   0.00000  Uiso   1.00
C224   C     0.19785   0.46256   0.45798   0.00000  Uiso   1.00
C225   C     0.22375   0.44763   0.47652   0.00000  Uiso   1.00
C226   C     0.28103   0.50669   0.24123   0.00000  Uiso   1.00
C227   C     0.21467   0.45274   0.01800   0.00000  Uiso   1.00
C228   C     0.17612   0.46970   0.04077   0.00000  Uiso   1.00
C229   C     0.24335   0.44166   0.03718   0.00000  Uiso   1.00
C230   C     0.23470   0.44970   0.07877   0.00000  Uiso   1.00
C231   C     0.17016   0.48000   0.08174   0.00000  Uiso   1.00
C232   C     0.32692   0.50807   0.23717   0.00000  Uiso   1.00
C233   C     0.00747   0.49128   0.26338   0.00000  Uiso   1.00
C234   C     0.08368   0.52492   0.41985   0.00000  Uiso   1.00
C235   C     0.17979   0.65544   0.23922   0.00000  Uiso   1.00
C236   C     0.15059   0.34638   0.26324   0.00000  Uiso   1.00
C237   C     0.15644   0.38965   0.25858   0.00000  Uiso   1.00
C238   C     0.17661   0.61098   0.24158   0.00000  Uiso   1.00
C239   C     0.18813   0.47883   0.14390   0.00000  Uiso   1.00
C240   C     0.14466   0.52047   0.35659   0.00000  Uiso   1.00
C241   C     0.12763   0.52125   0.40053   0.00000  Uiso   1.00
C242   C     0.19817   0.46934   0.10073   0.00000  Uiso   1.00
C243   C     0.06655   0.51946   0.46032   0.00000  Uiso   1.00
C244   C     0.28167   0.42227   0.01448   0.00000  Uiso   1.00
C245   C     0.15433   0.51334   0.42282   0.00000  Uiso   1.00
C246   C     0.02374   0.52766   0.20404   0.00000  Uiso   1.00
C247   C     0.11261   0.66556   0.29354   0.00000  Uiso   1.00
C248   C     0.26328   0.43812   0.09901   0.00000  Uiso   1.00
C249   C     0.05473   0.53353   0.39851   0.00000  Uiso   1.00
C250   C     0.13596   0.49980   0.46118   0.00000  Uiso   1.00
C251   C     0.09217   0.50537   0.48139   0.00000  Uiso   1.00
C252   C     0.16071   0.48156   0.48006   0.00000  Uiso   1.00
C253   C     0.14620   0.47863   0.02145   0.00000  Uiso   1.00
C254   C     0.10192   0.48206   0.04102   0.00000  Uiso   1.00
C255   C     0.07545   0.49545   0.02129   0.00000  Uiso   1.00
H256   H     0.20704   0.33574   0.21704   0.00000  Uiso   1.00
H257   H     0.00345   0.49993   0.48619   0.00000  Uiso   1.00
H258   H     0.20542   0.55564   0.40264   0.00000  Uiso   1.00
H259   H     0.21360   0.50592   0.38342   0.00000  Uiso   1.00
H260   H     0.09553   0.43999   0.08152   0.00000  Uiso   1.00
H261   H     0.07776   0.48806   0.10163   0.00000  Uiso   1.00
H262   H     0.14486   0.49830   0.09928   0.00000  Uiso   1.00
H263   H     0.25182   0.43344   0.45787   0.00000  Uiso   1.00
H264   H     0.20620   0.45695   0.42600   0.00000  Uiso   1.00
H265   H     0.01681   0.46833   0.04992   0.00000  Uiso   1.00
H266   H     0.02892   0.51805   0.06841   0.00000  Uiso   1.00
H267   H     0.31817   0.48971   0.32293   0.00000  Uiso   1.00
H268   H     0.31888   0.44260   0.29603   0.00000  Uiso   1.00
H269   H     0.02078   0.55005   0.00286   0.00000  Uiso   1.00
N270   N     0.03095   0.49789   0.04234   0.00000  Uiso   1.00
N271   N     0.08050   0.46472   0.07786   0.00000  Uiso   1.00
N272   N     0.31223   0.40681   0.49639   0.00000  Uiso   1.00
N273   N     0.04776   0.54326   0.17766   0.00000  Uiso   1.00
N274   N     0.31194   0.47313   0.29735   0.00000  Uiso   1.00
N275   N     0.08224   0.65442   0.31776   0.00000  Uiso   1.00
N276   N     0.28605   0.42891   0.11522   0.00000  Uiso   1.00
N277   N     0.02260   0.52758   0.47844   0.00000  Uiso   1.00
N278   N     0.03150   0.54037   0.38161   0.00000  Uiso   1.00
N279   N     0.20001   0.52476   0.40918   0.00000  Uiso   1.00
O280   O     0.16667   0.50000   0.25000   0.00000  Uiso   1.00
O281   O     0.15693   0.45726   0.16625   0.00000  Uiso   1.00
O282   O     0.12687   0.53979   0.33749   0.00000  Uiso   1.00
O283   O     0.21088   0.50826   0.15877   0.00000  Uiso   1.00
O284   O     0.17198   0.49468   0.33749   0.00000  Uiso   1.00
O285   O     0.17849   0.41434   0.27821   0.00000  Uiso   1.00
O286   O     0.14581   0.59469   0.26767   0.00000  Uiso   1.00
O287   O     0.07452   0.46584   0.23607   0.00000  Uiso   1.00
O288   O     0.26785   0.52512   0.21806   0.00000  Uiso   1.00
O289   O     0.06990   0.52293   0.27820   0.00000  Uiso   1.00
O290   O     0.25440   0.48610   0.26768   0.00000  Uiso   1.00
O291   O     0.13800   0.40236   0.23607   0.00000  Uiso   1.00
O292   O     0.20437   0.58860   0.21806   0.00000  Uiso   1.00
Zn293  Zn    0.19244   0.47423   0.28278   0.00000  Uiso   1.00
Zn294  Zn    0.13459   0.45711   0.22258   0.00000  Uiso   1.00
Zn295  Zn    0.21166   0.52997   0.21188   0.00000  Uiso   1.00
Zn296  Zn    0.12798   0.53868   0.28277   0.00000  Uiso   1.00
C297   C     0.38607   0.49329   0.25902   0.00000  Uiso   1.00
C298   C     0.53118   0.46256   0.45798   0.00000  Uiso   1.00
C299   C     0.55708   0.44763   0.47652   0.00000  Uiso   1.00
C300   C     0.61436   0.50669   0.24123   0.00000  Uiso   1.00
C301   C     0.54800   0.45274   0.01800   0.00000  Uiso   1.00
C302   C     0.50946   0.46970   0.04077   0.00000  Uiso   1.00
C303   C     0.57668   0.44166   0.03718   0.00000  Uiso   1.00
C304   C     0.56803   0.44970   0.07877   0.00000  Uiso   1.00
C305   C     0.50349   0.48000   0.08174   0.00000  Uiso   1.00
C306   C     0.66026   0.50807   0.23717   0.00000  Uiso   1.00
C307   C     0.34080   0.49128   0.26338   0.00000  Uiso   1.00
C308   C     0.41701   0.52492   0.41985   0.00000  Uiso   1.00
C309   C     0.51312   0.65544   0.23922   0.00000  Uiso   1.00
C310   C     0.48393   0.34638   0.26324   0.00000  Uiso   1.00
C311   C     0.48977   0.38965   0.25858   0.00000  Uiso   1.00
C312   C     0.50994   0.61098   0.24158   0.00000  Uiso   1.00
C313   C     0.52146   0.47883   0.14390   0.00000  Uiso   1.00
C314   C     0.47799   0.52047   0.35659   0.00000  Uiso   1.00
C315   C     0.46096   0.52125   0.40053   0.00000  Uiso   1.00
C316   C     0.53150   0.46934   0.10073   0.00000  Uiso   1.00
C317   C     0.39989   0.51946   0.46032   0.00000  Uiso   1.00
C318   C     0.61500   0.42227   0.01448   0.00000  Uiso   1.00
C319   C     0.48766   0.51334   0.42282   0.00000  Uiso   1.00
C320   C     0.35707   0.52766   0.20404   0.00000  Uiso   1.00
C321   C     0.44594   0.66556   0.29354   0.00000  Uiso   1.00
C322   C     0.59661   0.43812   0.09901   0.00000  Uiso   1.00
C323   C     0.38806   0.53353   0.39851   0.00000  Uiso   1.00
C324   C     0.46930   0.49980   0.46118   0.00000  Uiso   1.00
C325   C     0.42550   0.50537   0.48139   0.00000  Uiso   1.00
C326   C     0.49405   0.48156   0.48006   0.00000  Uiso   1.00
C327   C     0.47954   0.47863   0.02145   0.00000  Uiso   1.00
C328   C     0.43525   0.48206   0.04102   0.00000  Uiso   1.00
C329   C     0.40878   0.49545   0.02129   0.00000  Uiso   1.00
H330   H     0.54037   0.33574   0.21704   0.00000  Uiso   1.00
H331   H     0.33678   0.49993   0.48619   0.00000  Uiso   1.00
H332   H     0.53876   0.55564   0.40264   0.00000  Uiso   1.00
H333   H     0.54693   0.50592   0.38342   0.00000  Uiso   1.00
H334   H     0.42886   0.43999   0.08152   0.00000  Uiso   1.00
H335   H     0.41109   0.48806   0.10163   0.00000  Uiso   1.00
H336   H     0.47820   0.49830   0.09928   0.00000  Uiso   1.00
H337   H     0.58516   0.43344   0.45787   0.00000  Uiso   1.00
H338   H     0.53954   0.45695   0.42600   0.00000  Uiso   1.00
H339   H     0.35015   0.46833   0.04992   0.00000  Uiso   1.00
H340   H     0.36225   0.51805   0.06841   0.00000  Uiso   1.00
H341   H     0.65151   0.48971   0.32293   0.00000  Uiso   1.00
H342   H     0.65222   0.44260   0.29603   0.00000  Uiso   1.00
H343   H     0.35411   0.55005   0.00286   0.00000  Uiso   1.00
N344   N     0.36428   0.49789   0.04234   0.00000  Uiso   1.00
N345   N     0.41384   0.46472   0.07786   0.00000  Uiso   1.00
N346   N     0.64556   0.40681   0.49639   0.00000  Uiso   1.00
N347   N     0.38109   0.54326   0.17766   0.00000  Uiso   1.00
N348   N     0.64527   0.47313   0.29735   0.00000  Uiso   1.00
N349   N     0.41557   0.65442   0.31776   0.00000  Uiso   1.00
N350   N     0.61938   0.42891   0.11522   0.00000  Uiso   1.00
N351   N     0.35594   0.52758   0.47844   0.00000  Uiso   1.00
N352   N     0.36483   0.54037   0.38161   0.00000  Uiso   1.00
N353   N     0.53335   0.52476   0.40918   0.00000  Uiso   1.00
O354   O     0.50000   0.50000   0.25000   0.00000  Uiso   1.00
O355   O     0.49027   0.45726   0.16625   0.00000  Uiso   1.00
O356   O     0.46020   0.53979   0.33749   0.00000  Uiso   1.00
O357   O     0.54421   0.50826   0.15877   0.00000  Uiso   1.00
O358   O     0.50532   0.49468   0.33749   0.00000  Uiso   1.00
O359   O     0.51182   0.41434   0.27821   0.00000  Uiso   1.00
O360   O     0.47914   0.59469   0.26767   0.00000  Uiso   1.00
O361   O     0.40785   0.46584   0.23607   0.00000  Uiso   1.00
O362   O     0.60119   0.52512   0.21806   0.00000  Uiso   1.00
O363   O     0.40323   0.52293   0.27820   0.00000  Uiso   1.00
O364   O     0.58773   0.48610   0.26768   0.00000  Uiso   1.00
O365   O     0.47133   0.40236   0.23607   0.00000  Uiso   1.00
O366   O     0.53771   0.58860   0.21806   0.00000  Uiso   1.00
Zn367  Zn    0.52577   0.47423   0.28278   0.00000  Uiso   1.00
Zn368  Zn    0.46792   0.45711   0.22258   0.00000  Uiso   1.00
Zn369  Zn    0.54500   0.52997   0.21188   0.00000  Uiso   1.00
Zn370  Zn    0.46131   0.53868   0.28277   0.00000  Uiso   1.00
C371   C     0.71941   0.49329   0.25902   0.00000  Uiso   1.00
C372   C     0.86452   0.46256   0.45798   0.00000  Uiso   1.00
C373   C     0.89042   0.44763   0.47652   0.00000  Uiso   1.00
C374   C     0.94769   0.50669   0.24123   0.00000  Uiso   1.00
C375   C     0.88133   0.45274   0.01800   0.00000  Uiso   1.00
C376   C     0.84279   0.46970   0.04077   0.00000  Uiso   1.00
C377   C     0.91001   0.44166   0.03718   0.00000  Uiso   1.00
C378   C     0.90137   0.44970   0.07877   0.00000  Uiso   1.00
C379   C     0.83682   0.48000   0.08174   0.00000  Uiso   1.00
C380   C     0.99359   0.50807   0.23717   0.00000  Uiso   1.00
C381   C     0.67414   0.49128   0.26338   0.00000  Uiso   1.00
C382   C     0.75035   0.52492   0.41985   0.00000  Uiso   1.00
C383   C     0.84646   0.65544   0.23922   0.00000  Uiso   1.00
C384   C     0.81726   0.34638   0.26324   0.00000  Uiso   1.00
C385   C     0.82310   0.38965   0.25858   0.00000  Uiso   1.00
C386   C     0.84328   0.61098   0.24158   0.00000  Uiso   1.00
C387   C     0.85480   0.47883   0.14390   0.00000  Uiso   1.00
C388   C     0.81133   0.52047   0.35659   0.00000  Uiso   1.00
C389   C     0.79429   0.52125   0.40053   0.00000  Uiso   1.00
C390   C     0.86483   0.46934   0.10073   0.00000  Uiso   1.00
C391   C     0.73322   0.51946   0.46032   0.00000  Uiso   1.00
C392   C     0.94834   0.42227   0.01448   0.00000  Uiso   1.00
C393   C     0.82100   0.51334   0.42282   0.00000  Uiso   1.00
C394   C     0.69040   0.52766   0.20404   0.00000  Uiso   1.00
C395   C     0.77928   0.66556   0.29354   0.00000  Uiso   1.00
C396   C     0.92995   0.43812   0.09901   0.00000  Uiso   1.00
C397   C     0.72139   0.53353   0.39851   0.00000  Uiso   1.00
C398   C     0.80263   0.49980   0.46118   0.00000  Uiso   1.00
C399   C     0.75884   0.50537   0.48139   0.00000  Uiso   1.00
C400   C     0.82738   0.48156   0.48006   0.00000  Uiso   1.00
C401   C     0.81287   0.47863   0.02145   0.00000  Uiso   1.00
C402   C     0.76859   0.48206   0.04102   0.00000  Uiso   1.00
C403   C     0.74211   0.49545   0.02129   0.00000  Uiso   1.00
H404   H     0.87370   0.33574   0.21704   0.00000  Uiso   1.00
H405   H     0.67012   0.49993   0.48619   0.00000  Uiso   1.00
H406   H     0.87209   0.55564   0.40264   0.00000  Uiso   1.00
H407   H     0.88027   0.50592   0.38342   0.00000  Uiso   1.00
H408   H     0.76219   0.43999   0.08152   0.00000  Uiso   1.00
H409   H     0.74443   0.48806   0.10163   0.00000  Uiso   1.00
H410   H     0.81153   0.49830   0.09928   0.00000  Uiso   1.00
H411   H     0.91849   0.43344   0.45787   0.00000  Uiso   1.00
H412   H     0.87287   0.45695   0.42600   0.00000  Uiso   1.00
H413   H     0.68348   0.46833   0.04992   0.00000  Uiso   1.00
H414   H     0.69558   0.51805   0.06841   0.00000  Uiso   1.00
H415   H     0.98484   0.48971   0.32293   0.00000  Uiso   1.00
H416   H     0.98555   0.44260   0.29603   0.00000  Uiso   1.00
H417   H     0.68745   0.55005   0.00286   0.00000  Uiso   1.00
N418   N     0.69762   0.49789   0.04234   0.00000  Uiso   1.00
N419   N     0.74717   0.46472   0.07786   0.00000  Uiso   1.00
N420   N     0.97889   0.40681   0.49639   0.00000  Uiso   1.00
N421   N     0.71443   0.54326   0.17766   0.00000  Uiso   1.00
N422   N     0.97861   0.47313   0.29735   0.00000  Uiso   1.00
N423   N     0.74890   0.65442   0.31776   0.00000  Uiso   1.00
N424   N     0.95271   0.42891   0.11522   0.00000  Uiso   1.00
N425   N     0.68927   0.52758   0.47844   0.00000  Uiso   1.00
N426   N     0.69817   0.54037   0.38161   0.00000  Uiso   1.00
N427   N     0.86668   0.52476   0.40918   0.00000  Uiso   1.00
O428   O     0.83333   0.50000   0.25000   0.00000  Uiso   1.00
O429   O     0.82360   0.45726   0.16625   0.00000  Uiso   1.00
O430   O     0.79354   0.53979   0.33749   0.00000  Uiso   1.00
O431   O     0.87755   0.50826   0.15877   0.00000  Uiso   1.00
O432   O     0.83865   0.49468   0.33749   0.00000  Uiso   1.00
O433   O     0.84515   0.41434   0.27821   0.00000  Uiso   1.00
O434   O     0.81247   0.59469   0.26767   0.00000  Uiso   1.00
O435   O     0.74119   0.46584   0.23607   0.00000  Uiso   1.00
O436   O     0.93452   0.52512   0.21806   0.00000  Uiso   1.00
O437   O     0.73656   0.52293   0.27820   0.00000  Uiso   1.00
O438   O     0.92106   0.48610   0.26768   0.00000  Uiso   1.00
O439   O     0.80467   0.40236   0.23607   0.00000  Uiso   1.00
O440   O     0.87104   0.58860   0.21806   0.00000  Uiso   1.00
Zn441  Zn    0.85910   0.47423   0.28278   0.00000  Uiso   1.00
Zn442  Zn    0.80125   0.45711   0.22258   0.00000  Uiso   1.00
Zn443  Zn    0.87833   0.52997   0.21188   0.00000  Uiso   1.00
Zn444  Zn    0.79465   0.53868   0.28277   0.00000  Uiso   1.00
C445   C     0.05274   0.82663   0.25902   0.00000  Uiso   1.00
C446   C     0.19785   0.79589   0.45798   0.00000  Uiso   1.00
C447   C     0.22375   0.78096   0.47652   0.00000  Uiso   1.00
C448   C     0.28103   0.84003   0.24123   0.00000  Uiso   1.00
C449   C     0.21467   0.78607   0.01800   0.00000  Uiso   1.00
C450   C     0.17612   0.80303   0.04077   0.00000  Uiso   1.00
C451   C     0.24335   0.77500   0.03718   0.00000  Uiso   1.00
C452   C     0.23470   0.78303   0.07877   0.00000  Uiso   1.00
C453   C     0.17016   0.81333   0.08174   0.00000  Uiso   1.00
C454   C     0.32692   0.84140   0.23717   0.00000  Uiso   1.00
C455   C     0.00747   0.82461   0.26338   0.00000  Uiso   1.00
C456   C     0.08368   0.85825   0.41985   0.00000  Uiso   1.00
C457   C     0.17979   0.98877   0.23922   0.00000  Uiso   1.00
C458   C     0.15059   0.67971   0.26324   0.00000  Uiso   1.00
C459   C     0.15644   0.72299   0.25858   0.00000  Uiso   1.00
C460   C     0.17661   0.94431   0.24158   0.00000  Uiso   1.00
C461   C     0.18813   0.81216   0.14390   0.00000  Uiso   1.00
C462   C     0.14466   0.85380   0.35659   0.00000  Uiso   1.00
C463   C     0.12763   0.85459   0.40053   0.00000  Uiso   1.00
C464   C     0.19817   0.80267   0.10073   0.00000  Uiso   1.00
C465   C     0.06655   0.85280   0.46032   0.00000  Uiso   1.00
C466   C     0.28167   0.75560   0.01448   0.00000  Uiso   1.00
C467   C     0.15433   0.84667   0.42282   0.00000  Uiso   1.00
C468   C     0.02374   0.86100   0.20404   0.00000  Uiso   1.00
C469   C     0.11261   0.99890   0.29354   0.00000  Uiso   1.00
C470   C     0.26328   0.77145   0.09901   0.00000  Uiso   1.00
C471   C     0.05473   0.86686   0.39851   0.00000  Uiso   1.00
C472   C     0.13596   0.83314   0.46118   0.00000  Uiso   1.00
C473   C     0.09217   0.83870   0.48139   0.00000  Uiso   1.00
C474   C     0.16071   0.81489   0.48006   0.00000  Uiso   1.00
C475   C     0.14620   0.81196   0.02145   0.00000  Uiso   1.00
C476   C     0.10192   0.81539   0.04102   0.00000  Uiso   1.00
C477   C     0.07545   0.82879   0.02129   0.00000  Uiso   1.00
H478   H     0.20704   0.66907   0.21704   0.00000  Uiso   1.00
H479   H     0.00345   0.83327   0.48619   0.00000  Uiso   1.00
H480   H     0.20542   0.88897   0.40264   0.00000  Uiso   1.00
H481   H     0.21360   0.83925   0.38342   0.00000  Uiso   1.00
H482   H     0.09553   0.77333   0.08152   0.00000  Uiso   1.00
H483   H     0.07776   0.82139   0.10163   0.00000  Uiso   1.00
H484   H     0.14486   0.83164   0.09928   0.00000  Uiso   1.00
H485   H     0.25182   0.76677   0.45787   0.00000  Uiso   1.00
H486   H     0.20620   0.79028   0.42600   0.00000  Uiso   1.00
H487   H     0.01681   0.80167   0.04992   0.00000  Uiso   1.00
H488   H     0.02892   0.85138   0.06841   0.00000  Uiso   1.00
H489   H     0.31817   0.82304   0.32293   0.00000  Uiso   1.00
H490   H     0.31888   0.77593   0.29603   0.00000  Uiso   1.00
H491   H     0.02078   0.88339   0.00286   0.00000  Uiso   1.00
N492   N     0.03095   0.83123   0.04234   0.00000  Uiso   1.00
N493   N     0.08050   0.79805   0.07786   0.00000  Uiso   1.00
N494   N     0.31223   0.74015   0.49639   0.00000  Uiso   1.00
N495   N     0.04776   0.87659   0.17766   0.00000  Uiso   1.00
N496   N     0.31194   0.80646   0.29735   0.00000  Uiso   1.00
N497   N     0.08224   0.98775   0.31776   0.00000  Uiso   1.00
N498   N     0.28605   0.76225   0.11522   0.00000  Uiso   1.00
N499   N     0.02260   0.86091   0.47844   0.00000  Uiso   1.00
N500   N     0.03150   0.87370   0.38161   0.00000  Uiso   1.00
N501   N     0.20001   0.85809   0.40918   0.00000  Uiso   1.00
O502   O     0.16667   0.83333   0.25000   0.00000  Uiso   1.00
O503   O     0.15693   0.79060   0.16625   0.00000  Uiso   1.00
O504   O     0.12687   0.87313   0.33749   0.00000  Uiso   1.00
O505   O     0.21088   0.84159   0.15877   0.00000  Uiso   1.00
O506   O     0.17198   0.82802   0.33749   0.00000  Uiso   1.00
O507   O     0.17849   0.74768   0.27821   0.00000  Uiso   1.00
O508   O     0.14581   0.92803   0.26767   0.00000  Uiso   1.00
O509   O     0.07452   0.79917   0.23607   0.00000  Uiso   1.00
O510   O     0.26785   0.85845   0.21806   0.00000  Uiso   1.00
O511   O     0.06990   0.85627   0.27820   0.00000  Uiso   1.00
O512   O     0.25440   0.81944   0.26768   0.00000  Uiso   1.00
O513   O     0.13800   0.73570   0.23607   0.00000  Uiso   1.00
O514   O     0.20437   0.92193   0.21806   0.00000  Uiso   1.00
Zn515  Zn    0.19244   0.80756   0.28278   0.00000  Uiso   1.00
Zn516  Zn    0.13459   0.79044   0.22258   0.00000  Uiso   1.00
Zn517  Zn    0.21166   0.86331   0.21188   0.00000  Uiso   1.00
Zn518  Zn    0.12798   0.87202   0.28277   0.00000  Uiso   1.00
C519   C     0.38607   0.82663   0.25902   0.00000  Uiso   1.00
C520   C     0.53118   0.79589   0.45798   0.00000  Uiso   1.00
C521   C     0.55708   0.78096   0.47652   0.00000  Uiso   1.00
C522   C     0.61436   0.84003   0.24123   0.00000  Uiso   1.00
C523   C     0.54800   0.78607   0.01800   0.00000  Uiso   1.00
C524   C     0.50946   0.80303   0.04077   0.00000  Uiso   1.00
C525   C     0.57668   0.77500   0.03718   0.00000  Uiso   1.00
C526   C     0.56803   0.78303   0.07877   0.00000  Uiso   1.00
C527   C     0.50349   0.81333   0.08174   0.00000  Uiso   1.00
C528   C     0.66026   0.84140   0.23717   0.00000  Uiso   1.00
C529   C     0.34080   0.82461   0.26338   0.00000  Uiso   1.00
C530   C     0.41701   0.85825   0.41985   0.00000  Uiso   1.00
C531   C     0.51312   0.98877   0.23922   0.00000  Uiso   1.00
C532   C     0.48393   0.67971   0.26324   0.00000  Uiso   1.00
C533   C     0.48977   0.72299   0.25858   0.00000  Uiso   1.00
C534   C     0.50994   0.94431   0.24158   0.00000  Uiso   1.00
C535   C     0.52146   0.81216   0.14390   0.00000  Uiso   1.00
C536   C     0.47799   0.85380   0.35659   0.00000  Uiso   1.00
C537   C     0.46096   0.85459   0.40053   0.00000  Uiso   1.00
C538   C     0.53150   0.80267   0.10073   0.00000  Uiso   1.00
C539   C     0.39989   0.85280   0.46032   0.00000  Uiso   1.00
C540   C     0.61500   0.75560   0.01448   0.00000  Uiso   1.00
C541   C     0.48766   0.84667   0.42282   0.00000  Uiso   1.00
C542   C     0.35707   0.86100   0.20404   0.00000  Uiso   1.00
C543   C     0.44594   0.99890   0.29354   0.00000  Uiso   1.00
C544   C     0.59661   0.77145   0.09901   0.00000  Uiso   1.00
C545   C     0.38806   0.86686   0.39851   0.00000  Uiso   1.00
C546   C     0.46930   0.83314   0.46118   0.00000  Uiso   1.00
C547   C     0.42550   0.83870   0.48139   0.00000  Uiso   1.00
C548   C     0.49405   0.81489   0.48006   0.00000  Uiso   1.00
C549   C     0.47954   0.81196   0.02145   0.00000  Uiso   1.00
C550   C     0.43525   0.81539   0.04102   0.00000  Uiso   1.00
C551   C     0.40878   0.82879   0.02129   0.00000  Uiso   1.00
H552   H     0.54037   0.66907   0.21704   0.00000  Uiso   1.00
H553   H     0.33678   0.83327   0.48619   0.00000  Uiso   1.00
H554   H     0.53876   0.88897   0.40264   0.00000  Uiso   1.00
H555   H     0.54693   0.83925   0.38342   0.00000  Uiso   1.00
H556   H     0.42886   0.77333   0.08152   0.00000  Uiso   1.00
H557   H     0.41109   0.82139   0.10163   0.00000  Uiso   1.00
H558   H     0.47820   0.83164   0.09928   0.00000  Uiso   1.00
H559   H     0.58516   0.76677   0.45787   0.00000  Uiso   1.00
H560   H     0.53954   0.79028   0.42600   0.00000  Uiso   1.00
H561   H     0.35015   0.80167   0.04992   0.00000  Uiso   1.00
H562   H     0.36225   0.85138   0.06841   0.00000  Uiso   1.00
H563   H     0.65151   0.82304   0.32293   0.00000  Uiso   1.00
H564   H     0.65222   0.77593   0.29603   0.00000  Uiso   1.00
H565   H     0.35411   0.88339   0.00286   0.00000  Uiso   1.00
N566   N     0.36428   0.83123   0.04234   0.00000  Uiso   1.00
N567   N     0.41384   0.79805   0.07786   0.00000  Uiso   1.00
N568   N     0.64556   0.74015   0.49639   0.00000  Uiso   1.00
N569   N     0.38109   0.87659   0.17766   0.00000  Uiso   1.00
N570   N     0.64527   0.80646   0.29735   0.00000  Uiso   1.00
N571   N     0.41557   0.98775   0.31776   0.00000  Uiso   1.00
N572   N     0.61938   0.76225   0.11522   0.00000  Uiso   1.00
N573   N     0.35594   0.86091   0.47844   0.00000  Uiso   1.00
N574   N     0.36483   0.87370   0.38161   0.00000  Uiso   1.00
N575   N     0.53335   0.85809   0.40918   0.00000  Uiso   1.00
O576   O     0.50000   0.83333   0.25000   0.00000  Uiso   1.00
O577   O     0.49027   0.79060   0.16625   0.00000  Uiso   1.00
O578   O     0.46020   0.87313   0.33749   0.00000  Uiso   1.00
O579   O     0.54421   0.84159   0.15877   0.00000  Uiso   1.00
O580   O     0.50532   0.82802   0.33749   0.00000  Uiso   1.00
O581   O     0.51182   0.74768   0.27821   0.00000  Uiso   1.00
O582   O     0.47914   0.92803   0.26767   0.00000  Uiso   1.00
O583   O     0.40785   0.79917   0.23607   0.00000  Uiso   1.00
O584   O     0.60119   0.85845   0.21806   0.00000  Uiso   1.00
O585   O     0.40323   0.85627   0.27820   0.00000  Uiso   1.00
O586   O     0.58773   0.81944   0.26768   0.00000  Uiso   1.00
O587   O     0.47133   0.73570   0.23607   0.00000  Uiso   1.00
O588   O     0.53771   0.92193   0.21806   0.00000  Uiso   1.00
Zn589  Zn    0.52577   0.80756   0.28278   0.00000  Uiso   1.00
Zn590  Zn    0.46792   0.79044   0.22258   0.00000  Uiso   1.00
Zn591  Zn    0.54500   0.86331   0.21188   0.00000  Uiso   1.00
Zn592  Zn    0.46131   0.87202   0.28277   0.00000  Uiso   1.00
C593   C     0.71941   0.82663   0.25902   0.00000  Uiso   1.00
C594   C     0.86452   0.79589   0.45798   0.00000  Uiso   1.00
C595   C     0.89042   0.78096   0.47652   0.00000  Uiso   1.00
C596   C     0.94769   0.84003   0.24123   0.00000  Uiso   1.00
C597   C     0.88133   0.78607   0.01800   0.00000  Uiso   1.00
C598   C     0.84279   0.80303   0.04077   0.00000  Uiso   1.00
C599   C     0.91001   0.77500   0.03718   0.00000  Uiso   1.00
C600   C     0.90137   0.78303   0.07877   0.00000  Uiso   1.00
C601   C     0.83682   0.81333   0.08174   0.00000  Uiso   1.00
C602   C     0.99359   0.84140   0.23717   0.00000  Uiso   1.00
C603   C     0.67414   0.82461   0.26338   0.00000  Uiso   1.00
C604   C     0.75035   0.85825   0.41985   0.00000  Uiso   1.00
C605   C     0.84646   0.98877   0.23922   0.00000  Uiso   1.00
C606   C     0.81726   0.67971   0.26324   0.00000  Uiso   1.00
C607   C     0.82310   0.72299   0.25858   0.00000  Uiso   1.00
C608   C     0.84328   0.94431   0.24158   0.00000  Uiso   1.00
C609   C     0.85480   0.81216   0.14390   0.00000  Uiso   1.00
C610   C     0.81133   0.85380   0.35659   0.00000  Uiso   1.00
C611   C     0.79429   0.85459   0.40053   0.00000  Uiso   1.00
C612   C     0.86483   0.80267   0.10073   0.00000  Uiso   1.00
C613   C     0.73322   0.85280   0.46032   0.00000  Uiso   1.00
C614   C     0.94834   0.75560   0.01448   0.00000  Uiso   1.00
C615   C     0.82100   0.84667   0.42282   0.00000  Uiso   1.00
C616   C     0.69040   0.86100   0.20404   0.00000  Uiso   1.00
C617   C     0.77928   0.99890   0.29354   0.00000  Uiso   1.00
C618   C     0.92995   0.77145   0.09901   0.00000  Uiso   1.00
C619   C     0.72139   0.86686   0.39851   0.00000  Uiso   1.00
C620   C     0.80263   0.83314   0.46118   0.00000  Uiso   1.00
C621   C     0.75884   0.83870   0.48139   0.00000  Uiso   1.00
C622   C     0.82738   0.81489   0.48006   0.00000  Uiso   1.00
C623   C     0.81287   0.81196   0.02145   0.00000  Uiso   1.00
C624   C     0.76859   0.81539   0.04102   0.00000  Uiso   1.00
C625   C     0.74211   0.82879   0.02129   0.00000  Uiso   1.00
H626   H     0.87370   0.66907   0.21704   0.00000  Uiso   1.00
H627   H     0.67012   0.83327   0.48619   0.00000  Uiso   1.00
H628   H     0.87209   0.88897   0.40264   0.00000  Uiso   1.00
H629   H     0.88027   0.83925   0.38342   0.00000  Uiso   1.00
H630   H     0.76219   0.77333   0.08152   0.00000  Uiso   1.00
H631   H     0.74443   0.82139   0.10163   0.00000  Uiso   1.00
H632   H     0.81153   0.83164   0.09928   0.00000  Uiso   1.00
H633   H     0.91849   0.76677   0.45787   0.00000  Uiso   1.00
H634   H     0.87287   0.79028   0.42600   0.00000  Uiso   1.00
H635   H     0.68348   0.80167   0.04992   0.00000  Uiso   1.00
H636   H     0.69558   0.85138   0.06841   0.00000  Uiso   1.00
H637   H     0.98484   0.82304   0.32293   0.00000  Uiso   1.00
H638   H     0.98555   0.77593   0.29603   0.00000  Uiso   1.00
H639   H     0.68745   0.88339   0.00286   0.00000  Uiso   1.00
N640   N     0.69762   0.83123   0.04234   0.00000  Uiso   1.00
N641   N     0.74717   0.79805   0.07786   0.00000  Uiso   1.00
N642   N     0.97889   0.74015   0.49639   0.00000  Uiso   1.00
N643   N     0.71443   0.87659   0.17766   0.00000  Uiso   1.00
N644   N     0.97861   0.80646   0.29735   0.00000  Uiso   1.00
N645   N     0.74890   0.98775   0.31776   0.00000  Uiso   1.00
N646   N     0.95271   0.76225   0.11522   0.00000  Uiso   1.00
N647   N     0.68927   0.86091   0.47844   0.00000  Uiso   1.00
N648   N     0.69817   0.87370   0.38161   0.00000  Uiso   1.00
N649   N     0.86668   0.85809   0.40918   0.00000  Uiso   1.00
O650   O     0.83333   0.83333   0.25000   0.00000  Uiso   1.00
O651   O     0.82360   0.79060   0.16625   0.00000  Uiso   1.00
O652   O     0.79354   0.87313   0.33749   0.00000  Uiso   1.00
O653   O     0.87755   0.84159   0.15877   0.00000  Uiso   1.00
O654   O     0.83865   0.82802   0.33749   0.00000  Uiso   1.00
O655   O     0.84515   0.74768   0.27821   0.00000  Uiso   1.00
O656   O     0.81247   0.92803   0.26767   0.00000  Uiso   1.00
O657   O     0.74119   0.79917   0.23607   0.00000  Uiso   1.00
O658   O     0.93452   0.85845   0.21806   0.00000  Uiso   1.00
O659   O     0.73656   0.85627   0.27820   0.00000  Uiso   1.00
O660   O     0.92106   0.81944   0.26768   0.00000  Uiso   1.00
O661   O     0.80467   0.73570   0.23607   0.00000  Uiso   1.00
O662   O     0.87104   0.92193   0.21806   0.00000  Uiso   1.00
Zn663  Zn    0.85910   0.80756   0.28278   0.00000  Uiso   1.00
Zn664  Zn    0.80125   0.79044   0.22258   0.00000  Uiso   1.00
Zn665  Zn    0.87833   0.86331   0.21188   0.00000  Uiso   1.00
Zn666  Zn    0.79465   0.87202   0.28277   0.00000  Uiso   1.00
C667   C     0.05274   0.15996   0.75902   0.00000  Uiso   1.00
C668   C     0.19785   0.12923   0.95798   0.00000  Uiso   1.00
C669   C     0.22375   0.11430   0.97652   0.00000  Uiso   1.00
C670   C     0.28103   0.17336   0.74123   0.00000  Uiso   1.00
C671   C     0.21467   0.11940   0.51800   0.00000  Uiso   1.00
C672   C     0.17612   0.13636   0.54077   0.00000  Uiso   1.00
C673   C     0.24335   0.10833   0.53718   0.00000  Uiso   1.00
C674   C     0.23470   0.11637   0.57877   0.00000  Uiso   1.00
C675   C     0.17016   0.14666   0.58174   0.00000  Uiso   1.00
C676   C     0.32692   0.17474   0.73717   0.00000  Uiso   1.00
C677   C     0.00747   0.15795   0.76338   0.00000  Uiso   1.00
C678   C     0.08368   0.19158   0.91985   0.00000  Uiso   1.00
C679   C     0.17979   0.32210   0.73922   0.00000  Uiso   1.00
C680   C     0.15059   0.01304   0.76324   0.00000  Uiso   1.00
C681   C     0.15644   0.05632   0.75858   0.00000  Uiso   1.00
C682   C     0.17661   0.27765   0.74158   0.00000  Uiso   1.00
C683   C     0.18813   0.14549   0.64390   0.00000  Uiso   1.00
C684   C     0.14466   0.18713   0.85659   0.00000  Uiso   1.00
C685   C     0.12763   0.18792   0.90053   0.00000  Uiso   1.00
C686   C     0.19817   0.13600   0.60073   0.00000  Uiso   1.00
C687   C     0.06655   0.18613   0.96032   0.00000  Uiso   1.00
C688   C     0.28167   0.08894   0.51448   0.00000  Uiso   1.00
C689   C     0.15433   0.18001   0.92282   0.00000  Uiso   1.00
C690   C     0.02374   0.19433   0.70404   0.00000  Uiso   1.00
C691   C     0.11261   0.33223   0.79354   0.00000  Uiso   1.00
C692   C     0.26328   0.10479   0.59901   0.00000  Uiso   1.00
C693   C     0.05473   0.20020   0.89851   0.00000  Uiso   1.00
C694   C     0.13596   0.16647   0.96118   0.00000  Uiso   1.00
C695   C     0.09217   0.17204   0.98139   0.00000  Uiso   1.00
C696   C     0.16071   0.14822   0.98006   0.00000  Uiso   1.00
C697   C     0.14620   0.14529   0.52145   0.00000  Uiso   1.00
C698   C     0.10192   0.14872   0.54102   0.00000  Uiso   1.00
C699   C     0.07545   0.16212   0.52129   0.00000  Uiso   1.00
H700   H     0.20704   0.00241   0.71704   0.00000  Uiso   1.00
H701   H     0.00345   0.16660   0.98619   0.00000  Uiso   1.00
H702   H     0.20542   0.22230   0.90264   0.00000  Uiso   1.00
H703   H     0.21360   0.17259   0.88342   0.00000  Uiso   1.00
H704   H     0.09553   0.10666   0.58152   0.00000  Uiso   1.00
H705   H     0.07776   0.15472   0.60163   0.00000  Uiso   1.00
H706   H     0.14486   0.16497   0.59928   0.00000  Uiso   1.00
H707   H     0.25182   0.10010   0.95787   0.00000  Uiso   1.00
H708   H     0.20620   0.12362   0.92600   0.00000  Uiso   1.00
H709   H     0.01681   0.13500   0.54992   0.00000  Uiso   1.00
H710   H     0.02892   0.18471   0.56841   0.00000  Uiso   1.00
H711   H     0.31817   0.15637   0.82293   0.00000  Uiso   1.00
H712   H     0.31888   0.10927   0.79603   0.00000  Uiso   1.00
H713   H     0.02078   0.21672   0.50286   0.00000  Uiso   1.00
N714   N     0.03095   0.16456   0.54234   0.00000  Uiso   1.00
N715   N     0.08050   0.13138   0.57786   0.00000  Uiso   1.00
N716   N     0.31223   0.07348   0.99639   0.00000  Uiso   1.00
N717   N     0.04776   0.20993   0.67766   0.00000  Uiso   1.00
N718   N     0.31194   0.13979   0.79735   0.00000  Uiso   1.00
N719   N     0.08224   0.32109   0.81776   0.00000  Uiso   1.00
N720   N     0.28605   0.09558   0.61522   0.00000  Uiso   1.00
N721   N     0.02260   0.19424   0.97844   0.00000  Uiso   1.00
N722   N     0.03150   0.20704   0.88161   0.00000  Uiso   1.00
N723   N     0.20001   0.19143   0.90918   0.00000  Uiso   1.00
O724   O     0.16667   0.16667   0.75000   0.00000  Uiso   1.00
O725   O     0.15693   0.12393   0.66625   0.00000  Uiso   1.00
O726   O     0.12687   0.20646   0.83749   0.00000  Uiso   1.00
O727   O     0.21088   0.17493   0.65877   0.00000  Uiso   1.00
O728   O     0.17198   0.16135   0.83749   0.00000  Uiso   1.00
O729   O     0.17849   0.08101   0.77821   0.00000  Uiso   1.00
O730   O     0.14581   0.26136   0.76767   0.00000  Uiso   1.00
O731   O     0.07452   0.13251   0.73607   0.00000  Uiso   1.00
O732   O     0.26785   0.19179   0.71806   0.00000  Uiso   1.00
O733   O     0.06990   0.18960   0.77820   0.00000  Uiso   1.00
O734   O     0.25440   0.15277   0.76768   0.00000  Uiso   1.00
O735   O     0.13800   0.06903   0.73607   0.00000  Uiso   1.00
O736   O     0.20437   0.25527   0.71806   0.00000  Uiso   1.00
Zn737  Zn    0.19244   0.14090   0.78278   0.00000  Uiso   1.00
Zn738  Zn    0.13459   0.12378   0.72258   0.00000  Uiso   1.00
Zn739  Zn    0.21166   0.19664   0.71188   0.00000  Uiso   1.00
Zn740  Zn    0.12798   0.20535   0.78277   0.00000  Uiso   1.00
C741   C     0.38607   0.15996   0.75902   0.00000  Uiso   1.00
C742   C     0.53118   0.12923   0.95798   0.00000  Uiso   1.00
C743   C     0.55708   0.11430   0.97652   0.00000  Uiso   1.00
C744   C     0.61436   0.17336   0.74123   0.00000  Uiso   1.00
C745   C     0.54800   0.11940   0.51800   0.00000  Uiso   1.00
C746   C     0.50946   0.13636   0.54077   0.00000  Uiso   1.00
C747   C     0.57668   0.10833   0.53718   0.00000  Uiso   1.00
C748   C     0.56803   0.11637   0.57877   0.00000  Uiso   1.00
C749   C     0.50349   0.14666   0.58174   0.00000  Uiso   1.00
C750   C     0.66026   0.17474   0.73717   0.00000  Uiso   1.00
C751   C     0.34080   0.15795   0.76338   0.00000  Uiso   1.00
C752   C     0.41701   0.19158   0.91985   0.00000  Uiso   1.00
C753   C     0.51312   0.32210   0.73922   0.00000  Uiso   1.00
C754   C     0.48393   0.01304   0.76324   0.00000  Uiso   1.00
C755   C     0.48977   0.05632   0.75858   0.00000  Uiso   1.00
C756   C     0.50994   0.27765   0.74158   0.00000  Uiso   1.00
C757   C     0.52146   0.14549   0.64390   0.00000  Uiso   1.00
C758   C     0.47799   0.18713   0.85659   0.00000  Uiso   1.00
C759   C     0.46096   0.18792   0.90053   0.00000  Uiso   1.00
C760   C     0.53150   0.13600   0.60073   0.00000  Uiso   1.00
C761   C     0.39989   0.18613   0.96032   0.00000  Uiso   1.00
C762   C     0.61500   0.08894   0.51448   0.00000  Uiso   1.00
C763   C     0.48766   0.18001   0.92282   0.00000  Uiso   1.00
C764   C     0.35707   0.19433   0.70404   0.00000  Uiso   1.00
C765   C     0.44594   0.33223   0.79354   0.00000  Uiso   1.00
C766   C     0.59661   0.10479   0.59901   0.00000  Uiso   1.00
C767   C     0.38806   0.20020   0.89851   0.00000  Uiso   1.00
C768   C     0.46930   0.16647   0.96118   0.00000  Uiso   1.00
C769   C     0.42550   0.17204   0.98139   0.00000  Uiso   1.00
C770   C     0.49405   0.14822   0.98006   0.00000  Uiso   1.00
C771   C     0.47954   0.14529   0.52145   0.00000  Uiso   1.00
C772   C     0.43525   0.14872   0.54102   0.00000  Uiso   1.00
C773   C     0.40878   0.16212   0.52129   0.00000  Uiso   1.00
H774   H     0.54037   0.00241   0.71704   0.00000  Uiso   1.00
H775   H     0.33678   0.16660   0.98619   0.00000  Uiso   1.00
H776   H     0.53876   0.22230   0.90264   0.00000  Uiso   1.00
H777   H     0.54693   0.17259   0.88342   0.00000  Uiso   1.00
H778   H     0.42886   0.10666   0.58152   0.00000  Uiso   1.00
H779   H     0.41109   0.15472   0.60163   0.00000  Uiso   1.00
H780   H     0.47820   0.16497   0.59928   0.00000  Uiso   1.00
H781   H     0.58516   0.10010   0.95787   0.00000  Uiso   1.00
H782   H     0.53954   0.12362   0.92600   0.00000  Uiso   1.00
H783   H     0.35015   0.13500   0.54992   0.00000  Uiso   1.00
H784   H     0.36225   0.18471   0.56841   0.00000  Uiso   1.00
H785   H     0.65151   0.15637   0.82293   0.00000  Uiso   1.00
H786   H     0.65222   0.10927   0.79603   0.00000  Uiso   1.00
H787   H     0.35411   0.21672   0.50286   0.00000  Uiso   1.00
N788   N     0.36428   0.16456   0.54234   0.00000  Uiso   1.00
N789   N     0.41384   0.13138   0.57786   0.00000  Uiso   1.00
N790   N     0.64556   0.07348   0.99639   0.00000  Uiso   1.00
N791   N     0.38109   0.20993   0.67766   0.00000  Uiso   1.00
N792   N     0.64527   0.13979   0.79735   0.00000  Uiso   1.00
N793   N     0.41557   0.32109   0.81776   0.00000  Uiso   1.00
N794   N     0.61938   0.09558   0.61522   0.00000  Uiso   1.00
N795   N     0.35594   0.19424   0.97844   0.00000  Uiso   1.00
N796   N     0.36483   0.20704   0.88161   0.00000  Uiso   1.00
N797   N     0.53335   0.19143   0.90918   0.00000  Uiso   1.00
O798   O     0.50000   0.16667   0.75000   0.00000  Uiso   1.00
O799   O     0.49027   0.12393   0.66625   0.00000  Uiso   1.00
O800   O     0.46020   0.20646   0.83749   0.00000  Uiso   1.00
O801   O     0.54421   0.17493   0.65877   0.00000  Uiso   1.00
O802   O     0.50532   0.16135   0.83749   0.00000  Uiso   1.00
O803   O     0.51182   0.08101   0.77821   0.00000  Uiso   1.00
O804   O     0.47914   0.26136   0.76767   0.00000  Uiso   1.00
O805   O     0.40785   0.13251   0.73607   0.00000  Uiso   1.00
O806   O     0.60119   0.19179   0.71806   0.00000  Uiso   1.00
O807   O     0.40323   0.18960   0.77820   0.00000  Uiso   1.00
O808   O     0.58773   0.15277   0.76768   0.00000  Uiso   1.00
O809   O     0.47133   0.06903   0.73607   0.00000  Uiso   1.00
O810   O     0.53771   0.25527   0.71806   0.00000  Uiso   1.00
Zn811  Zn    0.52577   0.14090   0.78278   0.00000  Uiso   1.00
Zn812  Zn    0.46792   0.12378   0.72258   0.00000  Uiso   1.00
Zn813  Zn    0.54500   0.19664   0.71188   0.00000  Uiso   1.00
Zn814  Zn    0.46131   0.20535   0.78277   0.00000  Uiso   1.00
C815   C     0.71941   0.15996   0.75902   0.00000  Uiso   1.00
C816   C     0.86452   0.12923   0.95798   0.00000  Uiso   1.00
C817   C     0.89042   0.11430   0.97652   0.00000  Uiso   1.00
C818   C     0.94769   0.17336   0.74123   0.00000  Uiso   1.00
C819   C     0.88133   0.11940   0.51800   0.00000  Uiso   1.00
C820   C     0.84279   0.13636   0.54077   0.00000  Uiso   1.00
C821   C     0.91001   0.10833   0.53718   0.00000  Uiso   1.00
C822   C     0.90137   0.11637   0.57877   0.00000  Uiso   1.00
C823   C     0.83682   0.14666   0.58174   0.00000  Uiso   1.00
C824   C     0.99359   0.17474   0.73717   0.00000  Uiso   1.00
C825   C     0.67414   0.15795   0.76338   0.00000  Uiso   1.00
C826   C     0.75035   0.19158   0.91985   0.00000  Uiso   1.00
C827   C     0.84646   0.32210   0.73922   0.00000  Uiso   1.00
C828   C     0.81726   0.01304   0.76324   0.00000  Uiso   1.00
C829   C     0.82310   0.05632   0.75858   0.00000  Uiso   1.00
C830   C     0.84328   0.27765   0.74158   0.00000  Uiso   1.00
C831   C     0.85480   0.14549   0.64390   0.00000  Uiso   1.00
C832   C     0.81133   0.18713   0.85659   0.00000  Uiso   1.00
C833   C     0.79429   0.18792   0.90053   0.00000  Uiso   1.00
C834   C     0.86483   0.13600   0.60073   0.00000  Uiso   1.00
C835   C     0.73322   0.18613   0.96032   0.00000  Uiso   1.00
C836   C     0.94834   0.08894   0.51448   0.00000  Uiso   1.00
C837   C     0.82100   0.18001   0.92282   0.00000  Uiso   1.00
C838   C     0.69040   0.19433   0.70404   0.00000  Uiso   1.00
C839   C     0.77928   0.33223   0.79354   0.00000  Uiso   1.00
C840   C     0.92995   0.10479   0.59901   0.00000  Uiso   1.00
C841   C     0.72139   0.20020   0.89851   0.00000  Uiso   1.00
C842   C     0.80263   0.16647   0.96118   0.00000  Uiso   1.00
C843   C     0.75884   0.17204   0.98139   0.00000  Uiso   1.00
C844   C     0.82738   0.14822   0.98006   0.00000  Uiso   1.00
C845   C     0.81287   0.14529   0.52145   0.00000  Uiso   1.00
C846   C     0.76859   0.14872   0.54102   0.00000  Uiso   1.00
C847   C     0.74211   0.16212   0.52129   0.00000  Uiso   1.00
H848   H     0.87370   0.00241   0.71704   0.00000  Uiso   1.00
H849   H     0.67012   0.16660   0.98619   0.00000  Uiso   1.00
H850   H     0.87209   0.22230   0.90264   0.00000  Uiso   1.00
H851   H     0.88027   0.17259   0.88342   0.00000  Uiso   1.00
H852   H     0.76219   0.10666   0.58152   0.00000  Uiso   1.00
H853   H     0.74443   0.15472   0.60163   0.00000  Uiso   1.00
H854   H     0.81153   0.16497   0.59928   0.00000  Uiso   1.00
H855   H     0.91849   0.10010   0.95787   0.00000  Uiso   1.00
H856   H     0.87287   0.12362   0.92600   0.00000  Uiso   1.00
H857   H     0.68348   0.13500   0.54992   0.00000  Uiso   1.00
H858   H     0.69558   0.18471   0.56841   0.00000  Uiso   1.00
H859   H     0.98484   0.15637   0.82293   0.00000  Uiso   1.00
H860   H     0.98555   0.10927   0.79603   0.00000  Uiso   1.00
H861   H     0.68745   0.21672   0.50286   0.00000  Uiso   1.00
N862   N     0.69762   0.16456   0.54234   0.00000  Uiso   1.00
N863   N     0.74717   0.13138   0.57786   0.00000  Uiso   1.00
N864   N     0.97889   0.07348   0.99639   0.00000  Uiso   1.00
N865   N     0.71443   0.20993   0.67766   0.00000  Uiso   1.00
N866   N     0.97861   0.13979   0.79735   0.00000  Uiso   1.00
N867   N     0.74890   0.32109   0.81776   0.00000  Uiso   1.00
N868   N     0.95271   0.09558   0.61522   0.00000  Uiso   1.00
N869   N     0.68927   0.19424   0.97844   0.00000  Uiso   1.00
N870   N     0.69817   0.20704   0.88161   0.00000  Uiso   1.00
N871   N     0.86668   0.19143   0.90918   0.00000  Uiso   1.00
O872   O     0.83333   0.16667   0.75000   0.00000  Uiso   1.00
O873   O     0.82360   0.12393   0.66625   0.00000  Uiso   1.00
O874   O     0.79354   0.20646   0.83749   0.00000  Uiso   1.00
O875   O     0.87755   0.17493   0.65877   0.00000  Uiso   1.00
O876   O     0.83865   0.16135   0.83749   0.00000  Uiso   1.00
O877   O     0.84515   0.08101   0.77821   0.00000  Uiso   1.00
O878   O     0.81247   0.26136   0.76767   0.00000  Uiso   1.00
O879   O     0.74119   0.13251   0.73607   0.00000  Uiso   1.00
O880   O     0.93452   0.19179   0.71806   0.00000  Uiso   1.00
O881   O     0.73656   0.18960   0.77820   0.00000  Uiso   1.00
O882   O     0.92106   0.15277   0.76768   0.00000  Uiso   1.00
O883   O     0.80467   0.06903   0.73607   0.00000  Uiso   1.00
O884   O     0.87104   0.25527   0.71806   0.00000  Uiso   1.00
Zn885  Zn    0.85910   0.14090   0.78278   0.00000  Uiso   1.00
Zn886  Zn    0.80125   0.12378   0.72258   0.00000  Uiso   1.00
Zn887  Zn    0.87833   0.19664   0.71188   0.00000  Uiso   1.00
Zn888  Zn    0.79465   0.20535   0.78277   0.00000  Uiso   1.00
C889   C     0.05274   0.49329   0.75902   0.00000  Uiso   1.00
C890   C     0.19785   0.46256   0.95798   0.00000  Uiso   1.00
C891   C     0.22375   0.44763   0.97652   0.00000  Uiso   1.00
C892   C     0.28103   0.50669   0.74123   0.00000  Uiso   1.00
C893   C     0.21467   0.45274   0.51800   0.00000  Uiso   1.00
C894   C     0.17612   0.46970   0.54077   0.00000  Uiso   1.00
C895   C     0.24335   0.44166   0.53718   0.00000  Uiso   1.00
C896   C     0.23470   0.44970   0.57877   0.00000  Uiso   1.00
C897   C     0.17016   0.48000   0.58174   0.00000  Uiso   1.00
C898   C     0.32692   0.50807   0.73717   0.00000  Uiso   1.00
C899   C     0.00747   0.49128   0.76338   0.00000  Uiso   1.00
C900   C     0.08368   0.52492   0.91985   0.00000  Uiso   1.00
C901   C     0.17979   0.65544   0.73922   0.00000  Uiso   1.00
C902   C     0.15059   0.34638   0.76324   0.00000  Uiso   1.00
C903   C     0.15644   0.38965   0.75858   0.00000  Uiso   1.00
C904   C     0.17661   0.61098   0.74158   0.00000  Uiso   1.00
C905   C     0.18813   0.47883   0.64390   0.00000  Uiso   1.00
C906   C     0.14466   0.52047   0.85659   0.00000  Uiso   1.00
C907   C     0.12763   0.52125   0.90053   0.00000  Uiso   1.00
C908   C     0.19817   0.46934   0.60073   0.00000  Uiso   1.00
C909   C     0.06655   0.51946   0.96032   0.00000  Uiso   1.00
C910   C     0.28167   0.42227   0.51448   0.00000  Uiso   1.00
C911   C     0.15433   0.51334   0.92282   0.00000  Uiso   1.00
C912   C     0.02374   0.52766   0.70404   0.00000  Uiso   1.00
C913   C     0.11261   0.66556   0.79354   0.00000  Uiso   1.00
C914   C     0.26328   0.43812   0.59901   0.00000  Uiso   1.00
C915   C     0.05473   0.53353   0.89851   0.00000  Uiso   1.00
C916   C     0.13596   0.49980   0.96118   0.00000  Uiso   1.00
C917   C     0.09217   0.50537   0.98139   0.00000  Uiso   1.00
C918   C     0.16071   0.48156   0.98006   0.00000  Uiso   1.00
C919   C     0.14620   0.47863   0.52145   0.00000  Uiso   1.00
C920   C     0.10192   0.48206   0.54102   0.00000  Uiso   1.00
C921   C     0.07545   0.49545   0.52129   0.00000  Uiso   1.00
H922   H     0.20704   0.33574   0.71704   0.00000  Uiso   1.00
H923   H     0.00345   0.49993   0.98619   0.00000  Uiso   1.00
H924   H     0.20542   0.55564   0.90264   0.00000  Uiso   1.00
H925   H     0.21360   0.50592   0.88342   0.00000  Uiso   1.00
H926   H     0.09553   0.43999   0.58152   0.00000  Uiso   1.00
H927   H     0.07776   0.48806   0.60163   0.00000  Uiso   1.00
H928   H     0.14486   0.49830   0.59928   0.00000  Uiso   1.00
H929   H     0.25182   0.43344   0.95787   0.00000  Uiso   1.00
H930   H     0.20620   0.45695   0.92600   0.00000  Uiso   1.00
H931   H     0.01681   0.46833   0.54992   0.00000  Uiso   1.00
H932   H     0.02892   0.51805   0.56841   0.00000  Uiso   1.00
H933   H     0.31817   0.48971   0.82293   0.00000  Uiso   1.00
H934   H     0.31888   0.44260   0.79603   0.00000  Uiso   1.00
H935   H     0.02078   0.55005   0.50286   0.00000  Uiso   1.00
N936   N     0.03095   0.49789   0.54234   0.00000  Uiso   1.00
N937   N     0.08050   0.46472   0.57786   0.00000  Uiso   1.00
N938   N     0.31223   0.40681   0.99639   0.00000  Uiso   1.00
N939   N     0.04776   0.54326   0.67766   0.00000  Uiso   1.00
N940   N     0.31194   0.47313   0.79735   0.00000  Uiso   1.00
N941   N     0.08224   0.65442   0.81776   0.00000  Uiso   1.00
N942   N     0.28605   0.42891   0.61522   0.00000  Uiso   1.00
N943   N     0.02260   0.52758   0.97844   0.00000  Uiso   1.00
N944   N     0.03150   0.54037   0.88161   0.00000  Uiso   1.00
N945   N     0.20001   0.52476   0.90918   0.00000  Uiso   1.00
O946   O     0.16667   0.50000   0.75000   0.00000  Uiso   1.00
O947   O     0.15693   0.45726   0.66625   0.00000  Uiso   1.00
O948   O     0.12687   0.53979   0.83749   0.00000  Uiso   1.00
O949   O     0.21088   0.50826   0.65877   0.00000  Uiso   1.00
O950   O     0.17198   0.49468   0.83749   0.00000  Uiso   1.00
O951   O     0.17849   0.41434   0.77821   0.00000  Uiso   1.00
O952   O     0.14581   0.59469   0.76767   0.00000  Uiso   1.00
O953   O     0.07452   0.46584   0.73607   0.00000  Uiso   1.00
O954   O     0.26785   0.52512   0.71806   0.00000  Uiso   1.00
O955   O     0.06990   0.52293   0.77820   0.00000  Uiso   1.00
O956   O     0.25440   0.48610   0.76768   0.00000  Uiso   1.00
O957   O     0.13800   0.40236   0.73607   0.00000  Uiso   1.00
O958   O     0.20437   0.58860   0.71806   0.00000  Uiso   1.00
Zn959  Zn    0.19244   0.47423   0.78278   0.00000  Uiso   1.00
Zn960  Zn    0.13459   0.45711   0.72258   0.00000  Uiso   1.00
Zn961  Zn    0.21166   0.52997   0.71188   0.00000  Uiso   1.00
Zn962  Zn    0.12798   0.53868   0.78277   0.00000  Uiso   1.00
C963   C     0.38607   0.49329   0.75902   0.00000  Uiso   1.00
C964   C     0.53118   0.46256   0.95798   0.00000  Uiso   1.00
C965   C     0.55708   0.44763   0.97652   0.00000  Uiso   1.00
C966   C     0.61436   0.50669   0.74123   0.00000  Uiso   1.00
C967   C     0.54800   0.45274   0.51800   0.00000  Uiso   1.00
C968   C     0.50946   0.46970   0.54077   0.00000  Uiso   1.00
C969   C     0.57668   0.44166   0.53718   0.00000  Uiso   1.00
C970   C     0.56803   0.44970   0.57877   0.00000  Uiso   1.00
C971   C     0.50349   0.48000   0.58174   0.00000  Uiso   1.00
C972   C     0.66026   0.50807   0.73717   0.00000  Uiso   1.00
C973   C     0.34080   0.49128   0.76338   0.00000  Uiso   1.00
C974   C     0.41701   0.52492   0.91985   0.00000  Uiso   1.00
C975   C     0.51312   0.65544   0.73922   0.00000  Uiso   1.00
C976   C     0.48393   0.34638   0.76324   0.00000  Uiso   1.00
C977   C     0.48977   0.38965   0.75858   0.00000  Uiso   1.00
C978   C     0.50994   0.61098   0.74158   0.00000  Uiso   1.00
C979   C     0.52146   0.47883   0.64390   0.00000  Uiso   1.00
C980   C     0.47799   0.52047   0.85659   0.00000  Uiso   1.00
C981   C     0.46096   0.52125   0.90053   0.00000  Uiso   1.00
C982   C     0.53150   0.46934   0.60073   0.00000  Uiso   1.00
C983   C     0.39989   0.51946   0.96032   0.00000  Uiso   1.00
C984   C     0.61500   0.42227   0.51448   0.00000  Uiso   1.00
C985   C     0.48766   0.51334   0.92282   0.00000  Uiso   1.00
C986   C     0.35707   0.52766   0.70404   0.00000  Uiso   1.00
C987   C     0.44594   0.66556   0.79354   0.00000  Uiso   1.00
C988   C     0.59661   0.43812   0.59901   0.00000  Uiso   1.00
C989   C     0.38806   0.53353   0.89851   0.00000  Uiso   1.00
C990   C     0.46930   0.49980   0.96118   0.00000  Uiso   1.00
C991   C     0.42550   0.50537   0.98139   0.00000  Uiso   1.00
C992   C     0.49405   0.48156   0.98006   0.00000  Uiso   1.00
C993   C     0.47954   0.47863   0.52145   0.00000  Uiso   1.00
C994   C     0.43525   0.48206   0.54102   0.00000  Uiso   1.00
C995   C     0.40878   0.49545   0.52129   0.00000  Uiso   1.00
H996   H     0.54037   0.33574   0.71704   0.00000  Uiso   1.00
H997   H     0.33678   0.49993   0.98619   0.00000  Uiso   1.00
H998   H     0.53876   0.55564   0.90264   0.00000  Uiso   1.00
H999   H     0.54693   0.50592   0.88342   0.00000  Uiso   1.00
H1000  H     0.42886   0.43999   0.58152   0.00000  Uiso   1.00
H1001  H     0.41109   0.48806   0.60163   0.00000  Uiso   1.00
H1002  H     0.47820   0.49830   0.59928   0.00000  Uiso   1.00
H1003  H     0.58516   0.43344   0.95787   0.00000  Uiso   1.00
H1004  H     0.53954   0.45695   0.92600   0.00000  Uiso   1.00
H1005  H     0.35015   0.46833   0.54992   0.00000  Uiso   1.00
H1006  H     0.36225   0.51805   0.56841   0.00000  Uiso   1.00
H1007  H     0.65151   0.48971   0.82293   0.00000  Uiso   1.00
H1008  H     0.65222   0.44260   0.79603   0.00000  Uiso   1.00
H1009  H     0.35411   0.55005   0.50286   0.00000  Uiso   1.00
N1010  N     0.36428   0.49789   0.54234   0.00000  Uiso   1.00
N1011  N     0.41384   0.46472   0.57786   0.00000  Uiso   1.00
N1012  N     0.64556   0.40681   0.99639   0.00000  Uiso   1.00
N1013  N     0.38109   0.54326   0.67766   0.00000  Uiso   1.00
N1014  N     0.64527   0.47313   0.79735   0.00000  Uiso   1.00
N1015  N     0.41557   0.65442   0.81776   0.00000  Uiso   1.00
N1016  N     0.61938   0.42891   0.61522   0.00000  Uiso   1.00
N1017  N     0.35594   0.52758   0.97844   0.00000  Uiso   1.00
N1018  N     0.36483   0.54037   0.88161   0.00000  Uiso   1.00
N1019  N     0.53335   0.52476   0.90918   0.00000  Uiso   1.00
O1020  O     0.50000   0.50000   0.75000   0.00000  Uiso   1.00
O1021  O     0.49027   0.45726   0.66625   0.00000  Uiso   1.00
O1022  O     0.46020   0.53979   0.83749   0.00000  Uiso   1.00
O1023  O     0.54421   0.50826   0.65877   0.00000  Uiso   1.00
O1024  O     0.50532   0.49468   0.83749   0.00000  Uiso   1.00
O1025  O     0.51182   0.41434   0.77821   0.00000  Uiso   1.00
O1026  O     0.47914   0.59469   0.76767   0.00000  Uiso   1.00
O1027  O     0.40785   0.46584   0.73607   0.00000  Uiso   1.00
O1028  O     0.60119   0.52512   0.71806   0.00000  Uiso   1.00
O1029  O     0.40323   0.52293   0.77820   0.00000  Uiso   1.00
O1030  O     0.58773   0.48610   0.76768   0.00000  Uiso   1.00
O1031  O     0.47133   0.40236   0.73607   0.00000  Uiso   1.00
O1032  O     0.53771   0.58860   0.71806   0.00000  Uiso   1.00
Zn1033 Zn    0.52577   0.47423   0.78278   0.00000  Uiso   1.00
Zn1034 Zn    0.46792   0.45711   0.72258   0.00000  Uiso   1.00
Zn1035 Zn    0.54500   0.52997   0.71188   0.00000  Uiso   1.00
Zn1036 Zn    0.46131   0.53868   0.78277   0.00000  Uiso   1.00
C1037  C     0.71941   0.49329   0.75902   0.00000  Uiso   1.00
C1038  C     0.86452   0.46256   0.95798   0.00000  Uiso   1.00
C1039  C     0.89042   0.44763   0.97652   0.00000  Uiso   1.00
C1040  C     0.94769   0.50669   0.74123   0.00000  Uiso   1.00
C1041  C     0.88133   0.45274   0.51800   0.00000  Uiso   1.00
C1042  C     0.84279   0.46970   0.54077   0.00000  Uiso   1.00
C1043  C     0.91001   0.44166   0.53718   0.00000  Uiso   1.00
C1044  C     0.90137   0.44970   0.57877   0.00000  Uiso   1.00
C1045  C     0.83682   0.48000   0.58174   0.00000  Uiso   1.00
C1046  C     0.99359   0.50807   0.73717   0.00000  Uiso   1.00
C1047  C     0.67414   0.49128   0.76338   0.00000  Uiso   1.00
C1048  C     0.75035   0.52492   0.91985   0.00000  Uiso   1.00
C1049  C     0.84646   0.65544   0.73922   0.00000  Uiso   1.00
C1050  C     0.81726   0.34638   0.76324   0.00000  Uiso   1.00
C1051  C     0.82310   0.38965   0.75858   0.00000  Uiso   1.00
C1052  C     0.84328   0.61098   0.74158   0.00000  Uiso   1.00
C1053  C     0.85480   0.47883   0.64390   0.00000  Uiso   1.00
C1054  C     0.81133   0.52047   0.85659   0.00000  Uiso   1.00
C1055  C     0.79429   0.52125   0.90053   0.00000  Uiso   1.00
C1056  C     0.86483   0.46934   0.60073   0.00000  Uiso   1.00
C1057  C     0.73322   0.51946   0.96032   0.00000  Uiso   1.00
C1058  C     0.94834   0.42227   0.51448   0.00000  Uiso   1.00
C1059  C     0.82100   0.51334   0.92282   0.00000  Uiso   1.00
C1060  C     0.69040   0.52766   0.70404   0.00000  Uiso   1.00
C1061  C     0.77928   0.66556   0.79354   0.00000  Uiso   1.00
C1062  C     0.92995   0.43812   0.59901   0.00000  Uiso   1.00
C1063  C     0.72139   0.53353   0.89851   0.00000  Uiso   1.00
C1064  C     0.80263   0.49980   0.96118   0.00000  Uiso   1.00
C1065  C     0.75884   0.50537   0.98139   0.00000  Uiso   1.00
C1066  C     0.82738   0.48156   0.98006   0.00000  Uiso   1.00
C1067  C     0.81287   0.47863   0.52145   0.00000  Uiso   1.00
C1068  C     0.76859   0.48206   0.54102   0.00000  Uiso   1.00
C1069  C     0.74211   0.49545   0.52129   0.00000  Uiso   1.00
H1070  H     0.87370   0.33574   0.71704   0.00000  Uiso   1.00
H1071  H     0.67012   0.49993   0.98619   0.00000  Uiso   1.00
H1072  H     0.87209   0.55564   0.90264   0.00000  Uiso   1.00
H1073  H     0.88027   0.50592   0.88342   0.00000  Uiso   1.00
H1074  H     0.76219   0.43999   0.58152   0.00000  Uiso   1.00
H1075  H     0.74443   0.48806   0.60163   0.00000  Uiso   1.00
H1076  H     0.81153   0.49830   0.59928   0.00000  Uiso   1.00
H1077  H     0.91849   0.43344   0.95787   0.00000  Uiso   1.00
H1078  H     0.87287   0.45695   0.92600   0.00000  Uiso   1.00
H1079  H     0.68348   0.46833   0.54992   0.00000  Uiso   1.00
H1080  H     0.69558   0.51805   0.56841   0.00000  Uiso   1.00
H1081  H     0.98484   0.48971   0.82293   0.00000  Uiso   1.00
H1082  H     0.98555   0.44260   0.79603   0.00000  Uiso   1.00
H1083  H     0.68745   0.55005   0.50286   0.00000  Uiso   1.00
N1084  N     0.69762   0.49789   0.54234   0.00000  Uiso   1.00
N1085  N     0.74717   0.46472   0.57786   0.00000  Uiso   1.00
N1086  N     0.97889   0.40681   0.99639   0.00000  Uiso   1.00
N1087  N     0.71443   0.54326   0.67766   0.00000  Uiso   1.00
N1088  N     0.97861   0.47313   0.79735   0.00000  Uiso   1.00
N1089  N     0.74890   0.65442   0.81776   0.00000  Uiso   1.00
N1090  N     0.95271   0.42891   0.61522   0.00000  Uiso   1.00
N1091  N     0.68927   0.52758   0.97844   0.00000  Uiso   1.00
N1092  N     0.69817   0.54037   0.88161   0.00000  Uiso   1.00
N1093  N     0.86668   0.52476   0.90918   0.00000  Uiso   1.00
O1094  O     0.83333   0.50000   0.75000   0.00000  Uiso   1.00
O1095  O     0.82360   0.45726   0.66625   0.00000  Uiso   1.00
O1096  O     0.79354   0.53979   0.83749   0.00000  Uiso   1.00
O1097  O     0.87755   0.50826   0.65877   0.00000  Uiso   1.00
O1098  O     0.83865   0.49468   0.83749   0.00000  Uiso   1.00
O1099  O     0.84515   0.41434   0.77821   0.00000  Uiso   1.00
O1100  O     0.81247   0.59469   0.76767   0.00000  Uiso   1.00
O1101  O     0.74119   0.46584   0.73607   0.00000  Uiso   1.00
O1102  O     0.93452   0.52512   0.71806   0.00000  Uiso   1.00
O1103  O     0.73656   0.52293   0.77820   0.00000  Uiso   1.00
O1104  O     0.92106   0.48610   0.76768   0.00000  Uiso   1.00
O1105  O     0.80467   0.40236   0.73607   0.00000  Uiso   1.00
O1106  O     0.87104   0.58860   0.71806   0.00000  Uiso   1.00
Zn1107 Zn    0.85910   0.47423   0.78278   0.00000  Uiso   1.00
Zn1108 Zn    0.80125   0.45711   0.72258   0.00000  Uiso   1.00
Zn1109 Zn    0.87833   0.52997   0.71188   0.00000  Uiso   1.00
Zn1110 Zn    0.79465   0.53868   0.78277   0.00000  Uiso   1.00
C1111  C     0.05274   0.82663   0.75902   0.00000  Uiso   1.00
C1112  C     0.19785   0.79589   0.95798   0.00000  Uiso   1.00
C1113  C     0.22375   0.78096   0.97652   0.00000  Uiso   1.00
C1114  C     0.28103   0.84003   0.74123   0.00000  Uiso   1.00
C1115  C     0.21467   0.78607   0.51800   0.00000  Uiso   1.00
C1116  C     0.17612   0.80303   0.54077   0.00000  Uiso   1.00
C1117  C     0.24335   0.77500   0.53718   0.00000  Uiso   1.00
C1118  C     0.23470   0.78303   0.57877   0.00000  Uiso   1.00
C1119  C     0.17016   0.81333   0.58174   0.00000  Uiso   1.00
C1120  C     0.32692   0.84140   0.73717   0.00000  Uiso   1.00
C1121  C     0.00747   0.82461   0.76338   0.00000  Uiso   1.00
C1122  C     0.08368   0.85825   0.91985   0.00000  Uiso   1.00
C1123  C     0.17979   0.98877   0.73922   0.00000  Uiso   1.00
C1124  C     0.15059   0.67971   0.76324   0.00000  Uiso   1.00
C1125  C     0.15644   0.72299   0.75858   0.00000  Uiso   1.00
C1126  C     0.17661   0.94431   0.74158   0.00000  Uiso   1.00
C1127  C     0.18813   0.81216   0.64390   0.00000  Uiso   1.00
C1128  C     0.14466   0.85380   0.85659   0.00000  Uiso   1.00
C1129  C     0.12763   0.85459   0.90053   0.00000  Uiso   1.00
C1130  C     0.19817   0.80267   0.60073   0.00000  Uiso   1.00
C1131  C     0.06655   0.85280   0.96032   0.00000  Uiso   1.00
C1132  C     0.28167   0.75560   0.51448   0.00000  Uiso   1.00
C1133  C     0.15433   0.84667   0.92282   0.00000  Uiso   1.00
C1134  C     0.02374   0.86100   0.70404   0.00000  Uiso   1.00
C1135  C     0.11261   0.99890   0.79354   0.00000  Uiso   1.00
C1136  C     0.26328   0.77145   0.59901   0.00000  Uiso   1.00
C1137  C     0.05473   0.86686   0.89851   0.00000  Uiso   1.00
C1138  C     0.13596   0.83314   0.96118   0.00000  Uiso   1.00
C1139  C     0.09217   0.83870   0.98139   0.00000  Uiso   1.00
C1140  C     0.16071   0.81489   0.98006   0.00000  Uiso   1.00
C1141  C     0.14620   0.81196   0.52145   0.00000  Uiso   1.00
C1142  C     0.10192   0.81539   0.54102   0.00000  Uiso   1.00
C1143  C     0.07545   0.82879   0.52129   0.00000  Uiso   1.00
H1144  H     0.20704   0.66907   0.71704   0.00000  Uiso   1.00
H1145  H     0.00345   0.83327   0.98619   0.00000  Uiso   1.00
H1146  H     0.20542   0.88897   0.90264   0.00000  Uiso   1.00
H1147  H     0.21360   0.83925   0.88342   0.00000  Uiso   1.00
H1148  H     0.09553   0.77333   0.58152   0.00000  Uiso   1.00
H1149  H     0.07776   0.82139   0.60163   0.00000  Uiso   1.00
H1150  H     0.14486   0.83164   0.59928   0.00000  Uiso   1.00
H1151  H     0.25182   0.76677   0.95787   0.00000  Uiso   1.00
H1152  H     0.20620   0.79028   0.92600   0.00000  Uiso   1.00
H1153  H     0.01681   0.80167   0.54992   0.00000  Uiso   1.00
H1154  H     0.02892   0.85138   0.56841   0.00000  Uiso   1.00
H1155  H     0.31817   0.82304   0.82293   0.00000  Uiso   1.00
H1156  H     0.31888   0.77593   0.79603   0.00000  Uiso   1.00
H1157  H     0.02078   0.88339   0.50286   0.00000  Uiso   1.00
N1158  N     0.03095   0.83123   0.54234   0.00000  Uiso   1.00
N1159  N     0.08050   0.79805   0.57786   0.00000  Uiso   1.00
N1160  N     0.31223   0.74015   0.99639   0.00000  Uiso   1.00
N1161  N     0.04776   0.87659   0.67766   0.00000  Uiso   1.00
N1162  N     0.31194   0.80646   0.79735   0.00000  Uiso   1.00
N1163  N     0.08224   0.98775   0.81776   0.00000  Uiso   1.00
N1164  N     0.28605   0.76225   0.61522   0.00000  Uiso   1.00
N1165  N     0.02260   0.86091   0.97844   0.00000  Uiso   1.00
N1166  N     0.03150   0.87370   0.88161   0.00000  Uiso   1.00
N1167  N     0.20001   0.85809   0.90918   0.00000  Uiso   1.00
O1168  O     0.16667   0.83333   0.75000   0.00000  Uiso   1.00
O1169  O     0.15693   0.79060   0.66625   0.00000  Uiso   1.00
O1170  O     0.12687   0.87313   0.83749   0.00000  Uiso   1.00
O1171  O     0.21088   0.84159   0.65877   0.00000  Uiso   1.00
O1172  O     0.17198   0.82802   0.83749   0.00000  Uiso   1.00
O1173  O     0.17849   0.74768   0.77821   0.00000  Uiso   1.00
O1174  O     0.14581   0.92803   0.76767   0.00000  Uiso   1.00
O1175  O     0.07452   0.79917   0.73607   0.00000  Uiso   1.00
O1176  O     0.26785   0.85845   0.71806   0.00000  Uiso   1.00
O1177  O     0.06990   0.85627   0.77820   0.00000  Uiso   1.00
O1178  O     0.25440   0.81944   0.76768   0.00000  Uiso   1.00
O1179  O     0.13800   0.73570   0.73607   0.00000  Uiso   1.00
O1180  O     0.20437   0.92193   0.71806   0.00000  Uiso   1.00
Zn1181 Zn    0.19244   0.80756   0.78278   0.00000  Uiso   1.00
Zn1182 Zn    0.13459   0.79044   0.72258   0.00000  Uiso   1.00
Zn1183 Zn    0.21166   0.86331   0.71188   0.00000  Uiso   1.00
Zn1184 Zn    0.12798   0.87202   0.78277   0.00000  Uiso   1.00
C1185  C     0.38607   0.82663   0.75902   0.00000  Uiso   1.00
C1186  C     0.53118   0.79589   0.95798   0.00000  Uiso   1.00
C1187  C     0.55708   0.78096   0.97652   0.00000  Uiso   1.00
C1188  C     0.61436   0.84003   0.74123   0.00000  Uiso   1.00
C1189  C     0.54800   0.78607   0.51800   0.00000  Uiso   1.00
C1190  C     0.50946   0.80303   0.54077   0.00000  Uiso   1.00
C1191  C     0.57668   0.77500   0.53718   0.00000  Uiso   1.00
C1192  C     0.56803   0.78303   0.57877   0.00000  Uiso   1.00
C1193  C     0.50349   0.81333   0.58174   0.00000  Uiso   1.00
C1194  C     0.66026   0.84140   0.73717   0.00000  Uiso   1.00
C1195  C     0.34080   0.82461   0.76338   0.00000  Uiso   1.00
C1196  C     0.41701   0.85825   0.91985   0.00000  Uiso   1.00
C1197  C     0.51312   0.98877   0.73922   0.00000  Uiso   1.00
C1198  C     0.48393   0.67971   0.76324   0.00000  Uiso   1.00
C1199  C     0.48977   0.72299   0.75858   0.00000  Uiso   1.00
C1200  C     0.50994   0.94431   0.74158   0.00000  Uiso   1.00
C1201  C     0.52146   0.81216   0.64390   0.00000  Uiso   1.00
C1202  C     0.47799   0.85380   0.85659   0.00000  Uiso   1.00
C1203  C     0.46096   0.85459   0.90053   0.00000  Uiso   1.00
C1204  C     0.53150   0.80267   0.60073   0.00000  Uiso   1.00
C1205  C     0.39989   0.85280   0.96032   0.00000  Uiso   1.00
C1206  C     0.61500   0.75560   0.51448   0.00000  Uiso   1.00
C1207  C     0.48766   0.84667   0.92282   0.00000  Uiso   1.00
C1208  C     0.35707   0.86100   0.70404   0.00000  Uiso   1.00
C1209  C     0.44594   0.99890   0.79354   0.00000  Uiso   1.00
C1210  C     0.59661   0.77145   0.59901   0.00000  Uiso   1.00
C1211  C     0.38806   0.86686   0.89851   0.00000  Uiso   1.00
C1212  C     0.46930   0.83314   0.96118   0.00000  Uiso   1.00
C1213  C     0.42550   0.83870   0.98139   0.00000  Uiso   1.00
C1214  C     0.49405   0.81489   0.98006   0.00000  Uiso   1.00
C1215  C     0.47954   0.81196   0.52145   0.00000  Uiso   1.00
C1216  C     0.43525   0.81539   0.54102   0.00000  Uiso   1.00
C1217  C     0.40878   0.82879   0.52129   0.00000  Uiso   1.00
H1218  H     0.54037   0.66907   0.71704   0.00000  Uiso   1.00
H1219  H     0.33678   0.83327   0.98619   0.00000  Uiso   1.00
H1220  H     0.53876   0.88897   0.90264   0.00000  Uiso   1.00
H1221  H     0.54693   0.83925   0.88342   0.00000  Uiso   1.00
H1222  H     0.42886   0.77333   0.58152   0.00000  Uiso   1.00
H1223  H     0.41109   0.82139   0.60163   0.00000  Uiso   1.00
H1224  H     0.47820   0.83164   0.59928   0.00000  Uiso   1.00
H1225  H     0.58516   0.76677   0.95787   0.00000  Uiso   1.00
H1226  H     0.53954   0.79028   0.92600   0.00000  Uiso   1.00
H1227  H     0.35015   0.80167   0.54992   0.00000  Uiso   1.00
H1228  H     0.36225   0.85138   0.56841   0.00000  Uiso   1.00
H1229  H     0.65151   0.82304   0.82293   0.00000  Uiso   1.00
H1230  H     0.65222   0.77593   0.79603   0.00000  Uiso   1.00
H1231  H     0.35411   0.88339   0.50286   0.00000  Uiso   1.00
N1232  N     0.36428   0.83123   0.54234   0.00000  Uiso   1.00
N1233  N     0.41384   0.79805   0.57786   0.00000  Uiso   1.00
N1234  N     0.64556   0.74015   0.99639   0.00000  Uiso   1.00
N1235  N     0.38109   0.87659   0.67766   0.00000  Uiso   1.00
N1236  N     0.64527   0.80646   0.79735   0.00000  Uiso   1.00
N1237  N     0.41557   0.98775   0.81776   0.00000  Uiso   1.00
N1238  N     0.61938   0.76225   0.61522   0.00000  Uiso   1.00
N1239  N     0.35594   0.86091   0.97844   0.00000  Uiso   1.00
N1240  N     0.36483   0.87370   0.88161   0.00000  Uiso   1.00
N1241  N     0.53335   0.85809   0.90918   0.00000  Uiso   1.00
O1242  O     0.50000   0.83333   0.75000   0.00000  Uiso   1.00
O1243  O     0.49027   0.79060   0.66625   0.00000  Uiso   1.00
O1244  O     0.46020   0.87313   0.83749   0.00000  Uiso   1.00
O1245  O     0.54421   0.84159   0.65877   0.00000  Uiso   1.00
O1246  O     0.50532   0.82802   0.83749   0.00000  Uiso   1.00
O1247  O     0.51182   0.74768   0.77821   0.00000  Uiso   1.00
O1248  O     0.47914   0.92803   0.76767   0.00000  Uiso   1.00
O1249  O     0.40785   0.79917   0.73607   0.00000  Uiso   1.00
O1250  O     0.60119   0.85845   0.71806   0.00000  Uiso   1.00
O1251  O     0.40323   0.85627   0.77820   0.00000  Uiso   1.00
O1252  O     0.58773   0.81944   0.76768   0.00000  Uiso   1.00
O1253  O     0.47133   0.73570   0.73607   0.00000  Uiso   1.00
O1254  O     0.53771   0.92193   0.71806   0.00000  Uiso   1.00
Zn1255 Zn    0.52577   0.80756   0.78278   0.00000  Uiso   1.00
Zn1256 Zn    0.46792   0.79044   0.72258   0.00000  Uiso   1.00
Zn1257 Zn    0.54500   0.86331   0.71188   0.00000  Uiso   1.00
Zn1258 Zn    0.46131   0.87202   0.78277   0.00000  Uiso   1.00
C1259  C     0.71941   0.82663   0.75902   0.00000  Uiso   1.00
C1260  C     0.86452   0.79589   0.95798   0.00000  Uiso   1.00
C1261  C     0.89042   0.78096   0.97652   0.00000  Uiso   1.00
C1262  C     0.94769   0.84003   0.74123   0.00000  Uiso   1.00
C1263  C     0.88133   0.78607   0.51800   0.00000  Uiso   1.00
C1264  C     0.84279   0.80303   0.54077   0.00000  Uiso   1.00
C1265  C     0.91001   0.77500   0.53718   0.00000  Uiso   1.00
C1266  C     0.90137   0.78303   0.57877   0.00000  Uiso   1.00
C1267  C     0.83682   0.81333   0.58174   0.00000  Uiso   1.00
C1268  C     0.99359   0.84140   0.73717   0.00000  Uiso   1.00
C1269  C     0.67414   0.82461   0.76338   0.00000  Uiso   1.00
C1270  C     0.75035   0.85825   0.91985   0.00000  Uiso   1.00
C1271  C     0.84646   0.98877   0.73922   0.00000  Uiso   1.00
C1272  C     0.81726   0.67971   0.76324   0.00000  Uiso   1.00
C1273  C     0.82310   0.72299   0.75858   0.00000  Uiso   1.00
C1274  C     0.84328   0.94431   0.74158   0.00000  Uiso   1.00
C1275  C     0.85480   0.81216   0.64390   0.00000  Uiso   1.00
C1276  C     0.81133   0.85380   0.85659   0.00000  Uiso   1.00
C1277  C     0.79429   0.85459   0.90053   0.00000  Uiso   1.00
C1278  C     0.86483   0.80267   0.60073   0.00000  Uiso   1.00
C1279  C     0.73322   0.85280   0.96032   0.00000  Uiso   1.00
C1280  C     0.94834   0.75560   0.51448   0.00000  Uiso   1.00
C1281  C     0.82100   0.84667   0.92282   0.00000  Uiso   1.00
C1282  C     0.69040   0.86100   0.70404   0.00000  Uiso   1.00
C1283  C     0.77928   0.99890   0.79354   0.00000  Uiso   1.00
C1284  C     0.92995   0.77145   0.59901   0.00000  Uiso   1.00
C1285  C     0.72139   0.86686   0.89851   0.00000  Uiso   1.00
C1286  C     0.80263   0.83314   0.96118   0.00000  Uiso   1.00
C1287  C     0.75884   0.83870   0.98139   0.00000  Uiso   1.00
C1288  C     0.82738   0.81489   0.98006   0.00000  Uiso   1.00
C1289  C     0.81287   0.81196   0.52145   0.00000  Uiso   1.00
C1290  C     0.76859   0.81539   0.54102   0.00000  Uiso   1.00
C1291  C     0.74211   0.82879   0.52129   0.00000  Uiso   1.00
H1292  H     0.87370   0.66907   0.71704   0.00000  Uiso   1.00
H1293  H     0.67012   0.83327   0.98619   0.00000  Uiso   1.00
H1294  H     0.87209   0.88897   0.90264   0.00000  Uiso   1.00
H1295  H     0.88027   0.83925   0.88342   0.00000  Uiso   1.00
H1296  H     0.76219   0.77333   0.58152   0.00000  Uiso   1.00
H1297  H     0.74443   0.82139   0.60163   0.00000  Uiso   1.00
H1298  H     0.81153   0.83164   0.59928   0.00000  Uiso   1.00
H1299  H     0.91849   0.76677   0.95787   0.00000  Uiso   1.00
H1300  H     0.87287   0.79028   0.92600   0.00000  Uiso   1.00
H1301  H     0.68348   0.80167   0.54992   0.00000  Uiso   1.00
H1302  H     0.69558   0.85138   0.56841   0.00000  Uiso   1.00
H1303  H     0.98484   0.82304   0.82293   0.00000  Uiso   1.00
H1304  H     0.98555   0.77593   0.79603   0.00000  Uiso   1.00
H1305  H     0.68745   0.88339   0.50286   0.00000  Uiso   1.00
N1306  N     0.69762   0.83123   0.54234   0.00000  Uiso   1.00
N1307  N     0.74717   0.79805   0.57786   0.00000  Uiso   1.00
N1308  N     0.97889   0.74015   0.99639   0.00000  Uiso   1.00
N1309  N     0.71443   0.87659   0.67766   0.00000  Uiso   1.00
N1310  N     0.97861   0.80646   0.79735   0.00000  Uiso   1.00
N1311  N     0.74890   0.98775   0.81776   0.00000  Uiso   1.00
N1312  N     0.95271   0.76225   0.61522   0.00000  Uiso   1.00
N1313  N     0.68927   0.86091   0.97844   0.00000  Uiso   1.00
N1314  N     0.69817   0.87370   0.88161   0.00000  Uiso   1.00
N1315  N     0.86668   0.85809   0.90918   0.00000  Uiso   1.00
O1316  O     0.83333   0.83333   0.75000   0.00000  Uiso   1.00
O1317  O     0.82360   0.79060   0.66625   0.00000  Uiso   1.00
O1318  O     0.79354   0.87313   0.83749   0.00000  Uiso   1.00
O1319  O     0.87755   0.84159   0.65877   0.00000  Uiso   1.00
O1320  O     0.83865   0.82802   0.83749   0.00000  Uiso   1.00
O1321  O     0.84515   0.74768   0.77821   0.00000  Uiso   1.00
O1322  O     0.81247   0.92803   0.76767   0.00000  Uiso   1.00
O1323  O     0.74119   0.79917   0.73607   0.00000  Uiso   1.00
O1324  O     0.93452   0.85845   0.71806   0.00000  Uiso   1.00
O1325  O     0.73656   0.85627   0.77820   0.00000  Uiso   1.00
O1326  O     0.92106   0.81944   0.76768   0.00000  Uiso   1.00
O1327  O     0.80467   0.73570   0.73607   0.00000  Uiso   1.00
O1328  O     0.87104   0.92193   0.71806   0.00000  Uiso   1.00
Zn1329 Zn    0.85910   0.80756   0.78278   0.00000  Uiso   1.00
Zn1330 Zn    0.80125   0.79044   0.72258   0.00000  Uiso   1.00
Zn1331 Zn    0.87833   0.86331   0.71188   0.00000  Uiso   1.00
Zn1332 Zn    0.79465   0.87202   0.78277   0.00000  Uiso   1.00
loop_
_geom_bond_atom_site_label_1
_geom_bond_atom_site_label_2
_geom_bond_distance
_geom_bond_site_symmetry_2
_ccdc_geom_bond_type
C1     C11     1.436   .     S
C1     O65     1.268   .     A
C1     O67     1.263   .     A
C2     C30     1.411   .     A
C2     C3      1.387   .     A
C2     H42     1.079   .     S
C3     H41     1.083   .     S
C3     C671    1.401   .     S
C4     O68     1.273   .     A
C4     C10     1.460   .     S
C4     O66     1.283   .     A
C5     C7      1.419   .     A
C5     C6      1.422   .     A
C5     C669    1.401   1_554 S
C6     C9      1.404   .     A
C6     C31     1.430   .     A
C7     C8      1.409   .     A
C7     C22     1.452   .     S
C8     C26     1.451   .     S
C8     C20     1.405   .     A
C9     H40     1.078   .     S
C9     C20     1.391   .     A
C10    C85     1.354   .     S
C10    C98     1.453   .     S
C11    C158    1.354   1_455 S
C11    N200    1.437   1_455 S
C12    C27     1.451   .     S
C12    C21     1.405   .     A
C12    C19     1.413   .     A
C13    C16     1.454   .     S
C13    C236    1.346   .     S
C13    H256    1.088   .     S
C14    C15     1.426   .     S
C14    C457    1.346   1_545 S
C14    C469    1.450   1_545 S
C15    O69     1.273   .     A
C15    O63     1.274   .     A
C16    O70     1.274   .     A
C16    O64     1.262   .     A
C17    C20     1.463   .     S
C17    O61     1.280   .     A
C17    O59     1.282   .     A
C18    C19     1.489   .     S
C18    O62     1.289   .     A
C18    O60     1.286   .     A
C19    C23     1.408   .     A
C21    N55     1.438   .     S
C21    C29     1.431   .     A
C22    N716    1.157   1_554 S
C23    C28     1.421   .     A
C23    N57     1.440   .     S
C24    N51     1.157   .     T
C24    C158    1.453   1_455 S
C25    N53     1.158   .     T
C25    C236    1.450   .     S
C26    N54     1.157   .     T
C27    N56     1.158   .     T
C28    C29     1.425   .     A
C28    C30     1.424   .     A
C29    C699    1.424   .     S
C30    C697    1.415   .     S
C31    C32     1.423   .     A
C31    C696    1.415   1_554 S
C32    C33     1.408   .     A
C32    N49     1.440   .     S
C33    N48     1.435   .     S
C33    C695    1.424   1_554 S
H34    C457    1.088   1_545 S
H35    N55     1.045   .     S
H36    N57     1.046   .     S
H37    N57     1.043   .     S
H38    N49     1.045   .     S
H39    N49     1.044   .     S
H43    N48     1.045   .     S
H44    N48     1.046   .     S
H45    N52     1.046   .     S
H46    N52     1.046   .     S
H47    N721    1.045   1_554 S
N50    C688    1.157   .     S
N52    C85     1.437   .     S
N55    H713    1.045   .     S
O58    Zn71    1.956   .     S
O58    Zn74    1.929   .     S
O58    Zn72    1.949   .     S
O58    Zn73    1.935   .     S
O59    Zn72    1.913   .     S
O60    Zn74    1.923   .     S
O61    Zn73    1.920   .     S
O62    Zn71    1.909   .     S
O63    Zn71    1.939   .     S
O64    Zn74    1.940   .     S
O65    Zn72    1.934   .     S
O66    Zn73    1.945   .     S
O67    Zn74    1.944   .     S
O68    Zn71    1.934   .     S
O69    Zn72    1.942   .     S
O70    Zn73    1.937   .     S
C75    C85     1.436   .     S
C75    O139    1.268   .     A
C75    O141    1.263   .     A
C76    C104    1.411   .     A
C76    C77     1.387   .     A
C76    H116    1.079   .     S
C77    H115    1.083   .     S
C77    C745    1.401   .     S
C78    O142    1.273   .     A
C78    C84     1.460   .     S
C78    O140    1.283   .     A
C79    C81     1.419   .     A
C79    C80     1.422   .     A
C79    C743    1.401   1_554 S
C80    C83     1.404   .     A
C80    C105    1.430   .     A
C81    C82     1.409   .     A
C81    C96     1.452   .     S
C82    C100    1.451   .     S
C82    C94     1.405   .     A
C83    H114    1.078   .     S
C83    C94     1.391   .     A
C84    C159    1.354   .     S
C84    C172    1.453   .     S
C86    C101    1.451   .     S
C86    C95     1.405   .     A
C86    C93     1.413   .     A
C87    C90     1.454   .     S
C87    C310    1.346   .     S
C87    H330    1.088   .     S
C88    C89     1.426   .     S
C88    C531    1.346   1_545 S
C88    C543    1.450   1_545 S
C89    O143    1.273   .     A
C89    O137    1.274   .     A
C90    O144    1.274   .     A
C90    O138    1.262   .     A
C91    C94     1.463   .     S
C91    O135    1.280   .     A
C91    O133    1.282   .     A
C92    C93     1.489   .     S
C92    O136    1.289   .     A
C92    O134    1.286   .     A
C93    C97     1.408   .     A
C95    N129    1.438   .     S
C95    C103    1.431   .     A
C96    N790    1.157   1_554 S
C97    C102    1.421   .     A
C97    N131    1.440   .     S
C98    N125    1.157   .     T
C99    N127    1.158   .     T
C99    C310    1.450   .     S
C100   N128    1.157   .     T
C101   N130    1.158   .     T
C102   C103    1.425   .     A
C102   C104    1.424   .     A
C103   C773    1.424   .     S
C104   C771    1.415   .     S
C105   C106    1.423   .     A
C105   C770    1.415   1_554 S
C106   C107    1.408   .     A
C106   N123    1.440   .     S
C107   N122    1.435   .     S
C107   C769    1.424   1_554 S
H108   C531    1.088   1_545 S
H109   N129    1.045   .     S
H110   N131    1.046   .     S
H111   N131    1.043   .     S
H112   N123    1.045   .     S
H113   N123    1.044   .     S
H117   N122    1.045   .     S
H118   N122    1.046   .     S
H119   N126    1.046   .     S
H120   N126    1.046   .     S
H121   N795    1.045   1_554 S
N124   C762    1.157   .     S
N126   C159    1.437   .     S
N129   H787    1.045   .     S
O132   Zn145   1.956   .     S
O132   Zn148   1.929   .     S
O132   Zn146   1.949   .     S
O132   Zn147   1.935   .     S
O133   Zn146   1.913   .     S
O134   Zn148   1.923   .     S
O135   Zn147   1.920   .     S
O136   Zn145   1.909   .     S
O137   Zn145   1.939   .     S
O138   Zn148   1.940   .     S
O139   Zn146   1.934   .     S
O140   Zn147   1.945   .     S
O141   Zn148   1.944   .     S
O142   Zn145   1.934   .     S
O143   Zn146   1.942   .     S
O144   Zn147   1.937   .     S
C149   C159    1.436   .     S
C149   O213    1.268   .     A
C149   O215    1.263   .     A
C150   C178    1.411   .     A
C150   C151    1.387   .     A
C150   H190    1.079   .     S
C151   H189    1.083   .     S
C151   C819    1.401   .     S
C152   O216    1.273   .     A
C152   C158    1.460   .     S
C152   O214    1.283   .     A
C153   C155    1.419   .     A
C153   C154    1.422   .     A
C153   C817    1.401   1_554 S
C154   C157    1.404   .     A
C154   C179    1.430   .     A
C155   C156    1.409   .     A
C155   C170    1.452   .     S
C156   C174    1.451   .     S
C156   C168    1.405   .     A
C157   H188    1.078   .     S
C157   C168    1.391   .     A
C158   C11     1.354   1_655 S
C158   C24     1.453   1_655 S
C160   C175    1.451   .     S
C160   C169    1.405   .     A
C160   C167    1.413   .     A
C161   C164    1.454   .     S
C161   C384    1.346   .     S
C161   H404    1.088   .     S
C162   C163    1.426   .     S
C162   C605    1.346   1_545 S
C162   C617    1.450   1_545 S
C163   O217    1.273   .     A
C163   O211    1.274   .     A
C164   O218    1.274   .     A
C164   O212    1.262   .     A
C165   C168    1.463   .     S
C165   O209    1.280   .     A
C165   O207    1.282   .     A
C166   C167    1.489   .     S
C166   O210    1.289   .     A
C166   O208    1.286   .     A
C167   C171    1.408   .     A
C169   N203    1.438   .     S
C169   C177    1.431   .     A
C170   N864    1.157   1_554 S
C171   C176    1.421   .     A
C171   N205    1.440   .     S
C172   N199    1.157   .     T
C173   N201    1.158   .     T
C173   C384    1.450   .     S
C174   N202    1.157   .     T
C175   N204    1.158   .     T
C176   C177    1.425   .     A
C176   C178    1.424   .     A
C177   C847    1.424   .     S
C178   C845    1.415   .     S
C179   C180    1.423   .     A
C179   C844    1.415   1_554 S
C180   C181    1.408   .     A
C180   N197    1.440   .     S
C181   N196    1.435   .     S
C181   C843    1.424   1_554 S
H182   C605    1.088   1_545 S
H183   N203    1.045   .     S
H184   N205    1.046   .     S
H185   N205    1.043   .     S
H186   N197    1.045   .     S
H187   N197    1.044   .     S
H191   N196    1.045   .     S
H192   N196    1.046   .     S
H193   N200    1.046   .     S
H194   N200    1.046   .     S
H195   N869    1.045   1_554 S
N198   C836    1.157   .     S
N200   C11     1.437   1_655 S
N203   H861    1.045   .     S
O206   Zn219   1.956   .     S
O206   Zn222   1.929   .     S
O206   Zn220   1.949   .     S
O206   Zn221   1.935   .     S
O207   Zn220   1.913   .     S
O208   Zn222   1.923   .     S
O209   Zn221   1.920   .     S
O210   Zn219   1.909   .     S
O211   Zn219   1.939   .     S
O212   Zn222   1.940   .     S
O213   Zn220   1.934   .     S
O214   Zn221   1.945   .     S
O215   Zn222   1.944   .     S
O216   Zn219   1.934   .     S
O217   Zn220   1.942   .     S
O218   Zn221   1.937   .     S
C223   C233    1.436   .     S
C223   O287    1.268   .     A
C223   O289    1.263   .     A
C224   C252    1.411   .     A
C224   C225    1.387   .     A
C224   H264    1.079   .     S
C225   H263    1.083   .     S
C225   C893    1.401   .     S
C226   O290    1.273   .     A
C226   C232    1.460   .     S
C226   O288    1.283   .     A
C227   C229    1.419   .     A
C227   C228    1.422   .     A
C227   C891    1.401   1_554 S
C228   C231    1.404   .     A
C228   C253    1.430   .     A
C229   C230    1.409   .     A
C229   C244    1.452   .     S
C230   C248    1.451   .     S
C230   C242    1.405   .     A
C231   H262    1.078   .     S
C231   C242    1.391   .     A
C232   C307    1.354   .     S
C232   C320    1.453   .     S
C233   C380    1.354   1_455 S
C233   N422    1.437   1_455 S
C234   C249    1.451   .     S
C234   C243    1.405   .     A
C234   C241    1.413   .     A
C235   C238    1.454   .     S
C235   C458    1.346   .     S
C235   H478    1.088   .     S
C236   C237    1.426   .     S
C237   O291    1.273   .     A
C237   O285    1.274   .     A
C238   O292    1.274   .     A
C238   O286    1.262   .     A
C239   C242    1.463   .     S
C239   O283    1.280   .     A
C239   O281    1.282   .     A
C240   C241    1.489   .     S
C240   O284    1.289   .     A
C240   O282    1.286   .     A
C241   C245    1.408   .     A
C243   N277    1.438   .     S
C243   C251    1.431   .     A
C244   N938    1.157   1_554 S
C245   C250    1.421   .     A
C245   N279    1.440   .     S
C246   N273    1.157   .     T
C246   C380    1.453   1_455 S
C247   N275    1.158   .     T
C247   C458    1.450   .     S
C248   N276    1.157   .     T
C249   N278    1.158   .     T
C250   C251    1.425   .     A
C250   C252    1.424   .     A
C251   C921    1.424   .     S
C252   C919    1.415   .     S
C253   C254    1.423   .     A
C253   C918    1.415   1_554 S
C254   C255    1.408   .     A
C254   N271    1.440   .     S
C255   N270    1.435   .     S
C255   C917    1.424   1_554 S
H257   N277    1.045   .     S
H258   N279    1.046   .     S
H259   N279    1.043   .     S
H260   N271    1.045   .     S
H261   N271    1.044   .     S
H265   N270    1.045   .     S
H266   N270    1.046   .     S
H267   N274    1.046   .     S
H268   N274    1.046   .     S
H269   N943    1.045   1_554 S
N272   C910    1.157   .     S
N274   C307    1.437   .     S
N277   H935    1.045   .     S
O280   Zn293   1.956   .     S
O280   Zn296   1.929   .     S
O280   Zn294   1.949   .     S
O280   Zn295   1.935   .     S
O281   Zn294   1.913   .     S
O282   Zn296   1.923   .     S
O283   Zn295   1.920   .     S
O284   Zn293   1.909   .     S
O285   Zn293   1.939   .     S
O286   Zn296   1.940   .     S
O287   Zn294   1.934   .     S
O288   Zn295   1.945   .     S
O289   Zn296   1.944   .     S
O290   Zn293   1.934   .     S
O291   Zn294   1.942   .     S
O292   Zn295   1.937   .     S
C297   C307    1.436   .     S
C297   O361    1.268   .     A
C297   O363    1.263   .     A
C298   C326    1.411   .     A
C298   C299    1.387   .     A
C298   H338    1.079   .     S
C299   H337    1.083   .     S
C299   C967    1.401   .     S
C300   O364    1.273   .     A
C300   C306    1.460   .     S
C300   O362    1.283   .     A
C301   C303    1.419   .     A
C301   C302    1.422   .     A
C301   C965    1.401   1_554 S
C302   C305    1.404   .     A
C302   C327    1.430   .     A
C303   C304    1.409   .     A
C303   C318    1.452   .     S
C304   C322    1.451   .     S
C304   C316    1.405   .     A
C305   H336    1.078   .     S
C305   C316    1.391   .     A
C306   C381    1.354   .     S
C306   C394    1.453   .     S
C308   C323    1.451   .     S
C308   C317    1.405   .     A
C308   C315    1.413   .     A
C309   C312    1.454   .     S
C309   C532    1.346   .     S
C309   H552    1.088   .     S
C310   C311    1.426   .     S
C311   O365    1.273   .     A
C311   O359    1.274   .     A
C312   O366    1.274   .     A
C312   O360    1.262   .     A
C313   C316    1.463   .     S
C313   O357    1.280   .     A
C313   O355    1.282   .     A
C314   C315    1.489   .     S
C314   O358    1.289   .     A
C314   O356    1.286   .     A
C315   C319    1.408   .     A
C317   N351    1.438   .     S
C317   C325    1.431   .     A
C318   N1012   1.157   1_554 S
C319   C324    1.421   .     A
C319   N353    1.440   .     S
C320   N347    1.157   .     T
C321   N349    1.158   .     T
C321   C532    1.450   .     S
C322   N350    1.157   .     T
C323   N352    1.158   .     T
C324   C325    1.425   .     A
C324   C326    1.424   .     A
C325   C995    1.424   .     S
C326   C993    1.415   .     S
C327   C328    1.423   .     A
C327   C992    1.415   1_554 S
C328   C329    1.408   .     A
C328   N345    1.440   .     S
C329   N344    1.435   .     S
C329   C991    1.424   1_554 S
H331   N351    1.045   .     S
H332   N353    1.046   .     S
H333   N353    1.043   .     S
H334   N345    1.045   .     S
H335   N345    1.044   .     S
H339   N344    1.045   .     S
H340   N344    1.046   .     S
H341   N348    1.046   .     S
H342   N348    1.046   .     S
H343   N1017   1.045   1_554 S
N346   C984    1.157   .     S
N348   C381    1.437   .     S
N351   H1009   1.045   .     S
O354   Zn367   1.956   .     S
O354   Zn370   1.929   .     S
O354   Zn368   1.949   .     S
O354   Zn369   1.935   .     S
O355   Zn368   1.913   .     S
O356   Zn370   1.923   .     S
O357   Zn369   1.920   .     S
O358   Zn367   1.909   .     S
O359   Zn367   1.939   .     S
O360   Zn370   1.940   .     S
O361   Zn368   1.934   .     S
O362   Zn369   1.945   .     S
O363   Zn370   1.944   .     S
O364   Zn367   1.934   .     S
O365   Zn368   1.942   .     S
O366   Zn369   1.937   .     S
C371   C381    1.436   .     S
C371   O435    1.268   .     A
C371   O437    1.263   .     A
C372   C400    1.411   .     A
C372   C373    1.387   .     A
C372   H412    1.079   .     S
C373   H411    1.083   .     S
C373   C1041   1.401   .     S
C374   O438    1.273   .     A
C374   C380    1.460   .     S
C374   O436    1.283   .     A
C375   C377    1.419   .     A
C375   C376    1.422   .     A
C375   C1039   1.401   1_554 S
C376   C379    1.404   .     A
C376   C401    1.430   .     A
C377   C378    1.409   .     A
C377   C392    1.452   .     S
C378   C396    1.451   .     S
C378   C390    1.405   .     A
C379   H410    1.078   .     S
C379   C390    1.391   .     A
C380   C233    1.354   1_655 S
C380   C246    1.453   1_655 S
C382   C397    1.451   .     S
C382   C391    1.405   .     A
C382   C389    1.413   .     A
C383   C386    1.454   .     S
C383   C606    1.346   .     S
C383   H626    1.088   .     S
C384   C385    1.426   .     S
C385   O439    1.273   .     A
C385   O433    1.274   .     A
C386   O440    1.274   .     A
C386   O434    1.262   .     A
C387   C390    1.463   .     S
C387   O431    1.280   .     A
C387   O429    1.282   .     A
C388   C389    1.489   .     S
C388   O432    1.289   .     A
C388   O430    1.286   .     A
C389   C393    1.408   .     A
C391   N425    1.438   .     S
C391   C399    1.431   .     A
C392   N1086   1.157   1_554 S
C393   C398    1.421   .     A
C393   N427    1.440   .     S
C394   N421    1.157   .     T
C395   N423    1.158   .     T
C395   C606    1.450   .     S
C396   N424    1.157   .     T
C397   N426    1.158   .     T
C398   C399    1.425   .     A
C398   C400    1.424   .     A
C399   C1069   1.424   .     S
C400   C1067   1.415   .     S
C401   C402    1.423   .     A
C401   C1066   1.415   1_554 S
C402   C403    1.408   .     A
C402   N419    1.440   .     S
C403   N418    1.435   .     S
C403   C1065   1.424   1_554 S
H405   N425    1.045   .     S
H406   N427    1.046   .     S
H407   N427    1.043   .     S
H408   N419    1.045   .     S
H409   N419    1.044   .     S
H413   N418    1.045   .     S
H414   N418    1.046   .     S
H415   N422    1.046   .     S
H416   N422    1.046   .     S
H417   N1091   1.045   1_554 S
N420   C1058   1.157   .     S
N422   C233    1.437   1_655 S
N425   H1083   1.045   .     S
O428   Zn441   1.956   .     S
O428   Zn444   1.929   .     S
O428   Zn442   1.949   .     S
O428   Zn443   1.935   .     S
O429   Zn442   1.913   .     S
O430   Zn444   1.923   .     S
O431   Zn443   1.920   .     S
O432   Zn441   1.909   .     S
O433   Zn441   1.939   .     S
O434   Zn444   1.940   .     S
O435   Zn442   1.934   .     S
O436   Zn443   1.945   .     S
O437   Zn444   1.944   .     S
O438   Zn441   1.934   .     S
O439   Zn442   1.942   .     S
O440   Zn443   1.937   .     S
C445   C455    1.436   .     S
C445   O509    1.268   .     A
C445   O511    1.263   .     A
C446   C474    1.411   .     A
C446   C447    1.387   .     A
C446   H486    1.079   .     S
C447   H485    1.083   .     S
C447   C1115   1.401   .     S
C448   O512    1.273   .     A
C448   C454    1.460   .     S
C448   O510    1.283   .     A
C449   C451    1.419   .     A
C449   C450    1.422   .     A
C449   C1113   1.401   1_554 S
C450   C453    1.404   .     A
C450   C475    1.430   .     A
C451   C452    1.409   .     A
C451   C466    1.452   .     S
C452   C470    1.451   .     S
C452   C464    1.405   .     A
C453   H484    1.078   .     S
C453   C464    1.391   .     A
C454   C529    1.354   .     S
C454   C542    1.453   .     S
C455   C602    1.354   1_455 S
C455   N644    1.437   1_455 S
C456   C471    1.451   .     S
C456   C465    1.405   .     A
C456   C463    1.413   .     A
C457   C460    1.454   .     S
C457   C14     1.346   1_565 S
C457   H34     1.088   1_565 S
C458   C459    1.426   .     S
C459   O513    1.273   .     A
C459   O507    1.274   .     A
C460   O514    1.274   .     A
C460   O508    1.262   .     A
C461   C464    1.463   .     S
C461   O505    1.280   .     A
C461   O503    1.282   .     A
C462   C463    1.489   .     S
C462   O506    1.289   .     A
C462   O504    1.286   .     A
C463   C467    1.408   .     A
C465   N499    1.438   .     S
C465   C473    1.431   .     A
C466   N1160   1.157   1_554 S
C467   C472    1.421   .     A
C467   N501    1.440   .     S
C468   N495    1.157   .     T
C468   C602    1.453   1_455 S
C469   N497    1.158   .     T
C469   C14     1.450   1_565 S
C470   N498    1.157   .     T
C471   N500    1.158   .     T
C472   C473    1.425   .     A
C472   C474    1.424   .     A
C473   C1143   1.424   .     S
C474   C1141   1.415   .     S
C475   C476    1.423   .     A
C475   C1140   1.415   1_554 S
C476   C477    1.408   .     A
C476   N493    1.440   .     S
C477   N492    1.435   .     S
C477   C1139   1.424   1_554 S
H479   N499    1.045   .     S
H480   N501    1.046   .     S
H481   N501    1.043   .     S
H482   N493    1.045   .     S
H483   N493    1.044   .     S
H487   N492    1.045   .     S
H488   N492    1.046   .     S
H489   N496    1.046   .     S
H490   N496    1.046   .     S
H491   N1165   1.045   1_554 S
N494   C1132   1.157   .     S
N496   C529    1.437   .     S
N499   H1157   1.045   .     S
O502   Zn515   1.956   .     S
O502   Zn518   1.929   .     S
O502   Zn516   1.949   .     S
O502   Zn517   1.935   .     S
O503   Zn516   1.913   .     S
O504   Zn518   1.923   .     S
O505   Zn517   1.920   .     S
O506   Zn515   1.909   .     S
O507   Zn515   1.939   .     S
O508   Zn518   1.940   .     S
O509   Zn516   1.934   .     S
O510   Zn517   1.945   .     S
O511   Zn518   1.944   .     S
O512   Zn515   1.934   .     S
O513   Zn516   1.942   .     S
O514   Zn517   1.937   .     S
C519   C529    1.436   .     S
C519   O583    1.268   .     A
C519   O585    1.263   .     A
C520   C548    1.411   .     A
C520   C521    1.387   .     A
C520   H560    1.079   .     S
C521   H559    1.083   .     S
C521   C1189   1.401   .     S
C522   O586    1.273   .     A
C522   C528    1.460   .     S
C522   O584    1.283   .     A
C523   C525    1.419   .     A
C523   C524    1.422   .     A
C523   C1187   1.401   1_554 S
C524   C527    1.404   .     A
C524   C549    1.430   .     A
C525   C526    1.409   .     A
C525   C540    1.452   .     S
C526   C544    1.451   .     S
C526   C538    1.405   .     A
C527   H558    1.078   .     S
C527   C538    1.391   .     A
C528   C603    1.354   .     S
C528   C616    1.453   .     S
C530   C545    1.451   .     S
C530   C539    1.405   .     A
C530   C537    1.413   .     A
C531   C534    1.454   .     S
C531   C88     1.346   1_565 S
C531   H108    1.088   1_565 S
C532   C533    1.426   .     S
C533   O587    1.273   .     A
C533   O581    1.274   .     A
C534   O588    1.274   .     A
C534   O582    1.262   .     A
C535   C538    1.463   .     S
C535   O579    1.280   .     A
C535   O577    1.282   .     A
C536   C537    1.489   .     S
C536   O580    1.289   .     A
C536   O578    1.286   .     A
C537   C541    1.408   .     A
C539   N573    1.438   .     S
C539   C547    1.431   .     A
C540   N1234   1.157   1_554 S
C541   C546    1.421   .     A
C541   N575    1.440   .     S
C542   N569    1.157   .     T
C543   N571    1.158   .     T
C543   C88     1.450   1_565 S
C544   N572    1.157   .     T
C545   N574    1.158   .     T
C546   C547    1.425   .     A
C546   C548    1.424   .     A
C547   C1217   1.424   .     S
C548   C1215   1.415   .     S
C549   C550    1.423   .     A
C549   C1214   1.415   1_554 S
C550   C551    1.408   .     A
C550   N567    1.440   .     S
C551   N566    1.435   .     S
C551   C1213   1.424   1_554 S
H553   N573    1.045   .     S
H554   N575    1.046   .     S
H555   N575    1.043   .     S
H556   N567    1.045   .     S
H557   N567    1.044   .     S
H561   N566    1.045   .     S
H562   N566    1.046   .     S
H563   N570    1.046   .     S
H564   N570    1.046   .     S
H565   N1239   1.045   1_554 S
N568   C1206   1.157   .     S
N570   C603    1.437   .     S
N573   H1231   1.045   .     S
O576   Zn589   1.956   .     S
O576   Zn592   1.929   .     S
O576   Zn590   1.949   .     S
O576   Zn591   1.935   .     S
O577   Zn590   1.913   .     S
O578   Zn592   1.923   .     S
O579   Zn591   1.920   .     S
O580   Zn589   1.909   .     S
O581   Zn589   1.939   .     S
O582   Zn592   1.940   .     S
O583   Zn590   1.934   .     S
O584   Zn591   1.945   .     S
O585   Zn592   1.944   .     S
O586   Zn589   1.934   .     S
O587   Zn590   1.942   .     S
O588   Zn591   1.937   .     S
C593   C603    1.436   .     S
C593   O657    1.268   .     A
C593   O659    1.263   .     A
C594   C622    1.411   .     A
C594   C595    1.387   .     A
C594   H634    1.079   .     S
C595   H633    1.083   .     S
C595   C1263   1.401   .     S
C596   O660    1.273   .     A
C596   C602    1.460   .     S
C596   O658    1.283   .     A
C597   C599    1.419   .     A
C597   C598    1.422   .     A
C597   C1261   1.401   1_554 S
C598   C601    1.404   .     A
C598   C623    1.430   .     A
C599   C600    1.409   .     A
C599   C614    1.452   .     S
C600   C618    1.451   .     S
C600   C612    1.405   .     A
C601   H632    1.078   .     S
C601   C612    1.391   .     A
C602   C455    1.354   1_655 S
C602   C468    1.453   1_655 S
C604   C619    1.451   .     S
C604   C613    1.405   .     A
C604   C611    1.413   .     A
C605   C608    1.454   .     S
C605   C162    1.346   1_565 S
C605   H182    1.088   1_565 S
C606   C607    1.426   .     S
C607   O661    1.273   .     A
C607   O655    1.274   .     A
C608   O662    1.274   .     A
C608   O656    1.262   .     A
C609   C612    1.463   .     S
C609   O653    1.280   .     A
C609   O651    1.282   .     A
C610   C611    1.489   .     S
C610   O654    1.289   .     A
C610   O652    1.286   .     A
C611   C615    1.408   .     A
C613   N647    1.438   .     S
C613   C621    1.431   .     A
C614   N1308   1.157   1_554 S
C615   C620    1.421   .     A
C615   N649    1.440   .     S
C616   N643    1.157   .     T
C617   N645    1.158   .     T
C617   C162    1.450   1_565 S
C618   N646    1.157   .     T
C619   N648    1.158   .     T
C620   C621    1.425   .     A
C620   C622    1.424   .     A
C621   C1291   1.424   .     S
C622   C1289   1.415   .     S
C623   C624    1.423   .     A
C623   C1288   1.415   1_554 S
C624   C625    1.408   .     A
C624   N641    1.440   .     S
C625   N640    1.435   .     S
C625   C1287   1.424   1_554 S
H627   N647    1.045   .     S
H628   N649    1.046   .     S
H629   N649    1.043   .     S
H630   N641    1.045   .     S
H631   N641    1.044   .     S
H635   N640    1.045   .     S
H636   N640    1.046   .     S
H637   N644    1.046   .     S
H638   N644    1.046   .     S
H639   N1313   1.045   1_554 S
N642   C1280   1.157   .     S
N644   C455    1.437   1_655 S
N647   H1305   1.045   .     S
O650   Zn663   1.956   .     S
O650   Zn666   1.929   .     S
O650   Zn664   1.949   .     S
O650   Zn665   1.935   .     S
O651   Zn664   1.913   .     S
O652   Zn666   1.923   .     S
O653   Zn665   1.920   .     S
O654   Zn663   1.909   .     S
O655   Zn663   1.939   .     S
O656   Zn666   1.940   .     S
O657   Zn664   1.934   .     S
O658   Zn665   1.945   .     S
O659   Zn666   1.944   .     S
O660   Zn663   1.934   .     S
O661   Zn664   1.942   .     S
O662   Zn665   1.937   .     S
C667   C677    1.436   .     S
C667   O731    1.268   .     A
C667   O733    1.263   .     A
C668   C696    1.411   .     A
C668   C669    1.387   .     A
C668   H708    1.079   .     S
C669   H707    1.083   .     S
C669   C5      1.401   1_556 S
C670   O734    1.273   .     A
C670   C676    1.460   .     S
C670   O732    1.283   .     A
C671   C673    1.419   .     A
C671   C672    1.422   .     A
C672   C675    1.404   .     A
C672   C697    1.430   .     A
C673   C674    1.409   .     A
C673   C688    1.452   .     S
C674   C692    1.451   .     S
C674   C686    1.405   .     A
C675   H706    1.078   .     S
C675   C686    1.391   .     A
C676   C751    1.354   .     S
C676   C764    1.453   .     S
C677   C824    1.354   1_455 S
C677   N866    1.437   1_455 S
C678   C693    1.451   .     S
C678   C687    1.405   .     A
C678   C685    1.413   .     A
C679   C682    1.454   .     S
C679   C902    1.346   .     S
C679   H922    1.088   .     S
C680   C681    1.426   .     S
C680   C1123   1.346   1_545 S
C680   C1135   1.450   1_545 S
C681   O735    1.273   .     A
C681   O729    1.274   .     A
C682   O736    1.274   .     A
C682   O730    1.262   .     A
C683   C686    1.463   .     S
C683   O727    1.280   .     A
C683   O725    1.282   .     A
C684   C685    1.489   .     S
C684   O728    1.289   .     A
C684   O726    1.286   .     A
C685   C689    1.408   .     A
C687   N721    1.438   .     S
C687   C695    1.431   .     A
C689   C694    1.421   .     A
C689   N723    1.440   .     S
C690   N717    1.157   .     T
C690   C824    1.453   1_455 S
C691   N719    1.158   .     T
C691   C902    1.450   .     S
C692   N720    1.157   .     T
C693   N722    1.158   .     T
C694   C695    1.425   .     A
C694   C696    1.424   .     A
C695   C33     1.424   1_556 S
C696   C31     1.415   1_556 S
C697   C698    1.423   .     A
C698   C699    1.408   .     A
C698   N715    1.440   .     S
C699   N714    1.435   .     S
H700   C1123   1.088   1_545 S
H701   N721    1.045   .     S
H702   N723    1.046   .     S
H703   N723    1.043   .     S
H704   N715    1.045   .     S
H705   N715    1.044   .     S
H709   N714    1.045   .     S
H710   N714    1.046   .     S
H711   N718    1.046   .     S
H712   N718    1.046   .     S
N716   C22     1.157   1_556 S
N718   C751    1.437   .     S
N721   H47     1.045   1_556 S
O724   Zn737   1.956   .     S
O724   Zn740   1.929   .     S
O724   Zn738   1.949   .     S
O724   Zn739   1.935   .     S
O725   Zn738   1.913   .     S
O726   Zn740   1.923   .     S
O727   Zn739   1.920   .     S
O728   Zn737   1.909   .     S
O729   Zn737   1.939   .     S
O730   Zn740   1.940   .     S
O731   Zn738   1.934   .     S
O732   Zn739   1.945   .     S
O733   Zn740   1.944   .     S
O734   Zn737   1.934   .     S
O735   Zn738   1.942   .     S
O736   Zn739   1.937   .     S
C741   C751    1.436   .     S
C741   O805    1.268   .     A
C741   O807    1.263   .     A
C742   C770    1.411   .     A
C742   C743    1.387   .     A
C742   H782    1.079   .     S
C743   H781    1.083   .     S
C743   C79     1.401   1_556 S
C744   O808    1.273   .     A
C744   C750    1.460   .     S
C744   O806    1.283   .     A
C745   C747    1.419   .     A
C745   C746    1.422   .     A
C746   C749    1.404   .     A
C746   C771    1.430   .     A
C747   C748    1.409   .     A
C747   C762    1.452   .     S
C748   C766    1.451   .     S
C748   C760    1.405   .     A
C749   H780    1.078   .     S
C749   C760    1.391   .     A
C750   C825    1.354   .     S
C750   C838    1.453   .     S
C752   C767    1.451   .     S
C752   C761    1.405   .     A
C752   C759    1.413   .     A
C753   C756    1.454   .     S
C753   C976    1.346   .     S
C753   H996    1.088   .     S
C754   C755    1.426   .     S
C754   C1197   1.346   1_545 S
C754   C1209   1.450   1_545 S
C755   O809    1.273   .     A
C755   O803    1.274   .     A
C756   O810    1.274   .     A
C756   O804    1.262   .     A
C757   C760    1.463   .     S
C757   O801    1.280   .     A
C757   O799    1.282   .     A
C758   C759    1.489   .     S
C758   O802    1.289   .     A
C758   O800    1.286   .     A
C759   C763    1.408   .     A
C761   N795    1.438   .     S
C761   C769    1.431   .     A
C763   C768    1.421   .     A
C763   N797    1.440   .     S
C764   N791    1.157   .     T
C765   N793    1.158   .     T
C765   C976    1.450   .     S
C766   N794    1.157   .     T
C767   N796    1.158   .     T
C768   C769    1.425   .     A
C768   C770    1.424   .     A
C769   C107    1.424   1_556 S
C770   C105    1.415   1_556 S
C771   C772    1.423   .     A
C772   C773    1.408   .     A
C772   N789    1.440   .     S
C773   N788    1.435   .     S
H774   C1197   1.088   1_545 S
H775   N795    1.045   .     S
H776   N797    1.046   .     S
H777   N797    1.043   .     S
H778   N789    1.045   .     S
H779   N789    1.044   .     S
H783   N788    1.045   .     S
H784   N788    1.046   .     S
H785   N792    1.046   .     S
H786   N792    1.046   .     S
N790   C96     1.157   1_556 S
N792   C825    1.437   .     S
N795   H121    1.045   1_556 S
O798   Zn811   1.956   .     S
O798   Zn814   1.929   .     S
O798   Zn812   1.949   .     S
O798   Zn813   1.935   .     S
O799   Zn812   1.913   .     S
O800   Zn814   1.923   .     S
O801   Zn813   1.920   .     S
O802   Zn811   1.909   .     S
O803   Zn811   1.939   .     S
O804   Zn814   1.940   .     S
O805   Zn812   1.934   .     S
O806   Zn813   1.945   .     S
O807   Zn814   1.944   .     S
O808   Zn811   1.934   .     S
O809   Zn812   1.942   .     S
O810   Zn813   1.937   .     S
C815   C825    1.436   .     S
C815   O879    1.268   .     A
C815   O881    1.263   .     A
C816   C844    1.411   .     A
C816   C817    1.387   .     A
C816   H856    1.079   .     S
C817   H855    1.083   .     S
C817   C153    1.401   1_556 S
C818   O882    1.273   .     A
C818   C824    1.460   .     S
C818   O880    1.283   .     A
C819   C821    1.419   .     A
C819   C820    1.422   .     A
C820   C823    1.404   .     A
C820   C845    1.430   .     A
C821   C822    1.409   .     A
C821   C836    1.452   .     S
C822   C840    1.451   .     S
C822   C834    1.405   .     A
C823   H854    1.078   .     S
C823   C834    1.391   .     A
C824   C677    1.354   1_655 S
C824   C690    1.453   1_655 S
C826   C841    1.451   .     S
C826   C835    1.405   .     A
C826   C833    1.413   .     A
C827   C830    1.454   .     S
C827   C1050   1.346   .     S
C827   H1070   1.088   .     S
C828   C829    1.426   .     S
C828   C1271   1.346   1_545 S
C828   C1283   1.450   1_545 S
C829   O883    1.273   .     A
C829   O877    1.274   .     A
C830   O884    1.274   .     A
C830   O878    1.262   .     A
C831   C834    1.463   .     S
C831   O875    1.280   .     A
C831   O873    1.282   .     A
C832   C833    1.489   .     S
C832   O876    1.289   .     A
C832   O874    1.286   .     A
C833   C837    1.408   .     A
C835   N869    1.438   .     S
C835   C843    1.431   .     A
C837   C842    1.421   .     A
C837   N871    1.440   .     S
C838   N865    1.157   .     T
C839   N867    1.158   .     T
C839   C1050   1.450   .     S
C840   N868    1.157   .     T
C841   N870    1.158   .     T
C842   C843    1.425   .     A
C842   C844    1.424   .     A
C843   C181    1.424   1_556 S
C844   C179    1.415   1_556 S
C845   C846    1.423   .     A
C846   C847    1.408   .     A
C846   N863    1.440   .     S
C847   N862    1.435   .     S
H848   C1271   1.088   1_545 S
H849   N869    1.045   .     S
H850   N871    1.046   .     S
H851   N871    1.043   .     S
H852   N863    1.045   .     S
H853   N863    1.044   .     S
H857   N862    1.045   .     S
H858   N862    1.046   .     S
H859   N866    1.046   .     S
H860   N866    1.046   .     S
N864   C170    1.157   1_556 S
N866   C677    1.437   1_655 S
N869   H195    1.045   1_556 S
O872   Zn885   1.956   .     S
O872   Zn888   1.929   .     S
O872   Zn886   1.949   .     S
O872   Zn887   1.935   .     S
O873   Zn886   1.913   .     S
O874   Zn888   1.923   .     S
O875   Zn887   1.920   .     S
O876   Zn885   1.909   .     S
O877   Zn885   1.939   .     S
O878   Zn888   1.940   .     S
O879   Zn886   1.934   .     S
O880   Zn887   1.945   .     S
O881   Zn888   1.944   .     S
O882   Zn885   1.934   .     S
O883   Zn886   1.942   .     S
O884   Zn887   1.937   .     S
C889   C899    1.436   .     S
C889   O953    1.268   .     A
C889   O955    1.263   .     A
C890   C918    1.411   .     A
C890   C891    1.387   .     A
C890   H930    1.079   .     S
C891   H929    1.083   .     S
C891   C227    1.401   1_556 S
C892   O956    1.273   .     A
C892   C898    1.460   .     S
C892   O954    1.283   .     A
C893   C895    1.419   .     A
C893   C894    1.422   .     A
C894   C897    1.404   .     A
C894   C919    1.430   .     A
C895   C896    1.409   .     A
C895   C910    1.452   .     S
C896   C914    1.451   .     S
C896   C908    1.405   .     A
C897   H928    1.078   .     S
C897   C908    1.391   .     A
C898   C973    1.354   .     S
C898   C986    1.453   .     S
C899   C1046   1.354   1_455 S
C899   N1088   1.437   1_455 S
C900   C915    1.451   .     S
C900   C909    1.405   .     A
C900   C907    1.413   .     A
C901   C904    1.454   .     S
C901   C1124   1.346   .     S
C901   H1144   1.088   .     S
C902   C903    1.426   .     S
C903   O957    1.273   .     A
C903   O951    1.274   .     A
C904   O958    1.274   .     A
C904   O952    1.262   .     A
C905   C908    1.463   .     S
C905   O949    1.280   .     A
C905   O947    1.282   .     A
C906   C907    1.489   .     S
C906   O950    1.289   .     A
C906   O948    1.286   .     A
C907   C911    1.408   .     A
C909   N943    1.438   .     S
C909   C917    1.431   .     A
C911   C916    1.421   .     A
C911   N945    1.440   .     S
C912   N939    1.157   .     T
C912   C1046   1.453   1_455 S
C913   N941    1.158   .     T
C913   C1124   1.450   .     S
C914   N942    1.157   .     T
C915   N944    1.158   .     T
C916   C917    1.425   .     A
C916   C918    1.424   .     A
C917   C255    1.424   1_556 S
C918   C253    1.415   1_556 S
C919   C920    1.423   .     A
C920   C921    1.408   .     A
C920   N937    1.440   .     S
C921   N936    1.435   .     S
H923   N943    1.045   .     S
H924   N945    1.046   .     S
H925   N945    1.043   .     S
H926   N937    1.045   .     S
H927   N937    1.044   .     S
H931   N936    1.045   .     S
H932   N936    1.046   .     S
H933   N940    1.046   .     S
H934   N940    1.046   .     S
N938   C244    1.157   1_556 S
N940   C973    1.437   .     S
N943   H269    1.045   1_556 S
O946   Zn959   1.956   .     S
O946   Zn962   1.929   .     S
O946   Zn960   1.949   .     S
O946   Zn961   1.935   .     S
O947   Zn960   1.913   .     S
O948   Zn962   1.923   .     S
O949   Zn961   1.920   .     S
O950   Zn959   1.909   .     S
O951   Zn959   1.939   .     S
O952   Zn962   1.940   .     S
O953   Zn960   1.934   .     S
O954   Zn961   1.945   .     S
O955   Zn962   1.944   .     S
O956   Zn959   1.934   .     S
O957   Zn960   1.942   .     S
O958   Zn961   1.937   .     S
C963   C973    1.436   .     S
C963   O1027   1.268   .     A
C963   O1029   1.263   .     A
C964   C992    1.411   .     A
C964   C965    1.387   .     A
C964   H1004   1.079   .     S
C965   H1003   1.083   .     S
C965   C301    1.401   1_556 S
C966   O1030   1.273   .     A
C966   C972    1.460   .     S
C966   O1028   1.283   .     A
C967   C969    1.419   .     A
C967   C968    1.422   .     A
C968   C971    1.404   .     A
C968   C993    1.430   .     A
C969   C970    1.409   .     A
C969   C984    1.452   .     S
C970   C988    1.451   .     S
C970   C982    1.405   .     A
C971   H1002   1.078   .     S
C971   C982    1.391   .     A
C972   C1047   1.354   .     S
C972   C1060   1.453   .     S
C974   C989    1.451   .     S
C974   C983    1.405   .     A
C974   C981    1.413   .     A
C975   C978    1.454   .     S
C975   C1198   1.346   .     S
C975   H1218   1.088   .     S
C976   C977    1.426   .     S
C977   O1031   1.273   .     A
C977   O1025   1.274   .     A
C978   O1032   1.274   .     A
C978   O1026   1.262   .     A
C979   C982    1.463   .     S
C979   O1023   1.280   .     A
C979   O1021   1.282   .     A
C980   C981    1.489   .     S
C980   O1024   1.289   .     A
C980   O1022   1.286   .     A
C981   C985    1.408   .     A
C983   N1017   1.438   .     S
C983   C991    1.431   .     A
C985   C990    1.421   .     A
C985   N1019   1.440   .     S
C986   N1013   1.157   .     T
C987   N1015   1.158   .     T
C987   C1198   1.450   .     S
C988   N1016   1.157   .     T
C989   N1018   1.158   .     T
C990   C991    1.425   .     A
C990   C992    1.424   .     A
C991   C329    1.424   1_556 S
C992   C327    1.415   1_556 S
C993   C994    1.423   .     A
C994   C995    1.408   .     A
C994   N1011   1.440   .     S
C995   N1010   1.435   .     S
H997   N1017   1.045   .     S
H998   N1019   1.046   .     S
H999   N1019   1.043   .     S
H1000  N1011   1.045   .     S
H1001  N1011   1.044   .     S
H1005  N1010   1.045   .     S
H1006  N1010   1.046   .     S
H1007  N1014   1.046   .     S
H1008  N1014   1.046   .     S
N1012  C318    1.157   1_556 S
N1014  C1047   1.437   .     S
N1017  H343    1.045   1_556 S
O1020  Zn1033  1.956   .     S
O1020  Zn1036  1.929   .     S
O1020  Zn1034  1.949   .     S
O1020  Zn1035  1.935   .     S
O1021  Zn1034  1.913   .     S
O1022  Zn1036  1.923   .     S
O1023  Zn1035  1.920   .     S
O1024  Zn1033  1.909   .     S
O1025  Zn1033  1.939   .     S
O1026  Zn1036  1.940   .     S
O1027  Zn1034  1.934   .     S
O1028  Zn1035  1.945   .     S
O1029  Zn1036  1.944   .     S
O1030  Zn1033  1.934   .     S
O1031  Zn1034  1.942   .     S
O1032  Zn1035  1.937   .     S
C1037  C1047   1.436   .     S
C1037  O1101   1.268   .     A
C1037  O1103   1.263   .     A
C1038  C1066   1.411   .     A
C1038  C1039   1.387   .     A
C1038  H1078   1.079   .     S
C1039  H1077   1.083   .     S
C1039  C375    1.401   1_556 S
C1040  O1104   1.273   .     A
C1040  C1046   1.460   .     S
C1040  O1102   1.283   .     A
C1041  C1043   1.419   .     A
C1041  C1042   1.422   .     A
C1042  C1045   1.404   .     A
C1042  C1067   1.430   .     A
C1043  C1044   1.409   .     A
C1043  C1058   1.452   .     S
C1044  C1062   1.451   .     S
C1044  C1056   1.405   .     A
C1045  H1076   1.078   .     S
C1045  C1056   1.391   .     A
C1046  C899    1.354   1_655 S
C1046  C912    1.453   1_655 S
C1048  C1063   1.451   .     S
C1048  C1057   1.405   .     A
C1048  C1055   1.413   .     A
C1049  C1052   1.454   .     S
C1049  C1272   1.346   .     S
C1049  H1292   1.088   .     S
C1050  C1051   1.426   .     S
C1051  O1105   1.273   .     A
C1051  O1099   1.274   .     A
C1052  O1106   1.274   .     A
C1052  O1100   1.262   .     A
C1053  C1056   1.463   .     S
C1053  O1097   1.280   .     A
C1053  O1095   1.282   .     A
C1054  C1055   1.489   .     S
C1054  O1098   1.289   .     A
C1054  O1096   1.286   .     A
C1055  C1059   1.408   .     A
C1057  N1091   1.438   .     S
C1057  C1065   1.431   .     A
C1059  C1064   1.421   .     A
C1059  N1093   1.440   .     S
C1060  N1087   1.157   .     T
C1061  N1089   1.158   .     T
C1061  C1272   1.450   .     S
C1062  N1090   1.157   .     T
C1063  N1092   1.158   .     T
C1064  C1065   1.425   .     A
C1064  C1066   1.424   .     A
C1065  C403    1.424   1_556 S
C1066  C401    1.415   1_556 S
C1067  C1068   1.423   .     A
C1068  C1069   1.408   .     A
C1068  N1085   1.440   .     S
C1069  N1084   1.435   .     S
H1071  N1091   1.045   .     S
H1072  N1093   1.046   .     S
H1073  N1093   1.043   .     S
H1074  N1085   1.045   .     S
H1075  N1085   1.044   .     S
H1079  N1084   1.045   .     S
H1080  N1084   1.046   .     S
H1081  N1088   1.046   .     S
H1082  N1088   1.046   .     S
N1086  C392    1.157   1_556 S
N1088  C899    1.437   1_655 S
N1091  H417    1.045   1_556 S
O1094  Zn1107  1.956   .     S
O1094  Zn1110  1.929   .     S
O1094  Zn1108  1.949   .     S
O1094  Zn1109  1.935   .     S
O1095  Zn1108  1.913   .     S
O1096  Zn1110  1.923   .     S
O1097  Zn1109  1.920   .     S
O1098  Zn1107  1.909   .     S
O1099  Zn1107  1.939   .     S
O1100  Zn1110  1.940   .     S
O1101  Zn1108  1.934   .     S
O1102  Zn1109  1.945   .     S
O1103  Zn1110  1.944   .     S
O1104  Zn1107  1.934   .     S
O1105  Zn1108  1.942   .     S
O1106  Zn1109  1.937   .     S
C1111  C1121   1.436   .     S
C1111  O1175   1.268   .     A
C1111  O1177   1.263   .     A
C1112  C1140   1.411   .     A
C1112  C1113   1.387   .     A
C1112  H1152   1.079   .     S
C1113  H1151   1.083   .     S
C1113  C449    1.401   1_556 S
C1114  O1178   1.273   .     A
C1114  C1120   1.460   .     S
C1114  O1176   1.283   .     A
C1115  C1117   1.419   .     A
C1115  C1116   1.422   .     A
C1116  C1119   1.404   .     A
C1116  C1141   1.430   .     A
C1117  C1118   1.409   .     A
C1117  C1132   1.452   .     S
C1118  C1136   1.451   .     S
C1118  C1130   1.405   .     A
C1119  H1150   1.078   .     S
C1119  C1130   1.391   .     A
C1120  C1195   1.354   .     S
C1120  C1208   1.453   .     S
C1121  C1268   1.354   1_455 S
C1121  N1310   1.437   1_455 S
C1122  C1137   1.451   .     S
C1122  C1131   1.405   .     A
C1122  C1129   1.413   .     A
C1123  C1126   1.454   .     S
C1123  C680    1.346   1_565 S
C1123  H700    1.088   1_565 S
C1124  C1125   1.426   .     S
C1125  O1179   1.273   .     A
C1125  O1173   1.274   .     A
C1126  O1180   1.274   .     A
C1126  O1174   1.262   .     A
C1127  C1130   1.463   .     S
C1127  O1171   1.280   .     A
C1127  O1169   1.282   .     A
C1128  C1129   1.489   .     S
C1128  O1172   1.289   .     A
C1128  O1170   1.286   .     A
C1129  C1133   1.408   .     A
C1131  N1165   1.438   .     S
C1131  C1139   1.431   .     A
C1133  C1138   1.421   .     A
C1133  N1167   1.440   .     S
C1134  N1161   1.157   .     T
C1134  C1268   1.453   1_455 S
C1135  N1163   1.158   .     T
C1135  C680    1.450   1_565 S
C1136  N1164   1.157   .     T
C1137  N1166   1.158   .     T
C1138  C1139   1.425   .     A
C1138  C1140   1.424   .     A
C1139  C477    1.424   1_556 S
C1140  C475    1.415   1_556 S
C1141  C1142   1.423   .     A
C1142  C1143   1.408   .     A
C1142  N1159   1.440   .     S
C1143  N1158   1.435   .     S
H1145  N1165   1.045   .     S
H1146  N1167   1.046   .     S
H1147  N1167   1.043   .     S
H1148  N1159   1.045   .     S
H1149  N1159   1.044   .     S
H1153  N1158   1.045   .     S
H1154  N1158   1.046   .     S
H1155  N1162   1.046   .     S
H1156  N1162   1.046   .     S
N1160  C466    1.157   1_556 S
N1162  C1195   1.437   .     S
N1165  H491    1.045   1_556 S
O1168  Zn1181  1.956   .     S
O1168  Zn1184  1.929   .     S
O1168  Zn1182  1.949   .     S
O1168  Zn1183  1.935   .     S
O1169  Zn1182  1.913   .     S
O1170  Zn1184  1.923   .     S
O1171  Zn1183  1.920   .     S
O1172  Zn1181  1.909   .     S
O1173  Zn1181  1.939   .     S
O1174  Zn1184  1.940   .     S
O1175  Zn1182  1.934   .     S
O1176  Zn1183  1.945   .     S
O1177  Zn1184  1.944   .     S
O1178  Zn1181  1.934   .     S
O1179  Zn1182  1.942   .     S
O1180  Zn1183  1.937   .     S
C1185  C1195   1.436   .     S
C1185  O1249   1.268   .     A
C1185  O1251   1.263   .     A
C1186  C1214   1.411   .     A
C1186  C1187   1.387   .     A
C1186  H1226   1.079   .     S
C1187  H1225   1.083   .     S
C1187  C523    1.401   1_556 S
C1188  O1252   1.273   .     A
C1188  C1194   1.460   .     S
C1188  O1250   1.283   .     A
C1189  C1191   1.419   .     A
C1189  C1190   1.422   .     A
C1190  C1193   1.404   .     A
C1190  C1215   1.430   .     A
C1191  C1192   1.409   .     A
C1191  C1206   1.452   .     S
C1192  C1210   1.451   .     S
C1192  C1204   1.405   .     A
C1193  H1224   1.078   .     S
C1193  C1204   1.391   .     A
C1194  C1269   1.354   .     S
C1194  C1282   1.453   .     S
C1196  C1211   1.451   .     S
C1196  C1205   1.405   .     A
C1196  C1203   1.413   .     A
C1197  C1200   1.454   .     S
C1197  C754    1.346   1_565 S
C1197  H774    1.088   1_565 S
C1198  C1199   1.426   .     S
C1199  O1253   1.273   .     A
C1199  O1247   1.274   .     A
C1200  O1254   1.274   .     A
C1200  O1248   1.262   .     A
C1201  C1204   1.463   .     S
C1201  O1245   1.280   .     A
C1201  O1243   1.282   .     A
C1202  C1203   1.489   .     S
C1202  O1246   1.289   .     A
C1202  O1244   1.286   .     A
C1203  C1207   1.408   .     A
C1205  N1239   1.438   .     S
C1205  C1213   1.431   .     A
C1207  C1212   1.421   .     A
C1207  N1241   1.440   .     S
C1208  N1235   1.157   .     T
C1209  N1237   1.158   .     T
C1209  C754    1.450   1_565 S
C1210  N1238   1.157   .     T
C1211  N1240   1.158   .     T
C1212  C1213   1.425   .     A
C1212  C1214   1.424   .     A
C1213  C551    1.424   1_556 S
C1214  C549    1.415   1_556 S
C1215  C1216   1.423   .     A
C1216  C1217   1.408   .     A
C1216  N1233   1.440   .     S
C1217  N1232   1.435   .     S
H1219  N1239   1.045   .     S
H1220  N1241   1.046   .     S
H1221  N1241   1.043   .     S
H1222  N1233   1.045   .     S
H1223  N1233   1.044   .     S
H1227  N1232   1.045   .     S
H1228  N1232   1.046   .     S
H1229  N1236   1.046   .     S
H1230  N1236   1.046   .     S
N1234  C540    1.157   1_556 S
N1236  C1269   1.437   .     S
N1239  H565    1.045   1_556 S
O1242  Zn1255  1.956   .     S
O1242  Zn1258  1.929   .     S
O1242  Zn1256  1.949   .     S
O1242  Zn1257  1.935   .     S
O1243  Zn1256  1.913   .     S
O1244  Zn1258  1.923   .     S
O1245  Zn1257  1.920   .     S
O1246  Zn1255  1.909   .     S
O1247  Zn1255  1.939   .     S
O1248  Zn1258  1.940   .     S
O1249  Zn1256  1.934   .     S
O1250  Zn1257  1.945   .     S
O1251  Zn1258  1.944   .     S
O1252  Zn1255  1.934   .     S
O1253  Zn1256  1.942   .     S
O1254  Zn1257  1.937   .     S
C1259  C1269   1.436   .     S
C1259  O1323   1.268   .     A
C1259  O1325   1.263   .     A
C1260  C1288   1.411   .     A
C1260  C1261   1.387   .     A
C1260  H1300   1.079   .     S
C1261  H1299   1.083   .     S
C1261  C597    1.401   1_556 S
C1262  O1326   1.273   .     A
C1262  C1268   1.460   .     S
C1262  O1324   1.283   .     A
C1263  C1265   1.419   .     A
C1263  C1264   1.422   .     A
C1264  C1267   1.404   .     A
C1264  C1289   1.430   .     A
C1265  C1266   1.409   .     A
C1265  C1280   1.452   .     S
C1266  C1284   1.451   .     S
C1266  C1278   1.405   .     A
C1267  H1298   1.078   .     S
C1267  C1278   1.391   .     A
C1268  C1121   1.354   1_655 S
C1268  C1134   1.453   1_655 S
C1270  C1285   1.451   .     S
C1270  C1279   1.405   .     A
C1270  C1277   1.413   .     A
C1271  C1274   1.454   .     S
C1271  C828    1.346   1_565 S
C1271  H848    1.088   1_565 S
C1272  C1273   1.426   .     S
C1273  O1327   1.273   .     A
C1273  O1321   1.274   .     A
C1274  O1328   1.274   .     A
C1274  O1322   1.262   .     A
C1275  C1278   1.463   .     S
C1275  O1319   1.280   .     A
C1275  O1317   1.282   .     A
C1276  C1277   1.489   .     S
C1276  O1320   1.289   .     A
C1276  O1318   1.286   .     A
C1277  C1281   1.408   .     A
C1279  N1313   1.438   .     S
C1279  C1287   1.431   .     A
C1281  C1286   1.421   .     A
C1281  N1315   1.440   .     S
C1282  N1309   1.157   .     T
C1283  N1311   1.158   .     T
C1283  C828    1.450   1_565 S
C1284  N1312   1.157   .     T
C1285  N1314   1.158   .     T
C1286  C1287   1.425   .     A
C1286  C1288   1.424   .     A
C1287  C625    1.424   1_556 S
C1288  C623    1.415   1_556 S
C1289  C1290   1.423   .     A
C1290  C1291   1.408   .     A
C1290  N1307   1.440   .     S
C1291  N1306   1.435   .     S
H1293  N1313   1.045   .     S
H1294  N1315   1.046   .     S
H1295  N1315   1.043   .     S
H1296  N1307   1.045   .     S
H1297  N1307   1.044   .     S
H1301  N1306   1.045   .     S
H1302  N1306   1.046   .     S
H1303  N1310   1.046   .     S
H1304  N1310   1.046   .     S
N1308  C614    1.157   1_556 S
N1310  C1121   1.437   1_655 S
N1313  H639    1.045   1_556 S
O1316  Zn1329  1.956   .     S
O1316  Zn1332  1.929   .     S
O1316  Zn1330  1.949   .     S
O1316  Zn1331  1.935   .     S
O1317  Zn1330  1.913   .     S
O1318  Zn1332  1.923   .     S
O1319  Zn1331  1.920   .     S
O1320  Zn1329  1.909   .     S
O1321  Zn1329  1.939   .     S
O1322  Zn1332  1.940   .     S
O1323  Zn1330  1.934   .     S
O1324  Zn1331  1.945   .     S
O1325  Zn1332  1.944   .     S
O1326  Zn1329  1.934   .     S
O1327  Zn1330  1.942   .     S
O1328  Zn1331  1.937   .     S
