data_str_m3_o1_o16_pcu_sym.87
_audit_creation_date              2020-01-03
_audit_creation_method            'Materials Studio'
_symmetry_space_group_name_H-M    'P1'
_symmetry_Int_Tables_number       1
_symmetry_cell_setting            triclinic
loop_
_symmetry_equiv_pos_as_xyz
  x,y,z
_cell_length_a                    29.5278
_cell_length_b                    32.0075
_cell_length_c                    26.2479
_cell_angle_alpha                 90.1459
_cell_angle_beta                  69.9960
_cell_angle_gamma                 89.8235
loop_
_atom_site_label
_atom_site_type_symbol
_atom_site_fract_x
_atom_site_fract_y
_atom_site_fract_z
_atom_site_U_iso_or_equiv
_atom_site_adp_type
_atom_site_occupancy
C1     C     0.16701   0.24666   0.24845   0.00000  Uiso   1.00
C2     C     0.14391   0.15478   0.49208   0.00000  Uiso   1.00
C3     C     0.15444   0.14480   0.43713   0.00000  Uiso   1.00
C4     C     0.18124   0.15106   0.01410   0.00000  Uiso   1.00
C5     C     0.22549   0.13083   0.48452   0.00000  Uiso   1.00
C6     C     0.23209   0.11498   0.43256   0.00000  Uiso   1.00
C7     C     0.19662   0.12167   0.40969   0.00000  Uiso   1.00
C8     C     0.17601   0.16839   0.06439   0.00000  Uiso   1.00
C9     C     0.25311   0.14065   0.06100   0.00000  Uiso   1.00
C10    C     0.12276   0.15897   0.41086   0.00000  Uiso   1.00
C11    C     0.19113   0.31173   0.27672   0.00000  Uiso   1.00
C12    C     0.14003   0.16398   0.35204   0.00000  Uiso   1.00
C13    C     0.19138   0.02117   0.27742   0.00000  Uiso   1.00
C14    C     0.16742   0.04272   0.24824   0.00000  Uiso   1.00
C15    C     0.14436   0.02239   0.21702   0.00000  Uiso   1.00
C16    C     0.14442   0.31263   0.21517   0.00000  Uiso   1.00
C17    C     0.16733   0.29090   0.24644   0.00000  Uiso   1.00
C18    C     0.32032   0.14239   0.21414   0.00000  Uiso   1.00
C19    C     0.03494   0.14239   0.21417   0.00000  Uiso   1.00
C20    C     0.01299   0.19088   0.28593   0.00000  Uiso   1.00
C21    C     0.29837   0.19088   0.28592   0.00000  Uiso   1.00
C22    C     0.16679   0.08672   0.24981   0.00000  Uiso   1.00
C23    C     0.19338   0.16652   0.14778   0.00000  Uiso   1.00
C24    C     0.26152   0.12664   0.00821   0.00000  Uiso   1.00
C25    C     0.20958   0.16060   0.08943   0.00000  Uiso   1.00
C26    C     0.07641   0.17313   0.44150   0.00000  Uiso   1.00
C27    C     0.06286   0.17617   0.49750   0.00000  Uiso   1.00
C28    C     0.09651   0.16822   0.02270   0.00000  Uiso   1.00
H29    H     0.27958   0.13442   0.08020   0.00000  Uiso   1.00
H30    H     0.20923   0.03740   0.30151   0.00000  Uiso   1.00
H31    H     0.12699   0.04022   0.19373   0.00000  Uiso   1.00
H32    H     0.31093   0.12302   0.18545   0.00000  Uiso   1.00
H33    H     0.06186   0.12295   0.18550   0.00000  Uiso   1.00
H34    H     0.02237   0.21023   0.31465   0.00000  Uiso   1.00
H35    H     0.27143   0.21027   0.31463   0.00000  Uiso   1.00
H36    H     0.29549   0.11132   0.48722   0.00000  Uiso   1.00
H37    H     0.14497   0.18727   0.08591   0.00000  Uiso   1.00
H38    H     0.05113   0.18291   0.42209   0.00000  Uiso   1.00
H39    H     0.08415   0.17177   0.06622   0.00000  Uiso   1.00
H40    H     0.02684   0.18652   0.02123   0.00000  Uiso   1.00
H41    H     0.20233   0.10810   0.37020   0.00000  Uiso   1.00
H42    H     0.20876   0.29487   0.30055   0.00000  Uiso   1.00
N43    N     0.04760   0.16668   0.25002   0.00000  Uiso   1.00
N44    N     0.28573   0.16665   0.25001   0.00000  Uiso   1.00
O45    O     0.12846   0.22775   0.25001   0.00000  Uiso   1.00
O46    O     0.20490   0.22774   0.25001   0.00000  Uiso   1.00
O47    O     0.10947   0.16666   0.32681   0.00000  Uiso   1.00
O48    O     0.18591   0.16665   0.32681   0.00000  Uiso   1.00
O49    O     0.12843   0.10559   0.25000   0.00000  Uiso   1.00
O50    O     0.20488   0.10558   0.25000   0.00000  Uiso   1.00
O51    O     0.14742   0.16668   0.17319   0.00000  Uiso   1.00
O52    O     0.22387   0.16667   0.17319   0.00000  Uiso   1.00
Zn53   Zn    0.11562   0.16667   0.25000   0.00000  Uiso   1.00
Zn54   Zn    0.21771   0.16666   0.25000   0.00000  Uiso   1.00
C55    C     0.12155   0.29106   0.17882   0.00000  Uiso   1.00
H56    H     0.14715   0.26806   0.15221   0.00000  Uiso   1.00
H57    H     0.08803   0.27500   0.20363   0.00000  Uiso   1.00
H58    H     0.11168   0.31361   0.15220   0.00000  Uiso   1.00
I59    I     0.29519   0.08253   0.38409   0.00000  Uiso   1.00
C60    C     0.50034   0.24666   0.24845   0.00000  Uiso   1.00
C61    C     0.47725   0.15478   0.49208   0.00000  Uiso   1.00
C62    C     0.48778   0.14480   0.43713   0.00000  Uiso   1.00
C63    C     0.51457   0.15106   0.01410   0.00000  Uiso   1.00
C64    C     0.55883   0.13083   0.48452   0.00000  Uiso   1.00
C65    C     0.56542   0.11498   0.43256   0.00000  Uiso   1.00
C66    C     0.52995   0.12167   0.40969   0.00000  Uiso   1.00
C67    C     0.50935   0.16839   0.06439   0.00000  Uiso   1.00
C68    C     0.58645   0.14065   0.06100   0.00000  Uiso   1.00
C69    C     0.45609   0.15897   0.41086   0.00000  Uiso   1.00
C70    C     0.52446   0.31173   0.27672   0.00000  Uiso   1.00
C71    C     0.47336   0.16398   0.35204   0.00000  Uiso   1.00
C72    C     0.52471   0.02117   0.27742   0.00000  Uiso   1.00
C73    C     0.50075   0.04272   0.24824   0.00000  Uiso   1.00
C74    C     0.47770   0.02239   0.21702   0.00000  Uiso   1.00
C75    C     0.47775   0.31263   0.21517   0.00000  Uiso   1.00
C76    C     0.50066   0.29090   0.24644   0.00000  Uiso   1.00
C77    C     0.65365   0.14239   0.21414   0.00000  Uiso   1.00
C78    C     0.36827   0.14239   0.21417   0.00000  Uiso   1.00
C79    C     0.34632   0.19088   0.28593   0.00000  Uiso   1.00
C80    C     0.63170   0.19088   0.28592   0.00000  Uiso   1.00
C81    C     0.50012   0.08672   0.24981   0.00000  Uiso   1.00
C82    C     0.52671   0.16652   0.14778   0.00000  Uiso   1.00
C83    C     0.59485   0.12664   0.00821   0.00000  Uiso   1.00
C84    C     0.54292   0.16060   0.08943   0.00000  Uiso   1.00
C85    C     0.40974   0.17313   0.44150   0.00000  Uiso   1.00
C86    C     0.39619   0.17617   0.49750   0.00000  Uiso   1.00
C87    C     0.42984   0.16822   0.02270   0.00000  Uiso   1.00
H88    H     0.61291   0.13442   0.08020   0.00000  Uiso   1.00
H89    H     0.54256   0.03740   0.30151   0.00000  Uiso   1.00
H90    H     0.46032   0.04022   0.19373   0.00000  Uiso   1.00
H91    H     0.64426   0.12302   0.18545   0.00000  Uiso   1.00
H92    H     0.39519   0.12295   0.18550   0.00000  Uiso   1.00
H93    H     0.35570   0.21023   0.31465   0.00000  Uiso   1.00
H94    H     0.60477   0.21027   0.31463   0.00000  Uiso   1.00
H95    H     0.62883   0.11132   0.48722   0.00000  Uiso   1.00
H96    H     0.47831   0.18727   0.08591   0.00000  Uiso   1.00
H97    H     0.38447   0.18291   0.42209   0.00000  Uiso   1.00
H98    H     0.41748   0.17177   0.06622   0.00000  Uiso   1.00
H99    H     0.36018   0.18652   0.02123   0.00000  Uiso   1.00
H100   H     0.53566   0.10810   0.37020   0.00000  Uiso   1.00
H101   H     0.54209   0.29487   0.30055   0.00000  Uiso   1.00
N102   N     0.38093   0.16668   0.25002   0.00000  Uiso   1.00
N103   N     0.61906   0.16665   0.25001   0.00000  Uiso   1.00
O104   O     0.46179   0.22775   0.25001   0.00000  Uiso   1.00
O105   O     0.53823   0.22774   0.25001   0.00000  Uiso   1.00
O106   O     0.44280   0.16666   0.32681   0.00000  Uiso   1.00
O107   O     0.51924   0.16665   0.32681   0.00000  Uiso   1.00
O108   O     0.46177   0.10559   0.25000   0.00000  Uiso   1.00
O109   O     0.53821   0.10558   0.25000   0.00000  Uiso   1.00
O110   O     0.48076   0.16668   0.17319   0.00000  Uiso   1.00
O111   O     0.55720   0.16667   0.17319   0.00000  Uiso   1.00
Zn112  Zn    0.44896   0.16667   0.25000   0.00000  Uiso   1.00
Zn113  Zn    0.55104   0.16666   0.25000   0.00000  Uiso   1.00
C114   C     0.45488   0.29106   0.17882   0.00000  Uiso   1.00
H115   H     0.48049   0.26806   0.15221   0.00000  Uiso   1.00
H116   H     0.42136   0.27500   0.20363   0.00000  Uiso   1.00
H117   H     0.44501   0.31361   0.15220   0.00000  Uiso   1.00
I118   I     0.62852   0.08253   0.38409   0.00000  Uiso   1.00
C119   C     0.83368   0.24666   0.24845   0.00000  Uiso   1.00
C120   C     0.81058   0.15478   0.49208   0.00000  Uiso   1.00
C121   C     0.82111   0.14480   0.43713   0.00000  Uiso   1.00
C122   C     0.84790   0.15106   0.01410   0.00000  Uiso   1.00
C123   C     0.89216   0.13083   0.48452   0.00000  Uiso   1.00
C124   C     0.89876   0.11498   0.43256   0.00000  Uiso   1.00
C125   C     0.86329   0.12167   0.40969   0.00000  Uiso   1.00
C126   C     0.84268   0.16839   0.06439   0.00000  Uiso   1.00
C127   C     0.91978   0.14065   0.06100   0.00000  Uiso   1.00
C128   C     0.78943   0.15897   0.41086   0.00000  Uiso   1.00
C129   C     0.85780   0.31173   0.27672   0.00000  Uiso   1.00
C130   C     0.80670   0.16398   0.35204   0.00000  Uiso   1.00
C131   C     0.85805   0.02117   0.27742   0.00000  Uiso   1.00
C132   C     0.83409   0.04272   0.24824   0.00000  Uiso   1.00
C133   C     0.81103   0.02239   0.21702   0.00000  Uiso   1.00
C134   C     0.81109   0.31263   0.21517   0.00000  Uiso   1.00
C135   C     0.83400   0.29090   0.24644   0.00000  Uiso   1.00
C136   C     0.98699   0.14239   0.21414   0.00000  Uiso   1.00
C137   C     0.70161   0.14239   0.21417   0.00000  Uiso   1.00
C138   C     0.67965   0.19088   0.28593   0.00000  Uiso   1.00
C139   C     0.96503   0.19088   0.28592   0.00000  Uiso   1.00
C140   C     0.83345   0.08672   0.24981   0.00000  Uiso   1.00
C141   C     0.86005   0.16652   0.14778   0.00000  Uiso   1.00
C142   C     0.92819   0.12664   0.00821   0.00000  Uiso   1.00
C143   C     0.87625   0.16060   0.08943   0.00000  Uiso   1.00
C144   C     0.74307   0.17313   0.44150   0.00000  Uiso   1.00
C145   C     0.72953   0.17617   0.49750   0.00000  Uiso   1.00
C146   C     0.76317   0.16822   0.02270   0.00000  Uiso   1.00
H147   H     0.94625   0.13442   0.08020   0.00000  Uiso   1.00
H148   H     0.87590   0.03740   0.30151   0.00000  Uiso   1.00
H149   H     0.79365   0.04022   0.19373   0.00000  Uiso   1.00
H150   H     0.97760   0.12302   0.18545   0.00000  Uiso   1.00
H151   H     0.72853   0.12295   0.18550   0.00000  Uiso   1.00
H152   H     0.68904   0.21023   0.31465   0.00000  Uiso   1.00
H153   H     0.93810   0.21027   0.31463   0.00000  Uiso   1.00
H154   H     0.96216   0.11132   0.48722   0.00000  Uiso   1.00
H155   H     0.81164   0.18727   0.08591   0.00000  Uiso   1.00
H156   H     0.71780   0.18291   0.42209   0.00000  Uiso   1.00
H157   H     0.75082   0.17177   0.06622   0.00000  Uiso   1.00
H158   H     0.69351   0.18652   0.02123   0.00000  Uiso   1.00
H159   H     0.86899   0.10810   0.37020   0.00000  Uiso   1.00
H160   H     0.87542   0.29487   0.30055   0.00000  Uiso   1.00
N161   N     0.71426   0.16668   0.25002   0.00000  Uiso   1.00
N162   N     0.95239   0.16665   0.25001   0.00000  Uiso   1.00
O163   O     0.79512   0.22775   0.25001   0.00000  Uiso   1.00
O164   O     0.87157   0.22774   0.25001   0.00000  Uiso   1.00
O165   O     0.77613   0.16666   0.32681   0.00000  Uiso   1.00
O166   O     0.85258   0.16665   0.32681   0.00000  Uiso   1.00
O167   O     0.79510   0.10559   0.25000   0.00000  Uiso   1.00
O168   O     0.87154   0.10558   0.25000   0.00000  Uiso   1.00
O169   O     0.81409   0.16668   0.17319   0.00000  Uiso   1.00
O170   O     0.89053   0.16667   0.17319   0.00000  Uiso   1.00
Zn171  Zn    0.78229   0.16667   0.25000   0.00000  Uiso   1.00
Zn172  Zn    0.88438   0.16666   0.25000   0.00000  Uiso   1.00
C173   C     0.78821   0.29106   0.17882   0.00000  Uiso   1.00
H174   H     0.81382   0.26806   0.15221   0.00000  Uiso   1.00
H175   H     0.75470   0.27500   0.20363   0.00000  Uiso   1.00
H176   H     0.77834   0.31361   0.15220   0.00000  Uiso   1.00
I177   I     0.96186   0.08253   0.38409   0.00000  Uiso   1.00
C178   C     0.16701   0.57999   0.24845   0.00000  Uiso   1.00
C179   C     0.14391   0.48811   0.49208   0.00000  Uiso   1.00
C180   C     0.15444   0.47814   0.43713   0.00000  Uiso   1.00
C181   C     0.18124   0.48440   0.01410   0.00000  Uiso   1.00
C182   C     0.22549   0.46416   0.48452   0.00000  Uiso   1.00
C183   C     0.23209   0.44832   0.43256   0.00000  Uiso   1.00
C184   C     0.19662   0.45500   0.40969   0.00000  Uiso   1.00
C185   C     0.17601   0.50173   0.06439   0.00000  Uiso   1.00
C186   C     0.25311   0.47399   0.06100   0.00000  Uiso   1.00
C187   C     0.12276   0.49230   0.41086   0.00000  Uiso   1.00
C188   C     0.19113   0.64506   0.27672   0.00000  Uiso   1.00
C189   C     0.14003   0.49731   0.35204   0.00000  Uiso   1.00
C190   C     0.19138   0.35450   0.27742   0.00000  Uiso   1.00
C191   C     0.16742   0.37605   0.24824   0.00000  Uiso   1.00
C192   C     0.14436   0.35572   0.21702   0.00000  Uiso   1.00
C193   C     0.14442   0.64596   0.21517   0.00000  Uiso   1.00
C194   C     0.16733   0.62424   0.24644   0.00000  Uiso   1.00
C195   C     0.32032   0.47573   0.21414   0.00000  Uiso   1.00
C196   C     0.03494   0.47572   0.21417   0.00000  Uiso   1.00
C197   C     0.01299   0.52421   0.28593   0.00000  Uiso   1.00
C198   C     0.29837   0.52421   0.28592   0.00000  Uiso   1.00
C199   C     0.16679   0.42005   0.24981   0.00000  Uiso   1.00
C200   C     0.19338   0.49986   0.14778   0.00000  Uiso   1.00
C201   C     0.26152   0.45997   0.00821   0.00000  Uiso   1.00
C202   C     0.20958   0.49393   0.08943   0.00000  Uiso   1.00
C203   C     0.07641   0.50646   0.44150   0.00000  Uiso   1.00
C204   C     0.06286   0.50950   0.49750   0.00000  Uiso   1.00
C205   C     0.09651   0.50156   0.02270   0.00000  Uiso   1.00
H206   H     0.27958   0.46775   0.08020   0.00000  Uiso   1.00
H207   H     0.20923   0.37073   0.30151   0.00000  Uiso   1.00
H208   H     0.12699   0.37356   0.19373   0.00000  Uiso   1.00
H209   H     0.31093   0.45635   0.18545   0.00000  Uiso   1.00
H210   H     0.06186   0.45628   0.18550   0.00000  Uiso   1.00
H211   H     0.02237   0.54356   0.31465   0.00000  Uiso   1.00
H212   H     0.27143   0.54360   0.31463   0.00000  Uiso   1.00
H213   H     0.29549   0.44465   0.48722   0.00000  Uiso   1.00
H214   H     0.14497   0.52060   0.08591   0.00000  Uiso   1.00
H215   H     0.05113   0.51624   0.42209   0.00000  Uiso   1.00
H216   H     0.08415   0.50510   0.06622   0.00000  Uiso   1.00
H217   H     0.02684   0.51986   0.02123   0.00000  Uiso   1.00
H218   H     0.20233   0.44143   0.37020   0.00000  Uiso   1.00
H219   H     0.20876   0.62820   0.30055   0.00000  Uiso   1.00
N220   N     0.04760   0.50001   0.25002   0.00000  Uiso   1.00
N221   N     0.28573   0.49998   0.25001   0.00000  Uiso   1.00
O222   O     0.12846   0.56108   0.25001   0.00000  Uiso   1.00
O223   O     0.20490   0.56107   0.25001   0.00000  Uiso   1.00
O224   O     0.10947   0.50000   0.32681   0.00000  Uiso   1.00
O225   O     0.18591   0.49999   0.32681   0.00000  Uiso   1.00
O226   O     0.12843   0.43893   0.25000   0.00000  Uiso   1.00
O227   O     0.20488   0.43892   0.25000   0.00000  Uiso   1.00
O228   O     0.14742   0.50001   0.17319   0.00000  Uiso   1.00
O229   O     0.22387   0.50000   0.17319   0.00000  Uiso   1.00
Zn230  Zn    0.11562   0.50001   0.25000   0.00000  Uiso   1.00
Zn231  Zn    0.21771   0.49999   0.25000   0.00000  Uiso   1.00
C232   C     0.12155   0.62439   0.17882   0.00000  Uiso   1.00
H233   H     0.14715   0.60139   0.15221   0.00000  Uiso   1.00
H234   H     0.08803   0.60833   0.20363   0.00000  Uiso   1.00
H235   H     0.11168   0.64695   0.15220   0.00000  Uiso   1.00
I236   I     0.29519   0.41586   0.38409   0.00000  Uiso   1.00
C237   C     0.50034   0.57999   0.24845   0.00000  Uiso   1.00
C238   C     0.47725   0.48811   0.49208   0.00000  Uiso   1.00
C239   C     0.48778   0.47814   0.43713   0.00000  Uiso   1.00
C240   C     0.51457   0.48440   0.01410   0.00000  Uiso   1.00
C241   C     0.55883   0.46416   0.48452   0.00000  Uiso   1.00
C242   C     0.56542   0.44832   0.43256   0.00000  Uiso   1.00
C243   C     0.52995   0.45500   0.40969   0.00000  Uiso   1.00
C244   C     0.50935   0.50173   0.06439   0.00000  Uiso   1.00
C245   C     0.58645   0.47399   0.06100   0.00000  Uiso   1.00
C246   C     0.45609   0.49230   0.41086   0.00000  Uiso   1.00
C247   C     0.52446   0.64506   0.27672   0.00000  Uiso   1.00
C248   C     0.47336   0.49731   0.35204   0.00000  Uiso   1.00
C249   C     0.52471   0.35450   0.27742   0.00000  Uiso   1.00
C250   C     0.50075   0.37605   0.24824   0.00000  Uiso   1.00
C251   C     0.47770   0.35572   0.21702   0.00000  Uiso   1.00
C252   C     0.47775   0.64596   0.21517   0.00000  Uiso   1.00
C253   C     0.50066   0.62424   0.24644   0.00000  Uiso   1.00
C254   C     0.65365   0.47573   0.21414   0.00000  Uiso   1.00
C255   C     0.36827   0.47572   0.21417   0.00000  Uiso   1.00
C256   C     0.34632   0.52421   0.28593   0.00000  Uiso   1.00
C257   C     0.63170   0.52421   0.28592   0.00000  Uiso   1.00
C258   C     0.50012   0.42005   0.24981   0.00000  Uiso   1.00
C259   C     0.52671   0.49986   0.14778   0.00000  Uiso   1.00
C260   C     0.59485   0.45997   0.00821   0.00000  Uiso   1.00
C261   C     0.54292   0.49393   0.08943   0.00000  Uiso   1.00
C262   C     0.40974   0.50646   0.44150   0.00000  Uiso   1.00
C263   C     0.39619   0.50950   0.49750   0.00000  Uiso   1.00
C264   C     0.42984   0.50156   0.02270   0.00000  Uiso   1.00
H265   H     0.61291   0.46775   0.08020   0.00000  Uiso   1.00
H266   H     0.54256   0.37073   0.30151   0.00000  Uiso   1.00
H267   H     0.46032   0.37356   0.19373   0.00000  Uiso   1.00
H268   H     0.64426   0.45635   0.18545   0.00000  Uiso   1.00
H269   H     0.39519   0.45628   0.18550   0.00000  Uiso   1.00
H270   H     0.35570   0.54356   0.31465   0.00000  Uiso   1.00
H271   H     0.60477   0.54360   0.31463   0.00000  Uiso   1.00
H272   H     0.62883   0.44465   0.48722   0.00000  Uiso   1.00
H273   H     0.47831   0.52060   0.08591   0.00000  Uiso   1.00
H274   H     0.38447   0.51624   0.42209   0.00000  Uiso   1.00
H275   H     0.41748   0.50510   0.06622   0.00000  Uiso   1.00
H276   H     0.36018   0.51986   0.02123   0.00000  Uiso   1.00
H277   H     0.53566   0.44143   0.37020   0.00000  Uiso   1.00
H278   H     0.54209   0.62820   0.30055   0.00000  Uiso   1.00
N279   N     0.38093   0.50001   0.25002   0.00000  Uiso   1.00
N280   N     0.61906   0.49998   0.25001   0.00000  Uiso   1.00
O281   O     0.46179   0.56108   0.25001   0.00000  Uiso   1.00
O282   O     0.53823   0.56107   0.25001   0.00000  Uiso   1.00
O283   O     0.44280   0.50000   0.32681   0.00000  Uiso   1.00
O284   O     0.51924   0.49999   0.32681   0.00000  Uiso   1.00
O285   O     0.46177   0.43893   0.25000   0.00000  Uiso   1.00
O286   O     0.53821   0.43892   0.25000   0.00000  Uiso   1.00
O287   O     0.48076   0.50001   0.17319   0.00000  Uiso   1.00
O288   O     0.55720   0.50000   0.17319   0.00000  Uiso   1.00
Zn289  Zn    0.44896   0.50001   0.25000   0.00000  Uiso   1.00
Zn290  Zn    0.55104   0.49999   0.25000   0.00000  Uiso   1.00
C291   C     0.45488   0.62439   0.17882   0.00000  Uiso   1.00
H292   H     0.48049   0.60139   0.15221   0.00000  Uiso   1.00
H293   H     0.42136   0.60833   0.20363   0.00000  Uiso   1.00
H294   H     0.44501   0.64695   0.15220   0.00000  Uiso   1.00
I295   I     0.62852   0.41586   0.38409   0.00000  Uiso   1.00
C296   C     0.83368   0.57999   0.24845   0.00000  Uiso   1.00
C297   C     0.81058   0.48811   0.49208   0.00000  Uiso   1.00
C298   C     0.82111   0.47814   0.43713   0.00000  Uiso   1.00
C299   C     0.84790   0.48440   0.01410   0.00000  Uiso   1.00
C300   C     0.89216   0.46416   0.48452   0.00000  Uiso   1.00
C301   C     0.89876   0.44832   0.43256   0.00000  Uiso   1.00
C302   C     0.86329   0.45500   0.40969   0.00000  Uiso   1.00
C303   C     0.84268   0.50173   0.06439   0.00000  Uiso   1.00
C304   C     0.91978   0.47399   0.06100   0.00000  Uiso   1.00
C305   C     0.78943   0.49230   0.41086   0.00000  Uiso   1.00
C306   C     0.85780   0.64506   0.27672   0.00000  Uiso   1.00
C307   C     0.80670   0.49731   0.35204   0.00000  Uiso   1.00
C308   C     0.85805   0.35450   0.27742   0.00000  Uiso   1.00
C309   C     0.83409   0.37605   0.24824   0.00000  Uiso   1.00
C310   C     0.81103   0.35572   0.21702   0.00000  Uiso   1.00
C311   C     0.81109   0.64596   0.21517   0.00000  Uiso   1.00
C312   C     0.83400   0.62424   0.24644   0.00000  Uiso   1.00
C313   C     0.98699   0.47573   0.21414   0.00000  Uiso   1.00
C314   C     0.70161   0.47572   0.21417   0.00000  Uiso   1.00
C315   C     0.67965   0.52421   0.28593   0.00000  Uiso   1.00
C316   C     0.96503   0.52421   0.28592   0.00000  Uiso   1.00
C317   C     0.83345   0.42005   0.24981   0.00000  Uiso   1.00
C318   C     0.86005   0.49986   0.14778   0.00000  Uiso   1.00
C319   C     0.92819   0.45997   0.00821   0.00000  Uiso   1.00
C320   C     0.87625   0.49393   0.08943   0.00000  Uiso   1.00
C321   C     0.74307   0.50646   0.44150   0.00000  Uiso   1.00
C322   C     0.72953   0.50950   0.49750   0.00000  Uiso   1.00
C323   C     0.76317   0.50156   0.02270   0.00000  Uiso   1.00
H324   H     0.94625   0.46775   0.08020   0.00000  Uiso   1.00
H325   H     0.87590   0.37073   0.30151   0.00000  Uiso   1.00
H326   H     0.79365   0.37356   0.19373   0.00000  Uiso   1.00
H327   H     0.97760   0.45635   0.18545   0.00000  Uiso   1.00
H328   H     0.72853   0.45628   0.18550   0.00000  Uiso   1.00
H329   H     0.68904   0.54356   0.31465   0.00000  Uiso   1.00
H330   H     0.93810   0.54360   0.31463   0.00000  Uiso   1.00
H331   H     0.96216   0.44465   0.48722   0.00000  Uiso   1.00
H332   H     0.81164   0.52060   0.08591   0.00000  Uiso   1.00
H333   H     0.71780   0.51624   0.42209   0.00000  Uiso   1.00
H334   H     0.75082   0.50510   0.06622   0.00000  Uiso   1.00
H335   H     0.69351   0.51986   0.02123   0.00000  Uiso   1.00
H336   H     0.86899   0.44143   0.37020   0.00000  Uiso   1.00
H337   H     0.87542   0.62820   0.30055   0.00000  Uiso   1.00
N338   N     0.71426   0.50001   0.25002   0.00000  Uiso   1.00
N339   N     0.95239   0.49998   0.25001   0.00000  Uiso   1.00
O340   O     0.79512   0.56108   0.25001   0.00000  Uiso   1.00
O341   O     0.87157   0.56107   0.25001   0.00000  Uiso   1.00
O342   O     0.77613   0.50000   0.32681   0.00000  Uiso   1.00
O343   O     0.85258   0.49999   0.32681   0.00000  Uiso   1.00
O344   O     0.79510   0.43893   0.25000   0.00000  Uiso   1.00
O345   O     0.87154   0.43892   0.25000   0.00000  Uiso   1.00
O346   O     0.81409   0.50001   0.17319   0.00000  Uiso   1.00
O347   O     0.89053   0.50000   0.17319   0.00000  Uiso   1.00
Zn348  Zn    0.78229   0.50001   0.25000   0.00000  Uiso   1.00
Zn349  Zn    0.88438   0.49999   0.25000   0.00000  Uiso   1.00
C350   C     0.78821   0.62439   0.17882   0.00000  Uiso   1.00
H351   H     0.81382   0.60139   0.15221   0.00000  Uiso   1.00
H352   H     0.75470   0.60833   0.20363   0.00000  Uiso   1.00
H353   H     0.77834   0.64695   0.15220   0.00000  Uiso   1.00
I354   I     0.96186   0.41586   0.38409   0.00000  Uiso   1.00
C355   C     0.16701   0.91333   0.24845   0.00000  Uiso   1.00
C356   C     0.14391   0.82145   0.49208   0.00000  Uiso   1.00
C357   C     0.15444   0.81147   0.43713   0.00000  Uiso   1.00
C358   C     0.18124   0.81773   0.01410   0.00000  Uiso   1.00
C359   C     0.22549   0.79750   0.48452   0.00000  Uiso   1.00
C360   C     0.23209   0.78165   0.43256   0.00000  Uiso   1.00
C361   C     0.19662   0.78834   0.40969   0.00000  Uiso   1.00
C362   C     0.17601   0.83506   0.06439   0.00000  Uiso   1.00
C363   C     0.25311   0.80732   0.06100   0.00000  Uiso   1.00
C364   C     0.12276   0.82563   0.41086   0.00000  Uiso   1.00
C365   C     0.19113   0.97839   0.27672   0.00000  Uiso   1.00
C366   C     0.14003   0.83064   0.35204   0.00000  Uiso   1.00
C367   C     0.19138   0.68783   0.27742   0.00000  Uiso   1.00
C368   C     0.16742   0.70938   0.24824   0.00000  Uiso   1.00
C369   C     0.14436   0.68905   0.21702   0.00000  Uiso   1.00
C370   C     0.14442   0.97929   0.21517   0.00000  Uiso   1.00
C371   C     0.16733   0.95757   0.24644   0.00000  Uiso   1.00
C372   C     0.32032   0.80906   0.21414   0.00000  Uiso   1.00
C373   C     0.03494   0.80905   0.21417   0.00000  Uiso   1.00
C374   C     0.01299   0.85755   0.28593   0.00000  Uiso   1.00
C375   C     0.29837   0.85754   0.28592   0.00000  Uiso   1.00
C376   C     0.16679   0.75339   0.24981   0.00000  Uiso   1.00
C377   C     0.19338   0.83319   0.14778   0.00000  Uiso   1.00
C378   C     0.26152   0.79330   0.00821   0.00000  Uiso   1.00
C379   C     0.20958   0.82726   0.08943   0.00000  Uiso   1.00
C380   C     0.07641   0.83980   0.44150   0.00000  Uiso   1.00
C381   C     0.06286   0.84284   0.49750   0.00000  Uiso   1.00
C382   C     0.09651   0.83489   0.02270   0.00000  Uiso   1.00
H383   H     0.27958   0.80108   0.08020   0.00000  Uiso   1.00
H384   H     0.20923   0.70406   0.30151   0.00000  Uiso   1.00
H385   H     0.12699   0.70689   0.19373   0.00000  Uiso   1.00
H386   H     0.31093   0.78968   0.18545   0.00000  Uiso   1.00
H387   H     0.06186   0.78962   0.18550   0.00000  Uiso   1.00
H388   H     0.02237   0.87690   0.31465   0.00000  Uiso   1.00
H389   H     0.27143   0.87693   0.31463   0.00000  Uiso   1.00
H390   H     0.29549   0.77799   0.48722   0.00000  Uiso   1.00
H391   H     0.14497   0.85393   0.08591   0.00000  Uiso   1.00
H392   H     0.05113   0.84958   0.42209   0.00000  Uiso   1.00
H393   H     0.08415   0.83843   0.06622   0.00000  Uiso   1.00
H394   H     0.02684   0.85319   0.02123   0.00000  Uiso   1.00
H395   H     0.20233   0.77476   0.37020   0.00000  Uiso   1.00
H396   H     0.20876   0.96154   0.30055   0.00000  Uiso   1.00
N397   N     0.04760   0.83334   0.25002   0.00000  Uiso   1.00
N398   N     0.28573   0.83331   0.25001   0.00000  Uiso   1.00
O399   O     0.12846   0.89442   0.25001   0.00000  Uiso   1.00
O400   O     0.20490   0.89441   0.25001   0.00000  Uiso   1.00
O401   O     0.10947   0.83333   0.32681   0.00000  Uiso   1.00
O402   O     0.18591   0.83332   0.32681   0.00000  Uiso   1.00
O403   O     0.12843   0.77226   0.25000   0.00000  Uiso   1.00
O404   O     0.20488   0.77225   0.25000   0.00000  Uiso   1.00
O405   O     0.14742   0.83335   0.17319   0.00000  Uiso   1.00
O406   O     0.22387   0.83334   0.17319   0.00000  Uiso   1.00
Zn407  Zn    0.11562   0.83334   0.25000   0.00000  Uiso   1.00
Zn408  Zn    0.21771   0.83333   0.25000   0.00000  Uiso   1.00
C409   C     0.12155   0.95772   0.17882   0.00000  Uiso   1.00
H410   H     0.14715   0.93472   0.15221   0.00000  Uiso   1.00
H411   H     0.08803   0.94166   0.20363   0.00000  Uiso   1.00
H412   H     0.11168   0.98028   0.15220   0.00000  Uiso   1.00
I413   I     0.29519   0.74919   0.38409   0.00000  Uiso   1.00
C414   C     0.50034   0.91333   0.24845   0.00000  Uiso   1.00
C415   C     0.47725   0.82145   0.49208   0.00000  Uiso   1.00
C416   C     0.48778   0.81147   0.43713   0.00000  Uiso   1.00
C417   C     0.51457   0.81773   0.01410   0.00000  Uiso   1.00
C418   C     0.55883   0.79750   0.48452   0.00000  Uiso   1.00
C419   C     0.56542   0.78165   0.43256   0.00000  Uiso   1.00
C420   C     0.52995   0.78834   0.40969   0.00000  Uiso   1.00
C421   C     0.50935   0.83506   0.06439   0.00000  Uiso   1.00
C422   C     0.58645   0.80732   0.06100   0.00000  Uiso   1.00
C423   C     0.45609   0.82563   0.41086   0.00000  Uiso   1.00
C424   C     0.52446   0.97839   0.27672   0.00000  Uiso   1.00
C425   C     0.47336   0.83064   0.35204   0.00000  Uiso   1.00
C426   C     0.52471   0.68783   0.27742   0.00000  Uiso   1.00
C427   C     0.50075   0.70938   0.24824   0.00000  Uiso   1.00
C428   C     0.47770   0.68905   0.21702   0.00000  Uiso   1.00
C429   C     0.47775   0.97929   0.21517   0.00000  Uiso   1.00
C430   C     0.50066   0.95757   0.24644   0.00000  Uiso   1.00
C431   C     0.65365   0.80906   0.21414   0.00000  Uiso   1.00
C432   C     0.36827   0.80905   0.21417   0.00000  Uiso   1.00
C433   C     0.34632   0.85755   0.28593   0.00000  Uiso   1.00
C434   C     0.63170   0.85754   0.28592   0.00000  Uiso   1.00
C435   C     0.50012   0.75339   0.24981   0.00000  Uiso   1.00
C436   C     0.52671   0.83319   0.14778   0.00000  Uiso   1.00
C437   C     0.59485   0.79330   0.00821   0.00000  Uiso   1.00
C438   C     0.54292   0.82726   0.08943   0.00000  Uiso   1.00
C439   C     0.40974   0.83980   0.44150   0.00000  Uiso   1.00
C440   C     0.39619   0.84284   0.49750   0.00000  Uiso   1.00
C441   C     0.42984   0.83489   0.02270   0.00000  Uiso   1.00
H442   H     0.61291   0.80108   0.08020   0.00000  Uiso   1.00
H443   H     0.54256   0.70406   0.30151   0.00000  Uiso   1.00
H444   H     0.46032   0.70689   0.19373   0.00000  Uiso   1.00
H445   H     0.64426   0.78968   0.18545   0.00000  Uiso   1.00
H446   H     0.39519   0.78962   0.18550   0.00000  Uiso   1.00
H447   H     0.35570   0.87690   0.31465   0.00000  Uiso   1.00
H448   H     0.60477   0.87693   0.31463   0.00000  Uiso   1.00
H449   H     0.62883   0.77799   0.48722   0.00000  Uiso   1.00
H450   H     0.47831   0.85393   0.08591   0.00000  Uiso   1.00
H451   H     0.38447   0.84958   0.42209   0.00000  Uiso   1.00
H452   H     0.41748   0.83843   0.06622   0.00000  Uiso   1.00
H453   H     0.36018   0.85319   0.02123   0.00000  Uiso   1.00
H454   H     0.53566   0.77476   0.37020   0.00000  Uiso   1.00
H455   H     0.54209   0.96154   0.30055   0.00000  Uiso   1.00
N456   N     0.38093   0.83334   0.25002   0.00000  Uiso   1.00
N457   N     0.61906   0.83331   0.25001   0.00000  Uiso   1.00
O458   O     0.46179   0.89442   0.25001   0.00000  Uiso   1.00
O459   O     0.53823   0.89441   0.25001   0.00000  Uiso   1.00
O460   O     0.44280   0.83333   0.32681   0.00000  Uiso   1.00
O461   O     0.51924   0.83332   0.32681   0.00000  Uiso   1.00
O462   O     0.46177   0.77226   0.25000   0.00000  Uiso   1.00
O463   O     0.53821   0.77225   0.25000   0.00000  Uiso   1.00
O464   O     0.48076   0.83335   0.17319   0.00000  Uiso   1.00
O465   O     0.55720   0.83334   0.17319   0.00000  Uiso   1.00
Zn466  Zn    0.44896   0.83334   0.25000   0.00000  Uiso   1.00
Zn467  Zn    0.55104   0.83333   0.25000   0.00000  Uiso   1.00
C468   C     0.45488   0.95772   0.17882   0.00000  Uiso   1.00
H469   H     0.48049   0.93472   0.15221   0.00000  Uiso   1.00
H470   H     0.42136   0.94166   0.20363   0.00000  Uiso   1.00
H471   H     0.44501   0.98028   0.15220   0.00000  Uiso   1.00
I472   I     0.62852   0.74919   0.38409   0.00000  Uiso   1.00
C473   C     0.83368   0.91333   0.24845   0.00000  Uiso   1.00
C474   C     0.81058   0.82145   0.49208   0.00000  Uiso   1.00
C475   C     0.82111   0.81147   0.43713   0.00000  Uiso   1.00
C476   C     0.84790   0.81773   0.01410   0.00000  Uiso   1.00
C477   C     0.89216   0.79750   0.48452   0.00000  Uiso   1.00
C478   C     0.89876   0.78165   0.43256   0.00000  Uiso   1.00
C479   C     0.86329   0.78834   0.40969   0.00000  Uiso   1.00
C480   C     0.84268   0.83506   0.06439   0.00000  Uiso   1.00
C481   C     0.91978   0.80732   0.06100   0.00000  Uiso   1.00
C482   C     0.78943   0.82563   0.41086   0.00000  Uiso   1.00
C483   C     0.85780   0.97839   0.27672   0.00000  Uiso   1.00
C484   C     0.80670   0.83064   0.35204   0.00000  Uiso   1.00
C485   C     0.85805   0.68783   0.27742   0.00000  Uiso   1.00
C486   C     0.83409   0.70938   0.24824   0.00000  Uiso   1.00
C487   C     0.81103   0.68905   0.21702   0.00000  Uiso   1.00
C488   C     0.81109   0.97929   0.21517   0.00000  Uiso   1.00
C489   C     0.83400   0.95757   0.24644   0.00000  Uiso   1.00
C490   C     0.98699   0.80906   0.21414   0.00000  Uiso   1.00
C491   C     0.70161   0.80905   0.21417   0.00000  Uiso   1.00
C492   C     0.67965   0.85755   0.28593   0.00000  Uiso   1.00
C493   C     0.96503   0.85754   0.28592   0.00000  Uiso   1.00
C494   C     0.83345   0.75339   0.24981   0.00000  Uiso   1.00
C495   C     0.86005   0.83319   0.14778   0.00000  Uiso   1.00
C496   C     0.92819   0.79330   0.00821   0.00000  Uiso   1.00
C497   C     0.87625   0.82726   0.08943   0.00000  Uiso   1.00
C498   C     0.74307   0.83980   0.44150   0.00000  Uiso   1.00
C499   C     0.72953   0.84284   0.49750   0.00000  Uiso   1.00
C500   C     0.76317   0.83489   0.02270   0.00000  Uiso   1.00
H501   H     0.94625   0.80108   0.08020   0.00000  Uiso   1.00
H502   H     0.87590   0.70406   0.30151   0.00000  Uiso   1.00
H503   H     0.79365   0.70689   0.19373   0.00000  Uiso   1.00
H504   H     0.97760   0.78968   0.18545   0.00000  Uiso   1.00
H505   H     0.72853   0.78962   0.18550   0.00000  Uiso   1.00
H506   H     0.68904   0.87690   0.31465   0.00000  Uiso   1.00
H507   H     0.93810   0.87693   0.31463   0.00000  Uiso   1.00
H508   H     0.96216   0.77799   0.48722   0.00000  Uiso   1.00
H509   H     0.81164   0.85393   0.08591   0.00000  Uiso   1.00
H510   H     0.71780   0.84958   0.42209   0.00000  Uiso   1.00
H511   H     0.75082   0.83843   0.06622   0.00000  Uiso   1.00
H512   H     0.69351   0.85319   0.02123   0.00000  Uiso   1.00
H513   H     0.86899   0.77476   0.37020   0.00000  Uiso   1.00
H514   H     0.87542   0.96154   0.30055   0.00000  Uiso   1.00
N515   N     0.71426   0.83334   0.25002   0.00000  Uiso   1.00
N516   N     0.95239   0.83331   0.25001   0.00000  Uiso   1.00
O517   O     0.79512   0.89442   0.25001   0.00000  Uiso   1.00
O518   O     0.87157   0.89441   0.25001   0.00000  Uiso   1.00
O519   O     0.77613   0.83333   0.32681   0.00000  Uiso   1.00
O520   O     0.85258   0.83332   0.32681   0.00000  Uiso   1.00
O521   O     0.79510   0.77226   0.25000   0.00000  Uiso   1.00
O522   O     0.87154   0.77225   0.25000   0.00000  Uiso   1.00
O523   O     0.81409   0.83335   0.17319   0.00000  Uiso   1.00
O524   O     0.89053   0.83334   0.17319   0.00000  Uiso   1.00
Zn525  Zn    0.78229   0.83334   0.25000   0.00000  Uiso   1.00
Zn526  Zn    0.88438   0.83333   0.25000   0.00000  Uiso   1.00
C527   C     0.78821   0.95772   0.17882   0.00000  Uiso   1.00
H528   H     0.81382   0.93472   0.15221   0.00000  Uiso   1.00
H529   H     0.75470   0.94166   0.20363   0.00000  Uiso   1.00
H530   H     0.77834   0.98028   0.15220   0.00000  Uiso   1.00
I531   I     0.96186   0.74919   0.38409   0.00000  Uiso   1.00
C532   C     0.16701   0.24666   0.74845   0.00000  Uiso   1.00
C533   C     0.14391   0.15478   0.99208   0.00000  Uiso   1.00
C534   C     0.15444   0.14480   0.93713   0.00000  Uiso   1.00
C535   C     0.18124   0.15106   0.51410   0.00000  Uiso   1.00
C536   C     0.22549   0.13083   0.98452   0.00000  Uiso   1.00
C537   C     0.23209   0.11498   0.93256   0.00000  Uiso   1.00
C538   C     0.19662   0.12167   0.90969   0.00000  Uiso   1.00
C539   C     0.17601   0.16839   0.56439   0.00000  Uiso   1.00
C540   C     0.25311   0.14065   0.56100   0.00000  Uiso   1.00
C541   C     0.12276   0.15897   0.91086   0.00000  Uiso   1.00
C542   C     0.19113   0.31173   0.77672   0.00000  Uiso   1.00
C543   C     0.14003   0.16398   0.85204   0.00000  Uiso   1.00
C544   C     0.19138   0.02117   0.77742   0.00000  Uiso   1.00
C545   C     0.16742   0.04272   0.74824   0.00000  Uiso   1.00
C546   C     0.14436   0.02239   0.71702   0.00000  Uiso   1.00
C547   C     0.14442   0.31263   0.71517   0.00000  Uiso   1.00
C548   C     0.16733   0.29090   0.74644   0.00000  Uiso   1.00
C549   C     0.32032   0.14239   0.71414   0.00000  Uiso   1.00
C550   C     0.03494   0.14239   0.71417   0.00000  Uiso   1.00
C551   C     0.01299   0.19088   0.78593   0.00000  Uiso   1.00
C552   C     0.29837   0.19088   0.78592   0.00000  Uiso   1.00
C553   C     0.16679   0.08672   0.74981   0.00000  Uiso   1.00
C554   C     0.19338   0.16652   0.64778   0.00000  Uiso   1.00
C555   C     0.26152   0.12664   0.50821   0.00000  Uiso   1.00
C556   C     0.20958   0.16060   0.58943   0.00000  Uiso   1.00
C557   C     0.07641   0.17313   0.94150   0.00000  Uiso   1.00
C558   C     0.06286   0.17617   0.99750   0.00000  Uiso   1.00
C559   C     0.09651   0.16822   0.52270   0.00000  Uiso   1.00
H560   H     0.27958   0.13442   0.58020   0.00000  Uiso   1.00
H561   H     0.20923   0.03740   0.80151   0.00000  Uiso   1.00
H562   H     0.12699   0.04022   0.69373   0.00000  Uiso   1.00
H563   H     0.31093   0.12302   0.68545   0.00000  Uiso   1.00
H564   H     0.06186   0.12295   0.68550   0.00000  Uiso   1.00
H565   H     0.02237   0.21023   0.81465   0.00000  Uiso   1.00
H566   H     0.27143   0.21027   0.81463   0.00000  Uiso   1.00
H567   H     0.29549   0.11132   0.98722   0.00000  Uiso   1.00
H568   H     0.14497   0.18727   0.58591   0.00000  Uiso   1.00
H569   H     0.05113   0.18291   0.92209   0.00000  Uiso   1.00
H570   H     0.08415   0.17177   0.56622   0.00000  Uiso   1.00
H571   H     0.02684   0.18652   0.52123   0.00000  Uiso   1.00
H572   H     0.20233   0.10810   0.87020   0.00000  Uiso   1.00
H573   H     0.20876   0.29487   0.80055   0.00000  Uiso   1.00
N574   N     0.04760   0.16668   0.75002   0.00000  Uiso   1.00
N575   N     0.28573   0.16665   0.75001   0.00000  Uiso   1.00
O576   O     0.12846   0.22775   0.75001   0.00000  Uiso   1.00
O577   O     0.20490   0.22774   0.75001   0.00000  Uiso   1.00
O578   O     0.10947   0.16666   0.82681   0.00000  Uiso   1.00
O579   O     0.18591   0.16665   0.82681   0.00000  Uiso   1.00
O580   O     0.12843   0.10559   0.75000   0.00000  Uiso   1.00
O581   O     0.20488   0.10558   0.75000   0.00000  Uiso   1.00
O582   O     0.14742   0.16668   0.67319   0.00000  Uiso   1.00
O583   O     0.22387   0.16667   0.67319   0.00000  Uiso   1.00
Zn584  Zn    0.11562   0.16667   0.75000   0.00000  Uiso   1.00
Zn585  Zn    0.21771   0.16666   0.75000   0.00000  Uiso   1.00
C586   C     0.12155   0.29106   0.67882   0.00000  Uiso   1.00
H587   H     0.14715   0.26806   0.65221   0.00000  Uiso   1.00
H588   H     0.08803   0.27500   0.70363   0.00000  Uiso   1.00
H589   H     0.11168   0.31361   0.65220   0.00000  Uiso   1.00
I590   I     0.29519   0.08253   0.88409   0.00000  Uiso   1.00
C591   C     0.50034   0.24666   0.74845   0.00000  Uiso   1.00
C592   C     0.47725   0.15478   0.99208   0.00000  Uiso   1.00
C593   C     0.48778   0.14480   0.93713   0.00000  Uiso   1.00
C594   C     0.51457   0.15106   0.51410   0.00000  Uiso   1.00
C595   C     0.55883   0.13083   0.98452   0.00000  Uiso   1.00
C596   C     0.56542   0.11498   0.93256   0.00000  Uiso   1.00
C597   C     0.52995   0.12167   0.90969   0.00000  Uiso   1.00
C598   C     0.50935   0.16839   0.56439   0.00000  Uiso   1.00
C599   C     0.58645   0.14065   0.56100   0.00000  Uiso   1.00
C600   C     0.45609   0.15897   0.91086   0.00000  Uiso   1.00
C601   C     0.52446   0.31173   0.77672   0.00000  Uiso   1.00
C602   C     0.47336   0.16398   0.85204   0.00000  Uiso   1.00
C603   C     0.52471   0.02117   0.77742   0.00000  Uiso   1.00
C604   C     0.50075   0.04272   0.74824   0.00000  Uiso   1.00
C605   C     0.47770   0.02239   0.71702   0.00000  Uiso   1.00
C606   C     0.47775   0.31263   0.71517   0.00000  Uiso   1.00
C607   C     0.50066   0.29090   0.74644   0.00000  Uiso   1.00
C608   C     0.65365   0.14239   0.71414   0.00000  Uiso   1.00
C609   C     0.36827   0.14239   0.71417   0.00000  Uiso   1.00
C610   C     0.34632   0.19088   0.78593   0.00000  Uiso   1.00
C611   C     0.63170   0.19088   0.78592   0.00000  Uiso   1.00
C612   C     0.50012   0.08672   0.74981   0.00000  Uiso   1.00
C613   C     0.52671   0.16652   0.64778   0.00000  Uiso   1.00
C614   C     0.59485   0.12664   0.50821   0.00000  Uiso   1.00
C615   C     0.54292   0.16060   0.58943   0.00000  Uiso   1.00
C616   C     0.40974   0.17313   0.94150   0.00000  Uiso   1.00
C617   C     0.39619   0.17617   0.99750   0.00000  Uiso   1.00
C618   C     0.42984   0.16822   0.52270   0.00000  Uiso   1.00
H619   H     0.61291   0.13442   0.58020   0.00000  Uiso   1.00
H620   H     0.54256   0.03740   0.80151   0.00000  Uiso   1.00
H621   H     0.46032   0.04022   0.69373   0.00000  Uiso   1.00
H622   H     0.64426   0.12302   0.68545   0.00000  Uiso   1.00
H623   H     0.39519   0.12295   0.68550   0.00000  Uiso   1.00
H624   H     0.35570   0.21023   0.81465   0.00000  Uiso   1.00
H625   H     0.60477   0.21027   0.81463   0.00000  Uiso   1.00
H626   H     0.62883   0.11132   0.98722   0.00000  Uiso   1.00
H627   H     0.47831   0.18727   0.58591   0.00000  Uiso   1.00
H628   H     0.38447   0.18291   0.92209   0.00000  Uiso   1.00
H629   H     0.41748   0.17177   0.56622   0.00000  Uiso   1.00
H630   H     0.36018   0.18652   0.52123   0.00000  Uiso   1.00
H631   H     0.53566   0.10810   0.87020   0.00000  Uiso   1.00
H632   H     0.54209   0.29487   0.80055   0.00000  Uiso   1.00
N633   N     0.38093   0.16668   0.75002   0.00000  Uiso   1.00
N634   N     0.61906   0.16665   0.75001   0.00000  Uiso   1.00
O635   O     0.46179   0.22775   0.75001   0.00000  Uiso   1.00
O636   O     0.53823   0.22774   0.75001   0.00000  Uiso   1.00
O637   O     0.44280   0.16666   0.82681   0.00000  Uiso   1.00
O638   O     0.51924   0.16665   0.82681   0.00000  Uiso   1.00
O639   O     0.46177   0.10559   0.75000   0.00000  Uiso   1.00
O640   O     0.53821   0.10558   0.75000   0.00000  Uiso   1.00
O641   O     0.48076   0.16668   0.67319   0.00000  Uiso   1.00
O642   O     0.55720   0.16667   0.67319   0.00000  Uiso   1.00
Zn643  Zn    0.44896   0.16667   0.75000   0.00000  Uiso   1.00
Zn644  Zn    0.55104   0.16666   0.75000   0.00000  Uiso   1.00
C645   C     0.45488   0.29106   0.67882   0.00000  Uiso   1.00
H646   H     0.48049   0.26806   0.65221   0.00000  Uiso   1.00
H647   H     0.42136   0.27500   0.70363   0.00000  Uiso   1.00
H648   H     0.44501   0.31361   0.65220   0.00000  Uiso   1.00
I649   I     0.62852   0.08253   0.88409   0.00000  Uiso   1.00
C650   C     0.83368   0.24666   0.74845   0.00000  Uiso   1.00
C651   C     0.81058   0.15478   0.99208   0.00000  Uiso   1.00
C652   C     0.82111   0.14480   0.93713   0.00000  Uiso   1.00
C653   C     0.84790   0.15106   0.51410   0.00000  Uiso   1.00
C654   C     0.89216   0.13083   0.98452   0.00000  Uiso   1.00
C655   C     0.89876   0.11498   0.93256   0.00000  Uiso   1.00
C656   C     0.86329   0.12167   0.90969   0.00000  Uiso   1.00
C657   C     0.84268   0.16839   0.56439   0.00000  Uiso   1.00
C658   C     0.91978   0.14065   0.56100   0.00000  Uiso   1.00
C659   C     0.78943   0.15897   0.91086   0.00000  Uiso   1.00
C660   C     0.85780   0.31173   0.77672   0.00000  Uiso   1.00
C661   C     0.80670   0.16398   0.85204   0.00000  Uiso   1.00
C662   C     0.85805   0.02117   0.77742   0.00000  Uiso   1.00
C663   C     0.83409   0.04272   0.74824   0.00000  Uiso   1.00
C664   C     0.81103   0.02239   0.71702   0.00000  Uiso   1.00
C665   C     0.81109   0.31263   0.71517   0.00000  Uiso   1.00
C666   C     0.83400   0.29090   0.74644   0.00000  Uiso   1.00
C667   C     0.98699   0.14239   0.71414   0.00000  Uiso   1.00
C668   C     0.70161   0.14239   0.71417   0.00000  Uiso   1.00
C669   C     0.67965   0.19088   0.78593   0.00000  Uiso   1.00
C670   C     0.96503   0.19088   0.78592   0.00000  Uiso   1.00
C671   C     0.83345   0.08672   0.74981   0.00000  Uiso   1.00
C672   C     0.86005   0.16652   0.64778   0.00000  Uiso   1.00
C673   C     0.92819   0.12664   0.50821   0.00000  Uiso   1.00
C674   C     0.87625   0.16060   0.58943   0.00000  Uiso   1.00
C675   C     0.74307   0.17313   0.94150   0.00000  Uiso   1.00
C676   C     0.72953   0.17617   0.99750   0.00000  Uiso   1.00
C677   C     0.76317   0.16822   0.52270   0.00000  Uiso   1.00
H678   H     0.94625   0.13442   0.58020   0.00000  Uiso   1.00
H679   H     0.87590   0.03740   0.80151   0.00000  Uiso   1.00
H680   H     0.79365   0.04022   0.69373   0.00000  Uiso   1.00
H681   H     0.97760   0.12302   0.68545   0.00000  Uiso   1.00
H682   H     0.72853   0.12295   0.68550   0.00000  Uiso   1.00
H683   H     0.68904   0.21023   0.81465   0.00000  Uiso   1.00
H684   H     0.93810   0.21027   0.81463   0.00000  Uiso   1.00
H685   H     0.96216   0.11132   0.98722   0.00000  Uiso   1.00
H686   H     0.81164   0.18727   0.58591   0.00000  Uiso   1.00
H687   H     0.71780   0.18291   0.92209   0.00000  Uiso   1.00
H688   H     0.75082   0.17177   0.56622   0.00000  Uiso   1.00
H689   H     0.69351   0.18652   0.52123   0.00000  Uiso   1.00
H690   H     0.86899   0.10810   0.87020   0.00000  Uiso   1.00
H691   H     0.87542   0.29487   0.80055   0.00000  Uiso   1.00
N692   N     0.71426   0.16668   0.75002   0.00000  Uiso   1.00
N693   N     0.95239   0.16665   0.75001   0.00000  Uiso   1.00
O694   O     0.79512   0.22775   0.75001   0.00000  Uiso   1.00
O695   O     0.87157   0.22774   0.75001   0.00000  Uiso   1.00
O696   O     0.77613   0.16666   0.82681   0.00000  Uiso   1.00
O697   O     0.85258   0.16665   0.82681   0.00000  Uiso   1.00
O698   O     0.79510   0.10559   0.75000   0.00000  Uiso   1.00
O699   O     0.87154   0.10558   0.75000   0.00000  Uiso   1.00
O700   O     0.81409   0.16668   0.67319   0.00000  Uiso   1.00
O701   O     0.89053   0.16667   0.67319   0.00000  Uiso   1.00
Zn702  Zn    0.78229   0.16667   0.75000   0.00000  Uiso   1.00
Zn703  Zn    0.88438   0.16666   0.75000   0.00000  Uiso   1.00
C704   C     0.78821   0.29106   0.67882   0.00000  Uiso   1.00
H705   H     0.81382   0.26806   0.65221   0.00000  Uiso   1.00
H706   H     0.75470   0.27500   0.70363   0.00000  Uiso   1.00
H707   H     0.77834   0.31361   0.65220   0.00000  Uiso   1.00
I708   I     0.96186   0.08253   0.88409   0.00000  Uiso   1.00
C709   C     0.16701   0.57999   0.74845   0.00000  Uiso   1.00
C710   C     0.14391   0.48811   0.99208   0.00000  Uiso   1.00
C711   C     0.15444   0.47814   0.93713   0.00000  Uiso   1.00
C712   C     0.18124   0.48440   0.51410   0.00000  Uiso   1.00
C713   C     0.22549   0.46416   0.98452   0.00000  Uiso   1.00
C714   C     0.23209   0.44832   0.93256   0.00000  Uiso   1.00
C715   C     0.19662   0.45500   0.90969   0.00000  Uiso   1.00
C716   C     0.17601   0.50173   0.56439   0.00000  Uiso   1.00
C717   C     0.25311   0.47399   0.56100   0.00000  Uiso   1.00
C718   C     0.12276   0.49230   0.91086   0.00000  Uiso   1.00
C719   C     0.19113   0.64506   0.77672   0.00000  Uiso   1.00
C720   C     0.14003   0.49731   0.85204   0.00000  Uiso   1.00
C721   C     0.19138   0.35450   0.77742   0.00000  Uiso   1.00
C722   C     0.16742   0.37605   0.74824   0.00000  Uiso   1.00
C723   C     0.14436   0.35572   0.71702   0.00000  Uiso   1.00
C724   C     0.14442   0.64596   0.71517   0.00000  Uiso   1.00
C725   C     0.16733   0.62424   0.74644   0.00000  Uiso   1.00
C726   C     0.32032   0.47573   0.71414   0.00000  Uiso   1.00
C727   C     0.03494   0.47572   0.71417   0.00000  Uiso   1.00
C728   C     0.01299   0.52421   0.78593   0.00000  Uiso   1.00
C729   C     0.29837   0.52421   0.78592   0.00000  Uiso   1.00
C730   C     0.16679   0.42005   0.74981   0.00000  Uiso   1.00
C731   C     0.19338   0.49986   0.64778   0.00000  Uiso   1.00
C732   C     0.26152   0.45997   0.50821   0.00000  Uiso   1.00
C733   C     0.20958   0.49393   0.58943   0.00000  Uiso   1.00
C734   C     0.07641   0.50646   0.94150   0.00000  Uiso   1.00
C735   C     0.06286   0.50950   0.99750   0.00000  Uiso   1.00
C736   C     0.09651   0.50156   0.52270   0.00000  Uiso   1.00
H737   H     0.27958   0.46775   0.58020   0.00000  Uiso   1.00
H738   H     0.20923   0.37073   0.80151   0.00000  Uiso   1.00
H739   H     0.12699   0.37356   0.69373   0.00000  Uiso   1.00
H740   H     0.31093   0.45635   0.68545   0.00000  Uiso   1.00
H741   H     0.06186   0.45628   0.68550   0.00000  Uiso   1.00
H742   H     0.02237   0.54356   0.81465   0.00000  Uiso   1.00
H743   H     0.27143   0.54360   0.81463   0.00000  Uiso   1.00
H744   H     0.29549   0.44465   0.98722   0.00000  Uiso   1.00
H745   H     0.14497   0.52060   0.58591   0.00000  Uiso   1.00
H746   H     0.05113   0.51624   0.92209   0.00000  Uiso   1.00
H747   H     0.08415   0.50510   0.56622   0.00000  Uiso   1.00
H748   H     0.02684   0.51986   0.52123   0.00000  Uiso   1.00
H749   H     0.20233   0.44143   0.87020   0.00000  Uiso   1.00
H750   H     0.20876   0.62820   0.80055   0.00000  Uiso   1.00
N751   N     0.04760   0.50001   0.75002   0.00000  Uiso   1.00
N752   N     0.28573   0.49998   0.75001   0.00000  Uiso   1.00
O753   O     0.12846   0.56108   0.75001   0.00000  Uiso   1.00
O754   O     0.20490   0.56107   0.75001   0.00000  Uiso   1.00
O755   O     0.10947   0.50000   0.82681   0.00000  Uiso   1.00
O756   O     0.18591   0.49999   0.82681   0.00000  Uiso   1.00
O757   O     0.12843   0.43893   0.75000   0.00000  Uiso   1.00
O758   O     0.20488   0.43892   0.75000   0.00000  Uiso   1.00
O759   O     0.14742   0.50001   0.67319   0.00000  Uiso   1.00
O760   O     0.22387   0.50000   0.67319   0.00000  Uiso   1.00
Zn761  Zn    0.11562   0.50001   0.75000   0.00000  Uiso   1.00
Zn762  Zn    0.21771   0.49999   0.75000   0.00000  Uiso   1.00
C763   C     0.12155   0.62439   0.67882   0.00000  Uiso   1.00
H764   H     0.14715   0.60139   0.65221   0.00000  Uiso   1.00
H765   H     0.08803   0.60833   0.70363   0.00000  Uiso   1.00
H766   H     0.11168   0.64695   0.65220   0.00000  Uiso   1.00
I767   I     0.29519   0.41586   0.88409   0.00000  Uiso   1.00
C768   C     0.50034   0.57999   0.74845   0.00000  Uiso   1.00
C769   C     0.47725   0.48811   0.99208   0.00000  Uiso   1.00
C770   C     0.48778   0.47814   0.93713   0.00000  Uiso   1.00
C771   C     0.51457   0.48440   0.51410   0.00000  Uiso   1.00
C772   C     0.55883   0.46416   0.98452   0.00000  Uiso   1.00
C773   C     0.56542   0.44832   0.93256   0.00000  Uiso   1.00
C774   C     0.52995   0.45500   0.90969   0.00000  Uiso   1.00
C775   C     0.50935   0.50173   0.56439   0.00000  Uiso   1.00
C776   C     0.58645   0.47399   0.56100   0.00000  Uiso   1.00
C777   C     0.45609   0.49230   0.91086   0.00000  Uiso   1.00
C778   C     0.52446   0.64506   0.77672   0.00000  Uiso   1.00
C779   C     0.47336   0.49731   0.85204   0.00000  Uiso   1.00
C780   C     0.52471   0.35450   0.77742   0.00000  Uiso   1.00
C781   C     0.50075   0.37605   0.74824   0.00000  Uiso   1.00
C782   C     0.47770   0.35572   0.71702   0.00000  Uiso   1.00
C783   C     0.47775   0.64596   0.71517   0.00000  Uiso   1.00
C784   C     0.50066   0.62424   0.74644   0.00000  Uiso   1.00
C785   C     0.65365   0.47573   0.71414   0.00000  Uiso   1.00
C786   C     0.36827   0.47572   0.71417   0.00000  Uiso   1.00
C787   C     0.34632   0.52421   0.78593   0.00000  Uiso   1.00
C788   C     0.63170   0.52421   0.78592   0.00000  Uiso   1.00
C789   C     0.50012   0.42005   0.74981   0.00000  Uiso   1.00
C790   C     0.52671   0.49986   0.64778   0.00000  Uiso   1.00
C791   C     0.59485   0.45997   0.50821   0.00000  Uiso   1.00
C792   C     0.54292   0.49393   0.58943   0.00000  Uiso   1.00
C793   C     0.40974   0.50646   0.94150   0.00000  Uiso   1.00
C794   C     0.39619   0.50950   0.99750   0.00000  Uiso   1.00
C795   C     0.42984   0.50156   0.52270   0.00000  Uiso   1.00
H796   H     0.61291   0.46775   0.58020   0.00000  Uiso   1.00
H797   H     0.54256   0.37073   0.80151   0.00000  Uiso   1.00
H798   H     0.46032   0.37356   0.69373   0.00000  Uiso   1.00
H799   H     0.64426   0.45635   0.68545   0.00000  Uiso   1.00
H800   H     0.39519   0.45628   0.68550   0.00000  Uiso   1.00
H801   H     0.35570   0.54356   0.81465   0.00000  Uiso   1.00
H802   H     0.60477   0.54360   0.81463   0.00000  Uiso   1.00
H803   H     0.62883   0.44465   0.98722   0.00000  Uiso   1.00
H804   H     0.47831   0.52060   0.58591   0.00000  Uiso   1.00
H805   H     0.38447   0.51624   0.92209   0.00000  Uiso   1.00
H806   H     0.41748   0.50510   0.56622   0.00000  Uiso   1.00
H807   H     0.36018   0.51986   0.52123   0.00000  Uiso   1.00
H808   H     0.53566   0.44143   0.87020   0.00000  Uiso   1.00
H809   H     0.54209   0.62820   0.80055   0.00000  Uiso   1.00
N810   N     0.38093   0.50001   0.75002   0.00000  Uiso   1.00
N811   N     0.61906   0.49998   0.75001   0.00000  Uiso   1.00
O812   O     0.46179   0.56108   0.75001   0.00000  Uiso   1.00
O813   O     0.53823   0.56107   0.75001   0.00000  Uiso   1.00
O814   O     0.44280   0.50000   0.82681   0.00000  Uiso   1.00
O815   O     0.51924   0.49999   0.82681   0.00000  Uiso   1.00
O816   O     0.46177   0.43893   0.75000   0.00000  Uiso   1.00
O817   O     0.53821   0.43892   0.75000   0.00000  Uiso   1.00
O818   O     0.48076   0.50001   0.67319   0.00000  Uiso   1.00
O819   O     0.55720   0.50000   0.67319   0.00000  Uiso   1.00
Zn820  Zn    0.44896   0.50001   0.75000   0.00000  Uiso   1.00
Zn821  Zn    0.55104   0.49999   0.75000   0.00000  Uiso   1.00
C822   C     0.45488   0.62439   0.67882   0.00000  Uiso   1.00
H823   H     0.48049   0.60139   0.65221   0.00000  Uiso   1.00
H824   H     0.42136   0.60833   0.70363   0.00000  Uiso   1.00
H825   H     0.44501   0.64695   0.65220   0.00000  Uiso   1.00
I826   I     0.62852   0.41586   0.88409   0.00000  Uiso   1.00
C827   C     0.83368   0.57999   0.74845   0.00000  Uiso   1.00
C828   C     0.81058   0.48811   0.99208   0.00000  Uiso   1.00
C829   C     0.82111   0.47814   0.93713   0.00000  Uiso   1.00
C830   C     0.84790   0.48440   0.51410   0.00000  Uiso   1.00
C831   C     0.89216   0.46416   0.98452   0.00000  Uiso   1.00
C832   C     0.89876   0.44832   0.93256   0.00000  Uiso   1.00
C833   C     0.86329   0.45500   0.90969   0.00000  Uiso   1.00
C834   C     0.84268   0.50173   0.56439   0.00000  Uiso   1.00
C835   C     0.91978   0.47399   0.56100   0.00000  Uiso   1.00
C836   C     0.78943   0.49230   0.91086   0.00000  Uiso   1.00
C837   C     0.85780   0.64506   0.77672   0.00000  Uiso   1.00
C838   C     0.80670   0.49731   0.85204   0.00000  Uiso   1.00
C839   C     0.85805   0.35450   0.77742   0.00000  Uiso   1.00
C840   C     0.83409   0.37605   0.74824   0.00000  Uiso   1.00
C841   C     0.81103   0.35572   0.71702   0.00000  Uiso   1.00
C842   C     0.81109   0.64596   0.71517   0.00000  Uiso   1.00
C843   C     0.83400   0.62424   0.74644   0.00000  Uiso   1.00
C844   C     0.98699   0.47573   0.71414   0.00000  Uiso   1.00
C845   C     0.70161   0.47572   0.71417   0.00000  Uiso   1.00
C846   C     0.67965   0.52421   0.78593   0.00000  Uiso   1.00
C847   C     0.96503   0.52421   0.78592   0.00000  Uiso   1.00
C848   C     0.83345   0.42005   0.74981   0.00000  Uiso   1.00
C849   C     0.86005   0.49986   0.64778   0.00000  Uiso   1.00
C850   C     0.92819   0.45997   0.50821   0.00000  Uiso   1.00
C851   C     0.87625   0.49393   0.58943   0.00000  Uiso   1.00
C852   C     0.74307   0.50646   0.94150   0.00000  Uiso   1.00
C853   C     0.72953   0.50950   0.99750   0.00000  Uiso   1.00
C854   C     0.76317   0.50156   0.52270   0.00000  Uiso   1.00
H855   H     0.94625   0.46775   0.58020   0.00000  Uiso   1.00
H856   H     0.87590   0.37073   0.80151   0.00000  Uiso   1.00
H857   H     0.79365   0.37356   0.69373   0.00000  Uiso   1.00
H858   H     0.97760   0.45635   0.68545   0.00000  Uiso   1.00
H859   H     0.72853   0.45628   0.68550   0.00000  Uiso   1.00
H860   H     0.68904   0.54356   0.81465   0.00000  Uiso   1.00
H861   H     0.93810   0.54360   0.81463   0.00000  Uiso   1.00
H862   H     0.96216   0.44465   0.98722   0.00000  Uiso   1.00
H863   H     0.81164   0.52060   0.58591   0.00000  Uiso   1.00
H864   H     0.71780   0.51624   0.92209   0.00000  Uiso   1.00
H865   H     0.75082   0.50510   0.56622   0.00000  Uiso   1.00
H866   H     0.69351   0.51986   0.52123   0.00000  Uiso   1.00
H867   H     0.86899   0.44143   0.87020   0.00000  Uiso   1.00
H868   H     0.87542   0.62820   0.80055   0.00000  Uiso   1.00
N869   N     0.71426   0.50001   0.75002   0.00000  Uiso   1.00
N870   N     0.95239   0.49998   0.75001   0.00000  Uiso   1.00
O871   O     0.79512   0.56108   0.75001   0.00000  Uiso   1.00
O872   O     0.87157   0.56107   0.75001   0.00000  Uiso   1.00
O873   O     0.77613   0.50000   0.82681   0.00000  Uiso   1.00
O874   O     0.85258   0.49999   0.82681   0.00000  Uiso   1.00
O875   O     0.79510   0.43893   0.75000   0.00000  Uiso   1.00
O876   O     0.87154   0.43892   0.75000   0.00000  Uiso   1.00
O877   O     0.81409   0.50001   0.67319   0.00000  Uiso   1.00
O878   O     0.89053   0.50000   0.67319   0.00000  Uiso   1.00
Zn879  Zn    0.78229   0.50001   0.75000   0.00000  Uiso   1.00
Zn880  Zn    0.88438   0.49999   0.75000   0.00000  Uiso   1.00
C881   C     0.78821   0.62439   0.67882   0.00000  Uiso   1.00
H882   H     0.81382   0.60139   0.65221   0.00000  Uiso   1.00
H883   H     0.75470   0.60833   0.70363   0.00000  Uiso   1.00
H884   H     0.77834   0.64695   0.65220   0.00000  Uiso   1.00
I885   I     0.96186   0.41586   0.88409   0.00000  Uiso   1.00
C886   C     0.16701   0.91333   0.74845   0.00000  Uiso   1.00
C887   C     0.14391   0.82145   0.99208   0.00000  Uiso   1.00
C888   C     0.15444   0.81147   0.93713   0.00000  Uiso   1.00
C889   C     0.18124   0.81773   0.51410   0.00000  Uiso   1.00
C890   C     0.22549   0.79750   0.98452   0.00000  Uiso   1.00
C891   C     0.23209   0.78165   0.93256   0.00000  Uiso   1.00
C892   C     0.19662   0.78834   0.90969   0.00000  Uiso   1.00
C893   C     0.17601   0.83506   0.56439   0.00000  Uiso   1.00
C894   C     0.25311   0.80732   0.56100   0.00000  Uiso   1.00
C895   C     0.12276   0.82563   0.91086   0.00000  Uiso   1.00
C896   C     0.19113   0.97839   0.77672   0.00000  Uiso   1.00
C897   C     0.14003   0.83064   0.85204   0.00000  Uiso   1.00
C898   C     0.19138   0.68783   0.77742   0.00000  Uiso   1.00
C899   C     0.16742   0.70938   0.74824   0.00000  Uiso   1.00
C900   C     0.14436   0.68905   0.71702   0.00000  Uiso   1.00
C901   C     0.14442   0.97929   0.71517   0.00000  Uiso   1.00
C902   C     0.16733   0.95757   0.74644   0.00000  Uiso   1.00
C903   C     0.32032   0.80906   0.71414   0.00000  Uiso   1.00
C904   C     0.03494   0.80905   0.71417   0.00000  Uiso   1.00
C905   C     0.01299   0.85755   0.78593   0.00000  Uiso   1.00
C906   C     0.29837   0.85754   0.78592   0.00000  Uiso   1.00
C907   C     0.16679   0.75339   0.74981   0.00000  Uiso   1.00
C908   C     0.19338   0.83319   0.64778   0.00000  Uiso   1.00
C909   C     0.26152   0.79330   0.50821   0.00000  Uiso   1.00
C910   C     0.20958   0.82726   0.58943   0.00000  Uiso   1.00
C911   C     0.07641   0.83980   0.94150   0.00000  Uiso   1.00
C912   C     0.06286   0.84284   0.99750   0.00000  Uiso   1.00
C913   C     0.09651   0.83489   0.52270   0.00000  Uiso   1.00
H914   H     0.27958   0.80108   0.58020   0.00000  Uiso   1.00
H915   H     0.20923   0.70406   0.80151   0.00000  Uiso   1.00
H916   H     0.12699   0.70689   0.69373   0.00000  Uiso   1.00
H917   H     0.31093   0.78968   0.68545   0.00000  Uiso   1.00
H918   H     0.06186   0.78962   0.68550   0.00000  Uiso   1.00
H919   H     0.02237   0.87690   0.81465   0.00000  Uiso   1.00
H920   H     0.27143   0.87693   0.81463   0.00000  Uiso   1.00
H921   H     0.29549   0.77799   0.98722   0.00000  Uiso   1.00
H922   H     0.14497   0.85393   0.58591   0.00000  Uiso   1.00
H923   H     0.05113   0.84958   0.92209   0.00000  Uiso   1.00
H924   H     0.08415   0.83843   0.56622   0.00000  Uiso   1.00
H925   H     0.02684   0.85319   0.52123   0.00000  Uiso   1.00
H926   H     0.20233   0.77476   0.87020   0.00000  Uiso   1.00
H927   H     0.20876   0.96154   0.80055   0.00000  Uiso   1.00
N928   N     0.04760   0.83334   0.75002   0.00000  Uiso   1.00
N929   N     0.28573   0.83331   0.75001   0.00000  Uiso   1.00
O930   O     0.12846   0.89442   0.75001   0.00000  Uiso   1.00
O931   O     0.20490   0.89441   0.75001   0.00000  Uiso   1.00
O932   O     0.10947   0.83333   0.82681   0.00000  Uiso   1.00
O933   O     0.18591   0.83332   0.82681   0.00000  Uiso   1.00
O934   O     0.12843   0.77226   0.75000   0.00000  Uiso   1.00
O935   O     0.20488   0.77225   0.75000   0.00000  Uiso   1.00
O936   O     0.14742   0.83335   0.67319   0.00000  Uiso   1.00
O937   O     0.22387   0.83334   0.67319   0.00000  Uiso   1.00
Zn938  Zn    0.11562   0.83334   0.75000   0.00000  Uiso   1.00
Zn939  Zn    0.21771   0.83333   0.75000   0.00000  Uiso   1.00
C940   C     0.12155   0.95772   0.67882   0.00000  Uiso   1.00
H941   H     0.14715   0.93472   0.65221   0.00000  Uiso   1.00
H942   H     0.08803   0.94166   0.70363   0.00000  Uiso   1.00
H943   H     0.11168   0.98028   0.65220   0.00000  Uiso   1.00
I944   I     0.29519   0.74919   0.88409   0.00000  Uiso   1.00
C945   C     0.50034   0.91333   0.74845   0.00000  Uiso   1.00
C946   C     0.47725   0.82145   0.99208   0.00000  Uiso   1.00
C947   C     0.48778   0.81147   0.93713   0.00000  Uiso   1.00
C948   C     0.51457   0.81773   0.51410   0.00000  Uiso   1.00
C949   C     0.55883   0.79750   0.98452   0.00000  Uiso   1.00
C950   C     0.56542   0.78165   0.93256   0.00000  Uiso   1.00
C951   C     0.52995   0.78834   0.90969   0.00000  Uiso   1.00
C952   C     0.50935   0.83506   0.56439   0.00000  Uiso   1.00
C953   C     0.58645   0.80732   0.56100   0.00000  Uiso   1.00
C954   C     0.45609   0.82563   0.91086   0.00000  Uiso   1.00
C955   C     0.52446   0.97839   0.77672   0.00000  Uiso   1.00
C956   C     0.47336   0.83064   0.85204   0.00000  Uiso   1.00
C957   C     0.52471   0.68783   0.77742   0.00000  Uiso   1.00
C958   C     0.50075   0.70938   0.74824   0.00000  Uiso   1.00
C959   C     0.47770   0.68905   0.71702   0.00000  Uiso   1.00
C960   C     0.47775   0.97929   0.71517   0.00000  Uiso   1.00
C961   C     0.50066   0.95757   0.74644   0.00000  Uiso   1.00
C962   C     0.65365   0.80906   0.71414   0.00000  Uiso   1.00
C963   C     0.36827   0.80905   0.71417   0.00000  Uiso   1.00
C964   C     0.34632   0.85755   0.78593   0.00000  Uiso   1.00
C965   C     0.63170   0.85754   0.78592   0.00000  Uiso   1.00
C966   C     0.50012   0.75339   0.74981   0.00000  Uiso   1.00
C967   C     0.52671   0.83319   0.64778   0.00000  Uiso   1.00
C968   C     0.59485   0.79330   0.50821   0.00000  Uiso   1.00
C969   C     0.54292   0.82726   0.58943   0.00000  Uiso   1.00
C970   C     0.40974   0.83980   0.94150   0.00000  Uiso   1.00
C971   C     0.39619   0.84284   0.99750   0.00000  Uiso   1.00
C972   C     0.42984   0.83489   0.52270   0.00000  Uiso   1.00
H973   H     0.61291   0.80108   0.58020   0.00000  Uiso   1.00
H974   H     0.54256   0.70406   0.80151   0.00000  Uiso   1.00
H975   H     0.46032   0.70689   0.69373   0.00000  Uiso   1.00
H976   H     0.64426   0.78968   0.68545   0.00000  Uiso   1.00
H977   H     0.39519   0.78962   0.68550   0.00000  Uiso   1.00
H978   H     0.35570   0.87690   0.81465   0.00000  Uiso   1.00
H979   H     0.60477   0.87693   0.81463   0.00000  Uiso   1.00
H980   H     0.62883   0.77799   0.98722   0.00000  Uiso   1.00
H981   H     0.47831   0.85393   0.58591   0.00000  Uiso   1.00
H982   H     0.38447   0.84958   0.92209   0.00000  Uiso   1.00
H983   H     0.41748   0.83843   0.56622   0.00000  Uiso   1.00
H984   H     0.36018   0.85319   0.52123   0.00000  Uiso   1.00
H985   H     0.53566   0.77476   0.87020   0.00000  Uiso   1.00
H986   H     0.54209   0.96154   0.80055   0.00000  Uiso   1.00
N987   N     0.38093   0.83334   0.75002   0.00000  Uiso   1.00
N988   N     0.61906   0.83331   0.75001   0.00000  Uiso   1.00
O989   O     0.46179   0.89442   0.75001   0.00000  Uiso   1.00
O990   O     0.53823   0.89441   0.75001   0.00000  Uiso   1.00
O991   O     0.44280   0.83333   0.82681   0.00000  Uiso   1.00
O992   O     0.51924   0.83332   0.82681   0.00000  Uiso   1.00
O993   O     0.46177   0.77226   0.75000   0.00000  Uiso   1.00
O994   O     0.53821   0.77225   0.75000   0.00000  Uiso   1.00
O995   O     0.48076   0.83335   0.67319   0.00000  Uiso   1.00
O996   O     0.55720   0.83334   0.67319   0.00000  Uiso   1.00
Zn997  Zn    0.44896   0.83334   0.75000   0.00000  Uiso   1.00
Zn998  Zn    0.55104   0.83333   0.75000   0.00000  Uiso   1.00
C999   C     0.45488   0.95772   0.67882   0.00000  Uiso   1.00
H1000  H     0.48049   0.93472   0.65221   0.00000  Uiso   1.00
H1001  H     0.42136   0.94166   0.70363   0.00000  Uiso   1.00
H1002  H     0.44501   0.98028   0.65220   0.00000  Uiso   1.00
I1003  I     0.62852   0.74919   0.88409   0.00000  Uiso   1.00
C1004  C     0.83368   0.91333   0.74845   0.00000  Uiso   1.00
C1005  C     0.81058   0.82145   0.99208   0.00000  Uiso   1.00
C1006  C     0.82111   0.81147   0.93713   0.00000  Uiso   1.00
C1007  C     0.84790   0.81773   0.51410   0.00000  Uiso   1.00
C1008  C     0.89216   0.79750   0.98452   0.00000  Uiso   1.00
C1009  C     0.89876   0.78165   0.93256   0.00000  Uiso   1.00
C1010  C     0.86329   0.78834   0.90969   0.00000  Uiso   1.00
C1011  C     0.84268   0.83506   0.56439   0.00000  Uiso   1.00
C1012  C     0.91978   0.80732   0.56100   0.00000  Uiso   1.00
C1013  C     0.78943   0.82563   0.91086   0.00000  Uiso   1.00
C1014  C     0.85780   0.97839   0.77672   0.00000  Uiso   1.00
C1015  C     0.80670   0.83064   0.85204   0.00000  Uiso   1.00
C1016  C     0.85805   0.68783   0.77742   0.00000  Uiso   1.00
C1017  C     0.83409   0.70938   0.74824   0.00000  Uiso   1.00
C1018  C     0.81103   0.68905   0.71702   0.00000  Uiso   1.00
C1019  C     0.81109   0.97929   0.71517   0.00000  Uiso   1.00
C1020  C     0.83400   0.95757   0.74644   0.00000  Uiso   1.00
C1021  C     0.98699   0.80906   0.71414   0.00000  Uiso   1.00
C1022  C     0.70161   0.80905   0.71417   0.00000  Uiso   1.00
C1023  C     0.67965   0.85755   0.78593   0.00000  Uiso   1.00
C1024  C     0.96503   0.85754   0.78592   0.00000  Uiso   1.00
C1025  C     0.83345   0.75339   0.74981   0.00000  Uiso   1.00
C1026  C     0.86005   0.83319   0.64778   0.00000  Uiso   1.00
C1027  C     0.92819   0.79330   0.50821   0.00000  Uiso   1.00
C1028  C     0.87625   0.82726   0.58943   0.00000  Uiso   1.00
C1029  C     0.74307   0.83980   0.94150   0.00000  Uiso   1.00
C1030  C     0.72953   0.84284   0.99750   0.00000  Uiso   1.00
C1031  C     0.76317   0.83489   0.52270   0.00000  Uiso   1.00
H1032  H     0.94625   0.80108   0.58020   0.00000  Uiso   1.00
H1033  H     0.87590   0.70406   0.80151   0.00000  Uiso   1.00
H1034  H     0.79365   0.70689   0.69373   0.00000  Uiso   1.00
H1035  H     0.97760   0.78968   0.68545   0.00000  Uiso   1.00
H1036  H     0.72853   0.78962   0.68550   0.00000  Uiso   1.00
H1037  H     0.68904   0.87690   0.81465   0.00000  Uiso   1.00
H1038  H     0.93810   0.87693   0.81463   0.00000  Uiso   1.00
H1039  H     0.96216   0.77799   0.98722   0.00000  Uiso   1.00
H1040  H     0.81164   0.85393   0.58591   0.00000  Uiso   1.00
H1041  H     0.71780   0.84958   0.92209   0.00000  Uiso   1.00
H1042  H     0.75082   0.83843   0.56622   0.00000  Uiso   1.00
H1043  H     0.69351   0.85319   0.52123   0.00000  Uiso   1.00
H1044  H     0.86899   0.77476   0.87020   0.00000  Uiso   1.00
H1045  H     0.87542   0.96154   0.80055   0.00000  Uiso   1.00
N1046  N     0.71426   0.83334   0.75002   0.00000  Uiso   1.00
N1047  N     0.95239   0.83331   0.75001   0.00000  Uiso   1.00
O1048  O     0.79512   0.89442   0.75001   0.00000  Uiso   1.00
O1049  O     0.87157   0.89441   0.75001   0.00000  Uiso   1.00
O1050  O     0.77613   0.83333   0.82681   0.00000  Uiso   1.00
O1051  O     0.85258   0.83332   0.82681   0.00000  Uiso   1.00
O1052  O     0.79510   0.77226   0.75000   0.00000  Uiso   1.00
O1053  O     0.87154   0.77225   0.75000   0.00000  Uiso   1.00
O1054  O     0.81409   0.83335   0.67319   0.00000  Uiso   1.00
O1055  O     0.89053   0.83334   0.67319   0.00000  Uiso   1.00
Zn1056 Zn    0.78229   0.83334   0.75000   0.00000  Uiso   1.00
Zn1057 Zn    0.88438   0.83333   0.75000   0.00000  Uiso   1.00
C1058  C     0.78821   0.95772   0.67882   0.00000  Uiso   1.00
H1059  H     0.81382   0.93472   0.65221   0.00000  Uiso   1.00
H1060  H     0.75470   0.94166   0.70363   0.00000  Uiso   1.00
H1061  H     0.77834   0.98028   0.65220   0.00000  Uiso   1.00
I1062  I     0.96186   0.74919   0.88409   0.00000  Uiso   1.00
loop_
_geom_bond_atom_site_label_1
_geom_bond_atom_site_label_2
_geom_bond_distance
_geom_bond_site_symmetry_2
_ccdc_geom_bond_type
C1     C17     1.417   .     S
C1     O45     1.279   .     A
C1     O46     1.283   .     A
C2     C3      1.403   .     A
C2     C535    1.414   .     S
C2     C559    1.420   .     S
C3     C10     1.413   .     A
C3     C7      1.413   .     A
C4     C8      1.389   .     A
C4     C533    1.414   1_554 S
C4     C536    1.424   1_554 S
C5     C6      1.403   .     A
C5     C535    1.424   .     S
C5     C555    1.410   .     S
C6     C7      1.390   .     A
C6     I59     2.128   .     S
C7     H41     1.081   .     S
C8     C25     1.386   .     A
C8     H37     1.079   .     S
C9     C24     1.394   .     A
C9     H29     1.083   .     S
C9     C25     1.397   .     A
C10    C26     1.402   .     A
C10    C12     1.460   .     S
C11    H42     1.084   .     S
C11    C17     1.397   .     A
C11    C190    1.369   .     S
C12    O48     1.292   .     A
C12    O47     1.292   .     A
C13    H30     1.084   .     S
C13    C14     1.391   .     A
C13    C365    1.369   1_545 S
C14    C22     1.409   .     S
C14    C15     1.393   .     A
C15    H31     1.085   .     S
C15    C370    1.380   1_545 S
C16    C55     1.511   .     S
C16    C17     1.412   .     A
C16    C192    1.380   .     S
C18    N44     1.366   .     A
C18    H32     1.082   .     S
C18    C78     1.416   .     S
C19    N43     1.367   .     A
C19    H33     1.082   .     S
C19    C136    1.416   1_455 S
C20    H34     1.082   .     S
C20    N43     1.366   .     A
C20    C139    1.416   1_455 S
C21    H35     1.082   .     S
C21    N44     1.367   .     A
C21    C79     1.416   .     S
C22    O50     1.280   .     A
C22    O49     1.280   .     A
C23    C25     1.452   .     S
C23    O52     1.291   .     A
C23    O51     1.291   .     A
C24    C536    1.410   1_554 S
C24    H567    1.081   1_554 S
C26    C27     1.388   .     A
C26    H38     1.083   .     S
C27    C559    1.392   .     S
C27    H571    1.083   .     S
C28    H39     1.079   .     S
C28    C558    1.392   1_554 S
C28    C533    1.420   1_554 S
H36    C555    1.081   .     S
H40    C558    1.083   1_554 S
N43    Zn53    2.009   .     S
N44    Zn54    2.008   .     S
O45    Zn53    1.992   .     S
O46    Zn54    1.990   .     S
O47    Zn53    1.961   .     S
O48    Zn54    1.911   .     S
O49    Zn53    1.990   .     S
O50    Zn54    1.992   .     S
O51    Zn53    1.911   .     S
O52    Zn54    1.961   .     S
C55    H56     1.111   .     S
C55    H58     1.111   .     S
C55    H57     1.110   .     S
C60    C76     1.417   .     S
C60    O104    1.279   .     A
C60    O105    1.283   .     A
C61    C62     1.403   .     A
C61    C594    1.414   .     S
C61    C618    1.420   .     S
C62    C69     1.413   .     A
C62    C66     1.413   .     A
C63    C67     1.389   .     A
C63    C592    1.414   1_554 S
C63    C595    1.424   1_554 S
C64    C65     1.403   .     A
C64    C594    1.424   .     S
C64    C614    1.410   .     S
C65    C66     1.390   .     A
C65    I118    2.128   .     S
C66    H100    1.081   .     S
C67    C84     1.386   .     A
C67    H96     1.079   .     S
C68    C83     1.394   .     A
C68    H88     1.083   .     S
C68    C84     1.397   .     A
C69    C85     1.402   .     A
C69    C71     1.460   .     S
C70    H101    1.084   .     S
C70    C76     1.397   .     A
C70    C249    1.369   .     S
C71    O107    1.292   .     A
C71    O106    1.292   .     A
C72    H89     1.084   .     S
C72    C73     1.391   .     A
C72    C424    1.369   1_545 S
C73    C81     1.409   .     S
C73    C74     1.393   .     A
C74    H90     1.085   .     S
C74    C429    1.380   1_545 S
C75    C114    1.511   .     S
C75    C76     1.412   .     A
C75    C251    1.380   .     S
C77    N103    1.366   .     A
C77    H91     1.082   .     S
C77    C137    1.416   .     S
C78    N102    1.367   .     A
C78    H92     1.082   .     S
C79    H93     1.082   .     S
C79    N102    1.366   .     A
C80    H94     1.082   .     S
C80    N103    1.367   .     A
C80    C138    1.416   .     S
C81    O109    1.280   .     A
C81    O108    1.280   .     A
C82    C84     1.452   .     S
C82    O111    1.291   .     A
C82    O110    1.291   .     A
C83    C595    1.410   1_554 S
C83    H626    1.081   1_554 S
C85    C86     1.388   .     A
C85    H97     1.083   .     S
C86    C618    1.392   .     S
C86    H630    1.083   .     S
C87    H98     1.079   .     S
C87    C617    1.392   1_554 S
C87    C592    1.420   1_554 S
H95    C614    1.081   .     S
H99    C617    1.083   1_554 S
N102   Zn112   2.009   .     S
N103   Zn113   2.008   .     S
O104   Zn112   1.992   .     S
O105   Zn113   1.990   .     S
O106   Zn112   1.961   .     S
O107   Zn113   1.911   .     S
O108   Zn112   1.990   .     S
O109   Zn113   1.992   .     S
O110   Zn112   1.911   .     S
O111   Zn113   1.961   .     S
C114   H115    1.111   .     S
C114   H117    1.111   .     S
C114   H116    1.110   .     S
C119   C135    1.417   .     S
C119   O163    1.279   .     A
C119   O164    1.283   .     A
C120   C121    1.403   .     A
C120   C653    1.414   .     S
C120   C677    1.420   .     S
C121   C128    1.413   .     A
C121   C125    1.413   .     A
C122   C126    1.389   .     A
C122   C651    1.414   1_554 S
C122   C654    1.424   1_554 S
C123   C124    1.403   .     A
C123   C653    1.424   .     S
C123   C673    1.410   .     S
C124   C125    1.390   .     A
C124   I177    2.128   .     S
C125   H159    1.081   .     S
C126   C143    1.386   .     A
C126   H155    1.079   .     S
C127   C142    1.394   .     A
C127   H147    1.083   .     S
C127   C143    1.397   .     A
C128   C144    1.402   .     A
C128   C130    1.460   .     S
C129   H160    1.084   .     S
C129   C135    1.397   .     A
C129   C308    1.369   .     S
C130   O166    1.292   .     A
C130   O165    1.292   .     A
C131   H148    1.084   .     S
C131   C132    1.391   .     A
C131   C483    1.369   1_545 S
C132   C140    1.409   .     S
C132   C133    1.393   .     A
C133   H149    1.085   .     S
C133   C488    1.380   1_545 S
C134   C173    1.511   .     S
C134   C135    1.412   .     A
C134   C310    1.380   .     S
C136   N162    1.366   .     A
C136   H150    1.082   .     S
C136   C19     1.416   1_655 S
C137   N161    1.367   .     A
C137   H151    1.082   .     S
C138   H152    1.082   .     S
C138   N161    1.366   .     A
C139   H153    1.082   .     S
C139   N162    1.367   .     A
C139   C20     1.416   1_655 S
C140   O168    1.280   .     A
C140   O167    1.280   .     A
C141   C143    1.452   .     S
C141   O170    1.291   .     A
C141   O169    1.291   .     A
C142   C654    1.410   1_554 S
C142   H685    1.081   1_554 S
C144   C145    1.388   .     A
C144   H156    1.083   .     S
C145   C677    1.392   .     S
C145   H689    1.083   .     S
C146   H157    1.079   .     S
C146   C676    1.392   1_554 S
C146   C651    1.420   1_554 S
H154   C673    1.081   .     S
H158   C676    1.083   1_554 S
N161   Zn171   2.009   .     S
N162   Zn172   2.008   .     S
O163   Zn171   1.992   .     S
O164   Zn172   1.990   .     S
O165   Zn171   1.961   .     S
O166   Zn172   1.911   .     S
O167   Zn171   1.990   .     S
O168   Zn172   1.992   .     S
O169   Zn171   1.911   .     S
O170   Zn172   1.961   .     S
C173   H174    1.111   .     S
C173   H176    1.111   .     S
C173   H175    1.110   .     S
C178   C194    1.417   .     S
C178   O222    1.279   .     A
C178   O223    1.283   .     A
C179   C180    1.403   .     A
C179   C712    1.414   .     S
C179   C736    1.420   .     S
C180   C187    1.413   .     A
C180   C184    1.413   .     A
C181   C185    1.389   .     A
C181   C710    1.414   1_554 S
C181   C713    1.424   1_554 S
C182   C183    1.403   .     A
C182   C712    1.424   .     S
C182   C732    1.410   .     S
C183   C184    1.390   .     A
C183   I236    2.128   .     S
C184   H218    1.081   .     S
C185   C202    1.386   .     A
C185   H214    1.079   .     S
C186   C201    1.394   .     A
C186   H206    1.083   .     S
C186   C202    1.397   .     A
C187   C203    1.402   .     A
C187   C189    1.460   .     S
C188   H219    1.084   .     S
C188   C194    1.397   .     A
C188   C367    1.369   .     S
C189   O225    1.292   .     A
C189   O224    1.292   .     A
C190   H207    1.084   .     S
C190   C191    1.391   .     A
C191   C199    1.409   .     S
C191   C192    1.393   .     A
C192   H208    1.085   .     S
C193   C232    1.511   .     S
C193   C194    1.412   .     A
C193   C369    1.380   .     S
C195   N221    1.366   .     A
C195   H209    1.082   .     S
C195   C255    1.416   .     S
C196   N220    1.367   .     A
C196   H210    1.082   .     S
C196   C313    1.416   1_455 S
C197   H211    1.082   .     S
C197   N220    1.366   .     A
C197   C316    1.416   1_455 S
C198   H212    1.082   .     S
C198   N221    1.367   .     A
C198   C256    1.416   .     S
C199   O227    1.280   .     A
C199   O226    1.280   .     A
C200   C202    1.452   .     S
C200   O229    1.291   .     A
C200   O228    1.291   .     A
C201   C713    1.410   1_554 S
C201   H744    1.081   1_554 S
C203   C204    1.388   .     A
C203   H215    1.083   .     S
C204   C736    1.392   .     S
C204   H748    1.083   .     S
C205   H216    1.079   .     S
C205   C735    1.392   1_554 S
C205   C710    1.420   1_554 S
H213   C732    1.081   .     S
H217   C735    1.083   1_554 S
N220   Zn230   2.009   .     S
N221   Zn231   2.008   .     S
O222   Zn230   1.992   .     S
O223   Zn231   1.990   .     S
O224   Zn230   1.961   .     S
O225   Zn231   1.911   .     S
O226   Zn230   1.990   .     S
O227   Zn231   1.992   .     S
O228   Zn230   1.911   .     S
O229   Zn231   1.961   .     S
C232   H233    1.111   .     S
C232   H235    1.111   .     S
C232   H234    1.110   .     S
C237   C253    1.417   .     S
C237   O281    1.279   .     A
C237   O282    1.283   .     A
C238   C239    1.403   .     A
C238   C771    1.414   .     S
C238   C795    1.420   .     S
C239   C246    1.413   .     A
C239   C243    1.413   .     A
C240   C244    1.389   .     A
C240   C769    1.414   1_554 S
C240   C772    1.424   1_554 S
C241   C242    1.403   .     A
C241   C771    1.424   .     S
C241   C791    1.410   .     S
C242   C243    1.390   .     A
C242   I295    2.128   .     S
C243   H277    1.081   .     S
C244   C261    1.386   .     A
C244   H273    1.079   .     S
C245   C260    1.394   .     A
C245   H265    1.083   .     S
C245   C261    1.397   .     A
C246   C262    1.402   .     A
C246   C248    1.460   .     S
C247   H278    1.084   .     S
C247   C253    1.397   .     A
C247   C426    1.369   .     S
C248   O284    1.292   .     A
C248   O283    1.292   .     A
C249   H266    1.084   .     S
C249   C250    1.391   .     A
C250   C258    1.409   .     S
C250   C251    1.393   .     A
C251   H267    1.085   .     S
C252   C291    1.511   .     S
C252   C253    1.412   .     A
C252   C428    1.380   .     S
C254   N280    1.366   .     A
C254   H268    1.082   .     S
C254   C314    1.416   .     S
C255   N279    1.367   .     A
C255   H269    1.082   .     S
C256   H270    1.082   .     S
C256   N279    1.366   .     A
C257   H271    1.082   .     S
C257   N280    1.367   .     A
C257   C315    1.416   .     S
C258   O286    1.280   .     A
C258   O285    1.280   .     A
C259   C261    1.452   .     S
C259   O288    1.291   .     A
C259   O287    1.291   .     A
C260   C772    1.410   1_554 S
C260   H803    1.081   1_554 S
C262   C263    1.388   .     A
C262   H274    1.083   .     S
C263   C795    1.392   .     S
C263   H807    1.083   .     S
C264   H275    1.079   .     S
C264   C794    1.392   1_554 S
C264   C769    1.420   1_554 S
H272   C791    1.081   .     S
H276   C794    1.083   1_554 S
N279   Zn289   2.009   .     S
N280   Zn290   2.008   .     S
O281   Zn289   1.992   .     S
O282   Zn290   1.990   .     S
O283   Zn289   1.961   .     S
O284   Zn290   1.911   .     S
O285   Zn289   1.990   .     S
O286   Zn290   1.992   .     S
O287   Zn289   1.911   .     S
O288   Zn290   1.961   .     S
C291   H292    1.111   .     S
C291   H294    1.111   .     S
C291   H293    1.110   .     S
C296   C312    1.417   .     S
C296   O340    1.279   .     A
C296   O341    1.283   .     A
C297   C298    1.403   .     A
C297   C830    1.414   .     S
C297   C854    1.420   .     S
C298   C305    1.413   .     A
C298   C302    1.413   .     A
C299   C303    1.389   .     A
C299   C828    1.414   1_554 S
C299   C831    1.424   1_554 S
C300   C301    1.403   .     A
C300   C830    1.424   .     S
C300   C850    1.410   .     S
C301   C302    1.390   .     A
C301   I354    2.128   .     S
C302   H336    1.081   .     S
C303   C320    1.386   .     A
C303   H332    1.079   .     S
C304   C319    1.394   .     A
C304   H324    1.083   .     S
C304   C320    1.397   .     A
C305   C321    1.402   .     A
C305   C307    1.460   .     S
C306   H337    1.084   .     S
C306   C312    1.397   .     A
C306   C485    1.369   .     S
C307   O343    1.292   .     A
C307   O342    1.292   .     A
C308   H325    1.084   .     S
C308   C309    1.391   .     A
C309   C317    1.409   .     S
C309   C310    1.393   .     A
C310   H326    1.085   .     S
C311   C350    1.511   .     S
C311   C312    1.412   .     A
C311   C487    1.380   .     S
C313   N339    1.366   .     A
C313   H327    1.082   .     S
C313   C196    1.416   1_655 S
C314   N338    1.367   .     A
C314   H328    1.082   .     S
C315   H329    1.082   .     S
C315   N338    1.366   .     A
C316   H330    1.082   .     S
C316   N339    1.367   .     A
C316   C197    1.416   1_655 S
C317   O345    1.280   .     A
C317   O344    1.280   .     A
C318   C320    1.452   .     S
C318   O347    1.291   .     A
C318   O346    1.291   .     A
C319   C831    1.410   1_554 S
C319   H862    1.081   1_554 S
C321   C322    1.388   .     A
C321   H333    1.083   .     S
C322   C854    1.392   .     S
C322   H866    1.083   .     S
C323   H334    1.079   .     S
C323   C853    1.392   1_554 S
C323   C828    1.420   1_554 S
H331   C850    1.081   .     S
H335   C853    1.083   1_554 S
N338   Zn348   2.009   .     S
N339   Zn349   2.008   .     S
O340   Zn348   1.992   .     S
O341   Zn349   1.990   .     S
O342   Zn348   1.961   .     S
O343   Zn349   1.911   .     S
O344   Zn348   1.990   .     S
O345   Zn349   1.992   .     S
O346   Zn348   1.911   .     S
O347   Zn349   1.961   .     S
C350   H351    1.111   .     S
C350   H353    1.111   .     S
C350   H352    1.110   .     S
C355   C371    1.417   .     S
C355   O399    1.279   .     A
C355   O400    1.283   .     A
C356   C357    1.403   .     A
C356   C889    1.414   .     S
C356   C913    1.420   .     S
C357   C364    1.413   .     A
C357   C361    1.413   .     A
C358   C362    1.389   .     A
C358   C887    1.414   1_554 S
C358   C890    1.424   1_554 S
C359   C360    1.403   .     A
C359   C889    1.424   .     S
C359   C909    1.410   .     S
C360   C361    1.390   .     A
C360   I413    2.128   .     S
C361   H395    1.081   .     S
C362   C379    1.386   .     A
C362   H391    1.079   .     S
C363   C378    1.394   .     A
C363   H383    1.083   .     S
C363   C379    1.397   .     A
C364   C380    1.402   .     A
C364   C366    1.460   .     S
C365   H396    1.084   .     S
C365   C371    1.397   .     A
C365   C13     1.369   1_565 S
C366   O402    1.292   .     A
C366   O401    1.292   .     A
C367   H384    1.084   .     S
C367   C368    1.391   .     A
C368   C376    1.409   .     S
C368   C369    1.393   .     A
C369   H385    1.085   .     S
C370   C409    1.511   .     S
C370   C371    1.412   .     A
C370   C15     1.380   1_565 S
C372   N398    1.366   .     A
C372   H386    1.082   .     S
C372   C432    1.416   .     S
C373   N397    1.367   .     A
C373   H387    1.082   .     S
C373   C490    1.416   1_455 S
C374   H388    1.082   .     S
C374   N397    1.366   .     A
C374   C493    1.416   1_455 S
C375   H389    1.082   .     S
C375   N398    1.367   .     A
C375   C433    1.416   .     S
C376   O404    1.280   .     A
C376   O403    1.280   .     A
C377   C379    1.452   .     S
C377   O406    1.291   .     A
C377   O405    1.291   .     A
C378   C890    1.410   1_554 S
C378   H921    1.081   1_554 S
C380   C381    1.388   .     A
C380   H392    1.083   .     S
C381   C913    1.392   .     S
C381   H925    1.083   .     S
C382   H393    1.079   .     S
C382   C912    1.392   1_554 S
C382   C887    1.420   1_554 S
H390   C909    1.081   .     S
H394   C912    1.083   1_554 S
N397   Zn407   2.009   .     S
N398   Zn408   2.008   .     S
O399   Zn407   1.992   .     S
O400   Zn408   1.990   .     S
O401   Zn407   1.961   .     S
O402   Zn408   1.911   .     S
O403   Zn407   1.990   .     S
O404   Zn408   1.992   .     S
O405   Zn407   1.911   .     S
O406   Zn408   1.961   .     S
C409   H410    1.111   .     S
C409   H412    1.111   .     S
C409   H411    1.110   .     S
C414   C430    1.417   .     S
C414   O458    1.279   .     A
C414   O459    1.283   .     A
C415   C416    1.403   .     A
C415   C948    1.414   .     S
C415   C972    1.420   .     S
C416   C423    1.413   .     A
C416   C420    1.413   .     A
C417   C421    1.389   .     A
C417   C946    1.414   1_554 S
C417   C949    1.424   1_554 S
C418   C419    1.403   .     A
C418   C948    1.424   .     S
C418   C968    1.410   .     S
C419   C420    1.390   .     A
C419   I472    2.128   .     S
C420   H454    1.081   .     S
C421   C438    1.386   .     A
C421   H450    1.079   .     S
C422   C437    1.394   .     A
C422   H442    1.083   .     S
C422   C438    1.397   .     A
C423   C439    1.402   .     A
C423   C425    1.460   .     S
C424   H455    1.084   .     S
C424   C430    1.397   .     A
C424   C72     1.369   1_565 S
C425   O461    1.292   .     A
C425   O460    1.292   .     A
C426   H443    1.084   .     S
C426   C427    1.391   .     A
C427   C435    1.409   .     S
C427   C428    1.393   .     A
C428   H444    1.085   .     S
C429   C468    1.511   .     S
C429   C430    1.412   .     A
C429   C74     1.380   1_565 S
C431   N457    1.366   .     A
C431   H445    1.082   .     S
C431   C491    1.416   .     S
C432   N456    1.367   .     A
C432   H446    1.082   .     S
C433   H447    1.082   .     S
C433   N456    1.366   .     A
C434   H448    1.082   .     S
C434   N457    1.367   .     A
C434   C492    1.416   .     S
C435   O463    1.280   .     A
C435   O462    1.280   .     A
C436   C438    1.452   .     S
C436   O465    1.291   .     A
C436   O464    1.291   .     A
C437   C949    1.410   1_554 S
C437   H980    1.081   1_554 S
C439   C440    1.388   .     A
C439   H451    1.083   .     S
C440   C972    1.392   .     S
C440   H984    1.083   .     S
C441   H452    1.079   .     S
C441   C971    1.392   1_554 S
C441   C946    1.420   1_554 S
H449   C968    1.081   .     S
H453   C971    1.083   1_554 S
N456   Zn466   2.009   .     S
N457   Zn467   2.008   .     S
O458   Zn466   1.992   .     S
O459   Zn467   1.990   .     S
O460   Zn466   1.961   .     S
O461   Zn467   1.911   .     S
O462   Zn466   1.990   .     S
O463   Zn467   1.992   .     S
O464   Zn466   1.911   .     S
O465   Zn467   1.961   .     S
C468   H469    1.111   .     S
C468   H471    1.111   .     S
C468   H470    1.110   .     S
C473   C489    1.417   .     S
C473   O517    1.279   .     A
C473   O518    1.283   .     A
C474   C475    1.403   .     A
C474   C1007   1.414   .     S
C474   C1031   1.420   .     S
C475   C482    1.413   .     A
C475   C479    1.413   .     A
C476   C480    1.389   .     A
C476   C1005   1.414   1_554 S
C476   C1008   1.424   1_554 S
C477   C478    1.403   .     A
C477   C1007   1.424   .     S
C477   C1027   1.410   .     S
C478   C479    1.390   .     A
C478   I531    2.128   .     S
C479   H513    1.081   .     S
C480   C497    1.386   .     A
C480   H509    1.079   .     S
C481   C496    1.394   .     A
C481   H501    1.083   .     S
C481   C497    1.397   .     A
C482   C498    1.402   .     A
C482   C484    1.460   .     S
C483   H514    1.084   .     S
C483   C489    1.397   .     A
C483   C131    1.369   1_565 S
C484   O520    1.292   .     A
C484   O519    1.292   .     A
C485   H502    1.084   .     S
C485   C486    1.391   .     A
C486   C494    1.409   .     S
C486   C487    1.393   .     A
C487   H503    1.085   .     S
C488   C527    1.511   .     S
C488   C489    1.412   .     A
C488   C133    1.380   1_565 S
C490   N516    1.366   .     A
C490   H504    1.082   .     S
C490   C373    1.416   1_655 S
C491   N515    1.367   .     A
C491   H505    1.082   .     S
C492   H506    1.082   .     S
C492   N515    1.366   .     A
C493   H507    1.082   .     S
C493   N516    1.367   .     A
C493   C374    1.416   1_655 S
C494   O522    1.280   .     A
C494   O521    1.280   .     A
C495   C497    1.452   .     S
C495   O524    1.291   .     A
C495   O523    1.291   .     A
C496   C1008   1.410   1_554 S
C496   H1039   1.081   1_554 S
C498   C499    1.388   .     A
C498   H510    1.083   .     S
C499   C1031   1.392   .     S
C499   H1043   1.083   .     S
C500   H511    1.079   .     S
C500   C1030   1.392   1_554 S
C500   C1005   1.420   1_554 S
H508   C1027   1.081   .     S
H512   C1030   1.083   1_554 S
N515   Zn525   2.009   .     S
N516   Zn526   2.008   .     S
O517   Zn525   1.992   .     S
O518   Zn526   1.990   .     S
O519   Zn525   1.961   .     S
O520   Zn526   1.911   .     S
O521   Zn525   1.990   .     S
O522   Zn526   1.992   .     S
O523   Zn525   1.911   .     S
O524   Zn526   1.961   .     S
C527   H528    1.111   .     S
C527   H530    1.111   .     S
C527   H529    1.110   .     S
C532   C548    1.417   .     S
C532   O576    1.279   .     A
C532   O577    1.283   .     A
C533   C534    1.403   .     A
C533   C4      1.414   1_556 S
C533   C28     1.420   1_556 S
C534   C541    1.413   .     A
C534   C538    1.413   .     A
C535   C539    1.389   .     A
C536   C537    1.403   .     A
C536   C4      1.424   1_556 S
C536   C24     1.410   1_556 S
C537   C538    1.390   .     A
C537   I590    2.128   .     S
C538   H572    1.081   .     S
C539   C556    1.386   .     A
C539   H568    1.079   .     S
C540   C555    1.394   .     A
C540   H560    1.083   .     S
C540   C556    1.397   .     A
C541   C557    1.402   .     A
C541   C543    1.460   .     S
C542   H573    1.084   .     S
C542   C548    1.397   .     A
C542   C721    1.369   .     S
C543   O579    1.292   .     A
C543   O578    1.292   .     A
C544   H561    1.084   .     S
C544   C545    1.391   .     A
C544   C896    1.369   1_545 S
C545   C553    1.409   .     S
C545   C546    1.393   .     A
C546   H562    1.085   .     S
C546   C901    1.380   1_545 S
C547   C586    1.511   .     S
C547   C548    1.412   .     A
C547   C723    1.380   .     S
C549   N575    1.366   .     A
C549   H563    1.082   .     S
C549   C609    1.416   .     S
C550   N574    1.367   .     A
C550   H564    1.082   .     S
C550   C667    1.416   1_455 S
C551   H565    1.082   .     S
C551   N574    1.366   .     A
C551   C670    1.416   1_455 S
C552   H566    1.082   .     S
C552   N575    1.367   .     A
C552   C610    1.416   .     S
C553   O581    1.280   .     A
C553   O580    1.280   .     A
C554   C556    1.452   .     S
C554   O583    1.291   .     A
C554   O582    1.291   .     A
C557   C558    1.388   .     A
C557   H569    1.083   .     S
C558   C28     1.392   1_556 S
C558   H40     1.083   1_556 S
C559   H570    1.079   .     S
H567   C24     1.081   1_556 S
N574   Zn584   2.009   .     S
N575   Zn585   2.008   .     S
O576   Zn584   1.992   .     S
O577   Zn585   1.990   .     S
O578   Zn584   1.961   .     S
O579   Zn585   1.911   .     S
O580   Zn584   1.990   .     S
O581   Zn585   1.992   .     S
O582   Zn584   1.911   .     S
O583   Zn585   1.961   .     S
C586   H587    1.111   .     S
C586   H589    1.111   .     S
C586   H588    1.110   .     S
C591   C607    1.417   .     S
C591   O635    1.279   .     A
C591   O636    1.283   .     A
C592   C593    1.403   .     A
C592   C63     1.414   1_556 S
C592   C87     1.420   1_556 S
C593   C600    1.413   .     A
C593   C597    1.413   .     A
C594   C598    1.389   .     A
C595   C596    1.403   .     A
C595   C63     1.424   1_556 S
C595   C83     1.410   1_556 S
C596   C597    1.390   .     A
C596   I649    2.128   .     S
C597   H631    1.081   .     S
C598   C615    1.386   .     A
C598   H627    1.079   .     S
C599   C614    1.394   .     A
C599   H619    1.083   .     S
C599   C615    1.397   .     A
C600   C616    1.402   .     A
C600   C602    1.460   .     S
C601   H632    1.084   .     S
C601   C607    1.397   .     A
C601   C780    1.369   .     S
C602   O638    1.292   .     A
C602   O637    1.292   .     A
C603   H620    1.084   .     S
C603   C604    1.391   .     A
C603   C955    1.369   1_545 S
C604   C612    1.409   .     S
C604   C605    1.393   .     A
C605   H621    1.085   .     S
C605   C960    1.380   1_545 S
C606   C645    1.511   .     S
C606   C607    1.412   .     A
C606   C782    1.380   .     S
C608   N634    1.366   .     A
C608   H622    1.082   .     S
C608   C668    1.416   .     S
C609   N633    1.367   .     A
C609   H623    1.082   .     S
C610   H624    1.082   .     S
C610   N633    1.366   .     A
C611   H625    1.082   .     S
C611   N634    1.367   .     A
C611   C669    1.416   .     S
C612   O640    1.280   .     A
C612   O639    1.280   .     A
C613   C615    1.452   .     S
C613   O642    1.291   .     A
C613   O641    1.291   .     A
C616   C617    1.388   .     A
C616   H628    1.083   .     S
C617   C87     1.392   1_556 S
C617   H99     1.083   1_556 S
C618   H629    1.079   .     S
H626   C83     1.081   1_556 S
N633   Zn643   2.009   .     S
N634   Zn644   2.008   .     S
O635   Zn643   1.992   .     S
O636   Zn644   1.990   .     S
O637   Zn643   1.961   .     S
O638   Zn644   1.911   .     S
O639   Zn643   1.990   .     S
O640   Zn644   1.992   .     S
O641   Zn643   1.911   .     S
O642   Zn644   1.961   .     S
C645   H646    1.111   .     S
C645   H648    1.111   .     S
C645   H647    1.110   .     S
C650   C666    1.417   .     S
C650   O694    1.279   .     A
C650   O695    1.283   .     A
C651   C652    1.403   .     A
C651   C122    1.414   1_556 S
C651   C146    1.420   1_556 S
C652   C659    1.413   .     A
C652   C656    1.413   .     A
C653   C657    1.389   .     A
C654   C655    1.403   .     A
C654   C122    1.424   1_556 S
C654   C142    1.410   1_556 S
C655   C656    1.390   .     A
C655   I708    2.128   .     S
C656   H690    1.081   .     S
C657   C674    1.386   .     A
C657   H686    1.079   .     S
C658   C673    1.394   .     A
C658   H678    1.083   .     S
C658   C674    1.397   .     A
C659   C675    1.402   .     A
C659   C661    1.460   .     S
C660   H691    1.084   .     S
C660   C666    1.397   .     A
C660   C839    1.369   .     S
C661   O697    1.292   .     A
C661   O696    1.292   .     A
C662   H679    1.084   .     S
C662   C663    1.391   .     A
C662   C1014   1.369   1_545 S
C663   C671    1.409   .     S
C663   C664    1.393   .     A
C664   H680    1.085   .     S
C664   C1019   1.380   1_545 S
C665   C704    1.511   .     S
C665   C666    1.412   .     A
C665   C841    1.380   .     S
C667   N693    1.366   .     A
C667   H681    1.082   .     S
C667   C550    1.416   1_655 S
C668   N692    1.367   .     A
C668   H682    1.082   .     S
C669   H683    1.082   .     S
C669   N692    1.366   .     A
C670   H684    1.082   .     S
C670   N693    1.367   .     A
C670   C551    1.416   1_655 S
C671   O699    1.280   .     A
C671   O698    1.280   .     A
C672   C674    1.452   .     S
C672   O701    1.291   .     A
C672   O700    1.291   .     A
C675   C676    1.388   .     A
C675   H687    1.083   .     S
C676   C146    1.392   1_556 S
C676   H158    1.083   1_556 S
C677   H688    1.079   .     S
H685   C142    1.081   1_556 S
N692   Zn702   2.009   .     S
N693   Zn703   2.008   .     S
O694   Zn702   1.992   .     S
O695   Zn703   1.990   .     S
O696   Zn702   1.961   .     S
O697   Zn703   1.911   .     S
O698   Zn702   1.990   .     S
O699   Zn703   1.992   .     S
O700   Zn702   1.911   .     S
O701   Zn703   1.961   .     S
C704   H705    1.111   .     S
C704   H707    1.111   .     S
C704   H706    1.110   .     S
C709   C725    1.417   .     S
C709   O753    1.279   .     A
C709   O754    1.283   .     A
C710   C711    1.403   .     A
C710   C181    1.414   1_556 S
C710   C205    1.420   1_556 S
C711   C718    1.413   .     A
C711   C715    1.413   .     A
C712   C716    1.389   .     A
C713   C714    1.403   .     A
C713   C181    1.424   1_556 S
C713   C201    1.410   1_556 S
C714   C715    1.390   .     A
C714   I767    2.128   .     S
C715   H749    1.081   .     S
C716   C733    1.386   .     A
C716   H745    1.079   .     S
C717   C732    1.394   .     A
C717   H737    1.083   .     S
C717   C733    1.397   .     A
C718   C734    1.402   .     A
C718   C720    1.460   .     S
C719   H750    1.084   .     S
C719   C725    1.397   .     A
C719   C898    1.369   .     S
C720   O756    1.292   .     A
C720   O755    1.292   .     A
C721   H738    1.084   .     S
C721   C722    1.391   .     A
C722   C730    1.409   .     S
C722   C723    1.393   .     A
C723   H739    1.085   .     S
C724   C763    1.511   .     S
C724   C725    1.412   .     A
C724   C900    1.380   .     S
C726   N752    1.366   .     A
C726   H740    1.082   .     S
C726   C786    1.416   .     S
C727   N751    1.367   .     A
C727   H741    1.082   .     S
C727   C844    1.416   1_455 S
C728   H742    1.082   .     S
C728   N751    1.366   .     A
C728   C847    1.416   1_455 S
C729   H743    1.082   .     S
C729   N752    1.367   .     A
C729   C787    1.416   .     S
C730   O758    1.280   .     A
C730   O757    1.280   .     A
C731   C733    1.452   .     S
C731   O760    1.291   .     A
C731   O759    1.291   .     A
C734   C735    1.388   .     A
C734   H746    1.083   .     S
C735   C205    1.392   1_556 S
C735   H217    1.083   1_556 S
C736   H747    1.079   .     S
H744   C201    1.081   1_556 S
N751   Zn761   2.009   .     S
N752   Zn762   2.008   .     S
O753   Zn761   1.992   .     S
O754   Zn762   1.990   .     S
O755   Zn761   1.961   .     S
O756   Zn762   1.911   .     S
O757   Zn761   1.990   .     S
O758   Zn762   1.992   .     S
O759   Zn761   1.911   .     S
O760   Zn762   1.961   .     S
C763   H764    1.111   .     S
C763   H766    1.111   .     S
C763   H765    1.110   .     S
C768   C784    1.417   .     S
C768   O812    1.279   .     A
C768   O813    1.283   .     A
C769   C770    1.403   .     A
C769   C240    1.414   1_556 S
C769   C264    1.420   1_556 S
C770   C777    1.413   .     A
C770   C774    1.413   .     A
C771   C775    1.389   .     A
C772   C773    1.403   .     A
C772   C240    1.424   1_556 S
C772   C260    1.410   1_556 S
C773   C774    1.390   .     A
C773   I826    2.128   .     S
C774   H808    1.081   .     S
C775   C792    1.386   .     A
C775   H804    1.079   .     S
C776   C791    1.394   .     A
C776   H796    1.083   .     S
C776   C792    1.397   .     A
C777   C793    1.402   .     A
C777   C779    1.460   .     S
C778   H809    1.084   .     S
C778   C784    1.397   .     A
C778   C957    1.369   .     S
C779   O815    1.292   .     A
C779   O814    1.292   .     A
C780   H797    1.084   .     S
C780   C781    1.391   .     A
C781   C789    1.409   .     S
C781   C782    1.393   .     A
C782   H798    1.085   .     S
C783   C822    1.511   .     S
C783   C784    1.412   .     A
C783   C959    1.380   .     S
C785   N811    1.366   .     A
C785   H799    1.082   .     S
C785   C845    1.416   .     S
C786   N810    1.367   .     A
C786   H800    1.082   .     S
C787   H801    1.082   .     S
C787   N810    1.366   .     A
C788   H802    1.082   .     S
C788   N811    1.367   .     A
C788   C846    1.416   .     S
C789   O817    1.280   .     A
C789   O816    1.280   .     A
C790   C792    1.452   .     S
C790   O819    1.291   .     A
C790   O818    1.291   .     A
C793   C794    1.388   .     A
C793   H805    1.083   .     S
C794   C264    1.392   1_556 S
C794   H276    1.083   1_556 S
C795   H806    1.079   .     S
H803   C260    1.081   1_556 S
N810   Zn820   2.009   .     S
N811   Zn821   2.008   .     S
O812   Zn820   1.992   .     S
O813   Zn821   1.990   .     S
O814   Zn820   1.961   .     S
O815   Zn821   1.911   .     S
O816   Zn820   1.990   .     S
O817   Zn821   1.992   .     S
O818   Zn820   1.911   .     S
O819   Zn821   1.961   .     S
C822   H823    1.111   .     S
C822   H825    1.111   .     S
C822   H824    1.110   .     S
C827   C843    1.417   .     S
C827   O871    1.279   .     A
C827   O872    1.283   .     A
C828   C829    1.403   .     A
C828   C299    1.414   1_556 S
C828   C323    1.420   1_556 S
C829   C836    1.413   .     A
C829   C833    1.413   .     A
C830   C834    1.389   .     A
C831   C832    1.403   .     A
C831   C299    1.424   1_556 S
C831   C319    1.410   1_556 S
C832   C833    1.390   .     A
C832   I885    2.128   .     S
C833   H867    1.081   .     S
C834   C851    1.386   .     A
C834   H863    1.079   .     S
C835   C850    1.394   .     A
C835   H855    1.083   .     S
C835   C851    1.397   .     A
C836   C852    1.402   .     A
C836   C838    1.460   .     S
C837   H868    1.084   .     S
C837   C843    1.397   .     A
C837   C1016   1.369   .     S
C838   O874    1.292   .     A
C838   O873    1.292   .     A
C839   H856    1.084   .     S
C839   C840    1.391   .     A
C840   C848    1.409   .     S
C840   C841    1.393   .     A
C841   H857    1.085   .     S
C842   C881    1.511   .     S
C842   C843    1.412   .     A
C842   C1018   1.380   .     S
C844   N870    1.366   .     A
C844   H858    1.082   .     S
C844   C727    1.416   1_655 S
C845   N869    1.367   .     A
C845   H859    1.082   .     S
C846   H860    1.082   .     S
C846   N869    1.366   .     A
C847   H861    1.082   .     S
C847   N870    1.367   .     A
C847   C728    1.416   1_655 S
C848   O876    1.280   .     A
C848   O875    1.280   .     A
C849   C851    1.452   .     S
C849   O878    1.291   .     A
C849   O877    1.291   .     A
C852   C853    1.388   .     A
C852   H864    1.083   .     S
C853   C323    1.392   1_556 S
C853   H335    1.083   1_556 S
C854   H865    1.079   .     S
H862   C319    1.081   1_556 S
N869   Zn879   2.009   .     S
N870   Zn880   2.008   .     S
O871   Zn879   1.992   .     S
O872   Zn880   1.990   .     S
O873   Zn879   1.961   .     S
O874   Zn880   1.911   .     S
O875   Zn879   1.990   .     S
O876   Zn880   1.992   .     S
O877   Zn879   1.911   .     S
O878   Zn880   1.961   .     S
C881   H882    1.111   .     S
C881   H884    1.111   .     S
C881   H883    1.110   .     S
C886   C902    1.417   .     S
C886   O930    1.279   .     A
C886   O931    1.283   .     A
C887   C888    1.403   .     A
C887   C358    1.414   1_556 S
C887   C382    1.420   1_556 S
C888   C895    1.413   .     A
C888   C892    1.413   .     A
C889   C893    1.389   .     A
C890   C891    1.403   .     A
C890   C358    1.424   1_556 S
C890   C378    1.410   1_556 S
C891   C892    1.390   .     A
C891   I944    2.128   .     S
C892   H926    1.081   .     S
C893   C910    1.386   .     A
C893   H922    1.079   .     S
C894   C909    1.394   .     A
C894   H914    1.083   .     S
C894   C910    1.397   .     A
C895   C911    1.402   .     A
C895   C897    1.460   .     S
C896   H927    1.084   .     S
C896   C902    1.397   .     A
C896   C544    1.369   1_565 S
C897   O933    1.292   .     A
C897   O932    1.292   .     A
C898   H915    1.084   .     S
C898   C899    1.391   .     A
C899   C907    1.409   .     S
C899   C900    1.393   .     A
C900   H916    1.085   .     S
C901   C940    1.511   .     S
C901   C902    1.412   .     A
C901   C546    1.380   1_565 S
C903   N929    1.366   .     A
C903   H917    1.082   .     S
C903   C963    1.416   .     S
C904   N928    1.367   .     A
C904   H918    1.082   .     S
C904   C1021   1.416   1_455 S
C905   H919    1.082   .     S
C905   N928    1.366   .     A
C905   C1024   1.416   1_455 S
C906   H920    1.082   .     S
C906   N929    1.367   .     A
C906   C964    1.416   .     S
C907   O935    1.280   .     A
C907   O934    1.280   .     A
C908   C910    1.452   .     S
C908   O937    1.291   .     A
C908   O936    1.291   .     A
C911   C912    1.388   .     A
C911   H923    1.083   .     S
C912   C382    1.392   1_556 S
C912   H394    1.083   1_556 S
C913   H924    1.079   .     S
H921   C378    1.081   1_556 S
N928   Zn938   2.009   .     S
N929   Zn939   2.008   .     S
O930   Zn938   1.992   .     S
O931   Zn939   1.990   .     S
O932   Zn938   1.961   .     S
O933   Zn939   1.911   .     S
O934   Zn938   1.990   .     S
O935   Zn939   1.992   .     S
O936   Zn938   1.911   .     S
O937   Zn939   1.961   .     S
C940   H941    1.111   .     S
C940   H943    1.111   .     S
C940   H942    1.110   .     S
C945   C961    1.417   .     S
C945   O989    1.279   .     A
C945   O990    1.283   .     A
C946   C947    1.403   .     A
C946   C417    1.414   1_556 S
C946   C441    1.420   1_556 S
C947   C954    1.413   .     A
C947   C951    1.413   .     A
C948   C952    1.389   .     A
C949   C950    1.403   .     A
C949   C417    1.424   1_556 S
C949   C437    1.410   1_556 S
C950   C951    1.390   .     A
C950   I1003   2.128   .     S
C951   H985    1.081   .     S
C952   C969    1.386   .     A
C952   H981    1.079   .     S
C953   C968    1.394   .     A
C953   H973    1.083   .     S
C953   C969    1.397   .     A
C954   C970    1.402   .     A
C954   C956    1.460   .     S
C955   H986    1.084   .     S
C955   C961    1.397   .     A
C955   C603    1.369   1_565 S
C956   O992    1.292   .     A
C956   O991    1.292   .     A
C957   H974    1.084   .     S
C957   C958    1.391   .     A
C958   C966    1.409   .     S
C958   C959    1.393   .     A
C959   H975    1.085   .     S
C960   C999    1.511   .     S
C960   C961    1.412   .     A
C960   C605    1.380   1_565 S
C962   N988    1.366   .     A
C962   H976    1.082   .     S
C962   C1022   1.416   .     S
C963   N987    1.367   .     A
C963   H977    1.082   .     S
C964   H978    1.082   .     S
C964   N987    1.366   .     A
C965   H979    1.082   .     S
C965   N988    1.367   .     A
C965   C1023   1.416   .     S
C966   O994    1.280   .     A
C966   O993    1.280   .     A
C967   C969    1.452   .     S
C967   O996    1.291   .     A
C967   O995    1.291   .     A
C970   C971    1.388   .     A
C970   H982    1.083   .     S
C971   C441    1.392   1_556 S
C971   H453    1.083   1_556 S
C972   H983    1.079   .     S
H980   C437    1.081   1_556 S
N987   Zn997   2.009   .     S
N988   Zn998   2.008   .     S
O989   Zn997   1.992   .     S
O990   Zn998   1.990   .     S
O991   Zn997   1.961   .     S
O992   Zn998   1.911   .     S
O993   Zn997   1.990   .     S
O994   Zn998   1.992   .     S
O995   Zn997   1.911   .     S
O996   Zn998   1.961   .     S
C999   H1000   1.111   .     S
C999   H1002   1.111   .     S
C999   H1001   1.110   .     S
C1004  C1020   1.417   .     S
C1004  O1048   1.279   .     A
C1004  O1049   1.283   .     A
C1005  C1006   1.403   .     A
C1005  C476    1.414   1_556 S
C1005  C500    1.420   1_556 S
C1006  C1013   1.413   .     A
C1006  C1010   1.413   .     A
C1007  C1011   1.389   .     A
C1008  C1009   1.403   .     A
C1008  C476    1.424   1_556 S
C1008  C496    1.410   1_556 S
C1009  C1010   1.390   .     A
C1009  I1062   2.128   .     S
C1010  H1044   1.081   .     S
C1011  C1028   1.386   .     A
C1011  H1040   1.079   .     S
C1012  C1027   1.394   .     A
C1012  H1032   1.083   .     S
C1012  C1028   1.397   .     A
C1013  C1029   1.402   .     A
C1013  C1015   1.460   .     S
C1014  H1045   1.084   .     S
C1014  C1020   1.397   .     A
C1014  C662    1.369   1_565 S
C1015  O1051   1.292   .     A
C1015  O1050   1.292   .     A
C1016  H1033   1.084   .     S
C1016  C1017   1.391   .     A
C1017  C1025   1.409   .     S
C1017  C1018   1.393   .     A
C1018  H1034   1.085   .     S
C1019  C1058   1.511   .     S
C1019  C1020   1.412   .     A
C1019  C664    1.380   1_565 S
C1021  N1047   1.366   .     A
C1021  H1035   1.082   .     S
C1021  C904    1.416   1_655 S
C1022  N1046   1.367   .     A
C1022  H1036   1.082   .     S
C1023  H1037   1.082   .     S
C1023  N1046   1.366   .     A
C1024  H1038   1.082   .     S
C1024  N1047   1.367   .     A
C1024  C905    1.416   1_655 S
C1025  O1053   1.280   .     A
C1025  O1052   1.280   .     A
C1026  C1028   1.452   .     S
C1026  O1055   1.291   .     A
C1026  O1054   1.291   .     A
C1029  C1030   1.388   .     A
C1029  H1041   1.083   .     S
C1030  C500    1.392   1_556 S
C1030  H512    1.083   1_556 S
C1031  H1042   1.079   .     S
H1039  C496    1.081   1_556 S
N1046  Zn1056  2.009   .     S
N1047  Zn1057  2.008   .     S
O1048  Zn1056  1.992   .     S
O1049  Zn1057  1.990   .     S
O1050  Zn1056  1.961   .     S
O1051  Zn1057  1.911   .     S
O1052  Zn1056  1.990   .     S
O1053  Zn1057  1.992   .     S
O1054  Zn1056  1.911   .     S
O1055  Zn1057  1.961   .     S
C1058  H1059   1.111   .     S
C1058  H1061   1.111   .     S
C1058  H1060   1.110   .     S
