data_str_m1_o10_o16_pcu_sym.6
_audit_creation_date              2020-01-03
_audit_creation_method            'Materials Studio'
_symmetry_space_group_name_H-M    'P1'
_symmetry_Int_Tables_number       1
_symmetry_cell_setting            triclinic
loop_
_symmetry_equiv_pos_as_xyz
  x,y,z
_cell_length_a                    32.5452
_cell_length_b                    32.6433
_cell_length_c                    31.0457
_cell_angle_alpha                 96.6118
_cell_angle_beta                  74.2054
_cell_angle_gamma                 98.3832
loop_
_atom_site_label
_atom_site_type_symbol
_atom_site_fract_x
_atom_site_fract_y
_atom_site_fract_z
_atom_site_U_iso_or_equiv
_atom_site_adp_type
_atom_site_occupancy
C1     C     0.05268   0.15964   0.26034   0.00000  Uiso   1.00
C2     C     0.16589   0.15887   0.05946   0.00000  Uiso   1.00
C3     C     0.23024   0.12693   0.05551   0.00000  Uiso   1.00
C4     C     0.28087   0.17386   0.23980   0.00000  Uiso   1.00
C5     C     0.13847   0.19085   0.42062   0.00000  Uiso   1.00
C6     C     0.32700   0.17648   0.23490   0.00000  Uiso   1.00
C7     C     0.00753   0.15814   0.26384   0.00000  Uiso   1.00
C8     C     0.17975   0.32246   0.23739   0.00000  Uiso   1.00
C9     C     0.15085   0.01218   0.26479   0.00000  Uiso   1.00
C10    C     0.15657   0.05606   0.25976   0.00000  Uiso   1.00
C11    C     0.17642   0.27794   0.24032   0.00000  Uiso   1.00
C12    C     0.07846   0.18533   0.48757   0.00000  Uiso   1.00
C13    C     0.18550   0.14830   0.12934   0.00000  Uiso   1.00
C14    C     0.14901   0.18542   0.37097   0.00000  Uiso   1.00
C15    C     0.24318   0.12941   0.00932   0.00000  Uiso   1.00
C16    C     0.19272   0.14303   0.08087   0.00000  Uiso   1.00
C17    C     0.09675   0.19988   0.44456   0.00000  Uiso   1.00
C18    C     0.10286   0.16385   0.00635   0.00000  Uiso   1.00
C19    C     0.14809   0.16646   0.48822   0.00000  Uiso   1.00
C20    C     0.16612   0.17913   0.44403   0.00000  Uiso   1.00
C21    C     0.17587   0.15540   0.01205   0.00000  Uiso   1.00
C22    C     0.21741   0.14592   0.48790   0.00000  Uiso   1.00
C23    C     0.23467   0.15787   0.44436   0.00000  Uiso   1.00
C24    C     0.21103   0.17873   0.42464   0.00000  Uiso   1.00
H25    H     0.25124   0.11546   0.07192   0.00000  Uiso   1.00
H26    H     0.31871   0.14204   0.29128   0.00000  Uiso   1.00
H27    H     0.20652   0.00356   0.21228   0.00000  Uiso   1.00
H28    H     0.26828   0.15550   0.42784   0.00000  Uiso   1.00
H29    H     0.27432   0.12047   0.49072   0.00000  Uiso   1.00
H30    H     0.09898   0.01753   0.31300   0.00000  Uiso   1.00
H31    H     0.13002   0.18345   0.11563   0.00000  Uiso   1.00
H32    H     0.04964   0.23116   0.44582   0.00000  Uiso   1.00
I33    I     0.06941   0.11698   0.05114   0.00000  Uiso   1.00
I34    I     0.01290   0.19170   0.02250   0.00000  Uiso   1.00
I35    I     0.24907   0.21731   0.37356   0.00000  Uiso   1.00
I36    I     0.03677   0.20924   0.18159   0.00000  Uiso   1.00
O37    O     0.16667   0.16667   0.25000   0.00000  Uiso   1.00
O38    O     0.15451   0.12637   0.15458   0.00000  Uiso   1.00
O39    O     0.12940   0.20391   0.34968   0.00000  Uiso   1.00
O40    O     0.20824   0.17759   0.14606   0.00000  Uiso   1.00
O41    O     0.17451   0.15880   0.34968   0.00000  Uiso   1.00
O42    O     0.11602   0.32831   0.29676   0.00000  Uiso   1.00
O43    O     0.13384   0.18284   0.08291   0.00000  Uiso   1.00
O44    O     0.07339   0.21902   0.42330   0.00000  Uiso   1.00
O45    O     0.17930   0.08019   0.28213   0.00000  Uiso   1.00
O46    O     0.14632   0.26085   0.27013   0.00000  Uiso   1.00
O47    O     0.07412   0.13291   0.23413   0.00000  Uiso   1.00
O48    O     0.26693   0.19272   0.21360   0.00000  Uiso   1.00
O49    O     0.07071   0.18878   0.28213   0.00000  Uiso   1.00
O50    O     0.25491   0.15226   0.27013   0.00000  Uiso   1.00
O51    O     0.13760   0.06944   0.23413   0.00000  Uiso   1.00
O52    O     0.20345   0.25620   0.21360   0.00000  Uiso   1.00
Zn53   Zn    0.19338   0.13994   0.28734   0.00000  Uiso   1.00
Zn54   Zn    0.13379   0.12458   0.21875   0.00000  Uiso   1.00
Zn55   Zn    0.21056   0.19775   0.20657   0.00000  Uiso   1.00
Zn56   Zn    0.12893   0.20439   0.28733   0.00000  Uiso   1.00
C57    C     0.38602   0.15964   0.26034   0.00000  Uiso   1.00
C58    C     0.49922   0.15887   0.05946   0.00000  Uiso   1.00
C59    C     0.56357   0.12693   0.05551   0.00000  Uiso   1.00
C60    C     0.61420   0.17386   0.23980   0.00000  Uiso   1.00
C61    C     0.47181   0.19085   0.42062   0.00000  Uiso   1.00
C62    C     0.66034   0.17648   0.23490   0.00000  Uiso   1.00
C63    C     0.34087   0.15814   0.26384   0.00000  Uiso   1.00
C64    C     0.51308   0.32246   0.23739   0.00000  Uiso   1.00
C65    C     0.48418   0.01218   0.26479   0.00000  Uiso   1.00
C66    C     0.48991   0.05606   0.25976   0.00000  Uiso   1.00
C67    C     0.50975   0.27794   0.24032   0.00000  Uiso   1.00
C68    C     0.41179   0.18533   0.48757   0.00000  Uiso   1.00
C69    C     0.51883   0.14830   0.12934   0.00000  Uiso   1.00
C70    C     0.48234   0.18542   0.37097   0.00000  Uiso   1.00
C71    C     0.57652   0.12941   0.00932   0.00000  Uiso   1.00
C72    C     0.52606   0.14303   0.08087   0.00000  Uiso   1.00
C73    C     0.43008   0.19988   0.44456   0.00000  Uiso   1.00
C74    C     0.43619   0.16385   0.00635   0.00000  Uiso   1.00
C75    C     0.48143   0.16646   0.48822   0.00000  Uiso   1.00
C76    C     0.49945   0.17913   0.44403   0.00000  Uiso   1.00
C77    C     0.50920   0.15540   0.01205   0.00000  Uiso   1.00
C78    C     0.55075   0.14592   0.48790   0.00000  Uiso   1.00
C79    C     0.56801   0.15787   0.44436   0.00000  Uiso   1.00
C80    C     0.54437   0.17873   0.42464   0.00000  Uiso   1.00
H81    H     0.58457   0.11546   0.07192   0.00000  Uiso   1.00
H82    H     0.65205   0.14204   0.29128   0.00000  Uiso   1.00
H83    H     0.53985   0.00356   0.21228   0.00000  Uiso   1.00
H84    H     0.60161   0.15550   0.42784   0.00000  Uiso   1.00
H85    H     0.60766   0.12047   0.49072   0.00000  Uiso   1.00
H86    H     0.43232   0.01753   0.31300   0.00000  Uiso   1.00
H87    H     0.46336   0.18345   0.11563   0.00000  Uiso   1.00
H88    H     0.38297   0.23116   0.44582   0.00000  Uiso   1.00
I89    I     0.40275   0.11698   0.05114   0.00000  Uiso   1.00
I90    I     0.34623   0.19170   0.02250   0.00000  Uiso   1.00
I91    I     0.58240   0.21731   0.37356   0.00000  Uiso   1.00
I92    I     0.37010   0.20924   0.18159   0.00000  Uiso   1.00
O93    O     0.50000   0.16667   0.25000   0.00000  Uiso   1.00
O94    O     0.48784   0.12637   0.15458   0.00000  Uiso   1.00
O95    O     0.46274   0.20391   0.34968   0.00000  Uiso   1.00
O96    O     0.54157   0.17759   0.14606   0.00000  Uiso   1.00
O97    O     0.50785   0.15880   0.34968   0.00000  Uiso   1.00
O98    O     0.44935   0.32831   0.29676   0.00000  Uiso   1.00
O99    O     0.46717   0.18284   0.08291   0.00000  Uiso   1.00
O100   O     0.40673   0.21902   0.42330   0.00000  Uiso   1.00
O101   O     0.51264   0.08019   0.28213   0.00000  Uiso   1.00
O102   O     0.47965   0.26085   0.27013   0.00000  Uiso   1.00
O103   O     0.40745   0.13291   0.23413   0.00000  Uiso   1.00
O104   O     0.60026   0.19272   0.21360   0.00000  Uiso   1.00
O105   O     0.40405   0.18878   0.28213   0.00000  Uiso   1.00
O106   O     0.58824   0.15226   0.27013   0.00000  Uiso   1.00
O107   O     0.47093   0.06944   0.23413   0.00000  Uiso   1.00
O108   O     0.53678   0.25620   0.21360   0.00000  Uiso   1.00
Zn109  Zn    0.52672   0.13994   0.28734   0.00000  Uiso   1.00
Zn110  Zn    0.46713   0.12458   0.21875   0.00000  Uiso   1.00
Zn111  Zn    0.54389   0.19775   0.20657   0.00000  Uiso   1.00
Zn112  Zn    0.46226   0.20439   0.28733   0.00000  Uiso   1.00
C113   C     0.71935   0.15964   0.26034   0.00000  Uiso   1.00
C114   C     0.83256   0.15887   0.05946   0.00000  Uiso   1.00
C115   C     0.89691   0.12693   0.05551   0.00000  Uiso   1.00
C116   C     0.94753   0.17386   0.23980   0.00000  Uiso   1.00
C117   C     0.80514   0.19085   0.42062   0.00000  Uiso   1.00
C118   C     0.99367   0.17648   0.23490   0.00000  Uiso   1.00
C119   C     0.67420   0.15814   0.26384   0.00000  Uiso   1.00
C120   C     0.84642   0.32246   0.23739   0.00000  Uiso   1.00
C121   C     0.81751   0.01218   0.26479   0.00000  Uiso   1.00
C122   C     0.82324   0.05606   0.25976   0.00000  Uiso   1.00
C123   C     0.84309   0.27794   0.24032   0.00000  Uiso   1.00
C124   C     0.74513   0.18533   0.48757   0.00000  Uiso   1.00
C125   C     0.85216   0.14830   0.12934   0.00000  Uiso   1.00
C126   C     0.81568   0.18542   0.37097   0.00000  Uiso   1.00
C127   C     0.90985   0.12941   0.00932   0.00000  Uiso   1.00
C128   C     0.85939   0.14303   0.08087   0.00000  Uiso   1.00
C129   C     0.76341   0.19988   0.44456   0.00000  Uiso   1.00
C130   C     0.76952   0.16385   0.00635   0.00000  Uiso   1.00
C131   C     0.81476   0.16646   0.48822   0.00000  Uiso   1.00
C132   C     0.83278   0.17913   0.44403   0.00000  Uiso   1.00
C133   C     0.84254   0.15540   0.01205   0.00000  Uiso   1.00
C134   C     0.88408   0.14592   0.48790   0.00000  Uiso   1.00
C135   C     0.90134   0.15787   0.44436   0.00000  Uiso   1.00
C136   C     0.87770   0.17873   0.42464   0.00000  Uiso   1.00
H137   H     0.91790   0.11546   0.07192   0.00000  Uiso   1.00
H138   H     0.98538   0.14204   0.29128   0.00000  Uiso   1.00
H139   H     0.87318   0.00356   0.21228   0.00000  Uiso   1.00
H140   H     0.93495   0.15550   0.42784   0.00000  Uiso   1.00
H141   H     0.94099   0.12047   0.49072   0.00000  Uiso   1.00
H142   H     0.76565   0.01753   0.31300   0.00000  Uiso   1.00
H143   H     0.79669   0.18345   0.11563   0.00000  Uiso   1.00
H144   H     0.71630   0.23116   0.44582   0.00000  Uiso   1.00
I145   I     0.73608   0.11698   0.05114   0.00000  Uiso   1.00
I146   I     0.67957   0.19170   0.02250   0.00000  Uiso   1.00
I147   I     0.91574   0.21731   0.37356   0.00000  Uiso   1.00
I148   I     0.70343   0.20924   0.18159   0.00000  Uiso   1.00
O149   O     0.83333   0.16667   0.25000   0.00000  Uiso   1.00
O150   O     0.82118   0.12637   0.15458   0.00000  Uiso   1.00
O151   O     0.79607   0.20391   0.34968   0.00000  Uiso   1.00
O152   O     0.87491   0.17759   0.14606   0.00000  Uiso   1.00
O153   O     0.84118   0.15880   0.34968   0.00000  Uiso   1.00
O154   O     0.78268   0.32831   0.29676   0.00000  Uiso   1.00
O155   O     0.80050   0.18284   0.08291   0.00000  Uiso   1.00
O156   O     0.74006   0.21902   0.42330   0.00000  Uiso   1.00
O157   O     0.84597   0.08019   0.28213   0.00000  Uiso   1.00
O158   O     0.81298   0.26085   0.27013   0.00000  Uiso   1.00
O159   O     0.74078   0.13291   0.23413   0.00000  Uiso   1.00
O160   O     0.93360   0.19272   0.21360   0.00000  Uiso   1.00
O161   O     0.73738   0.18878   0.28213   0.00000  Uiso   1.00
O162   O     0.92158   0.15226   0.27013   0.00000  Uiso   1.00
O163   O     0.80426   0.06944   0.23413   0.00000  Uiso   1.00
O164   O     0.87012   0.25620   0.21360   0.00000  Uiso   1.00
Zn165  Zn    0.86005   0.13994   0.28734   0.00000  Uiso   1.00
Zn166  Zn    0.80046   0.12458   0.21875   0.00000  Uiso   1.00
Zn167  Zn    0.87723   0.19775   0.20657   0.00000  Uiso   1.00
Zn168  Zn    0.79560   0.20439   0.28733   0.00000  Uiso   1.00
C169   C     0.05268   0.49298   0.26034   0.00000  Uiso   1.00
C170   C     0.16589   0.49221   0.05946   0.00000  Uiso   1.00
C171   C     0.23024   0.46026   0.05551   0.00000  Uiso   1.00
C172   C     0.28087   0.50719   0.23980   0.00000  Uiso   1.00
C173   C     0.13847   0.52419   0.42062   0.00000  Uiso   1.00
C174   C     0.32700   0.50982   0.23490   0.00000  Uiso   1.00
C175   C     0.00753   0.49147   0.26384   0.00000  Uiso   1.00
C176   C     0.17975   0.65579   0.23739   0.00000  Uiso   1.00
C177   C     0.15085   0.34552   0.26479   0.00000  Uiso   1.00
C178   C     0.15657   0.38939   0.25976   0.00000  Uiso   1.00
C179   C     0.17642   0.61127   0.24032   0.00000  Uiso   1.00
C180   C     0.07846   0.51866   0.48757   0.00000  Uiso   1.00
C181   C     0.18550   0.48163   0.12934   0.00000  Uiso   1.00
C182   C     0.14901   0.51875   0.37097   0.00000  Uiso   1.00
C183   C     0.24318   0.46274   0.00932   0.00000  Uiso   1.00
C184   C     0.19272   0.47636   0.08087   0.00000  Uiso   1.00
C185   C     0.09675   0.53321   0.44456   0.00000  Uiso   1.00
C186   C     0.10286   0.49718   0.00635   0.00000  Uiso   1.00
C187   C     0.14809   0.49979   0.48822   0.00000  Uiso   1.00
C188   C     0.16612   0.51246   0.44403   0.00000  Uiso   1.00
C189   C     0.17587   0.48874   0.01205   0.00000  Uiso   1.00
C190   C     0.21741   0.47925   0.48790   0.00000  Uiso   1.00
C191   C     0.23467   0.49120   0.44436   0.00000  Uiso   1.00
C192   C     0.21103   0.51206   0.42464   0.00000  Uiso   1.00
H193   H     0.25124   0.44879   0.07192   0.00000  Uiso   1.00
H194   H     0.31871   0.47537   0.29128   0.00000  Uiso   1.00
H195   H     0.20652   0.33690   0.21228   0.00000  Uiso   1.00
H196   H     0.26828   0.48883   0.42784   0.00000  Uiso   1.00
H197   H     0.27432   0.45380   0.49072   0.00000  Uiso   1.00
H198   H     0.09898   0.35087   0.31300   0.00000  Uiso   1.00
H199   H     0.13002   0.51678   0.11563   0.00000  Uiso   1.00
H200   H     0.04964   0.56449   0.44582   0.00000  Uiso   1.00
I201   I     0.06941   0.45031   0.05114   0.00000  Uiso   1.00
I202   I     0.01290   0.52503   0.02250   0.00000  Uiso   1.00
I203   I     0.24907   0.55064   0.37356   0.00000  Uiso   1.00
I204   I     0.03677   0.54258   0.18159   0.00000  Uiso   1.00
O205   O     0.16667   0.50000   0.25000   0.00000  Uiso   1.00
O206   O     0.15451   0.45970   0.15458   0.00000  Uiso   1.00
O207   O     0.12940   0.53724   0.34968   0.00000  Uiso   1.00
O208   O     0.20824   0.51092   0.14606   0.00000  Uiso   1.00
O209   O     0.17451   0.49213   0.34968   0.00000  Uiso   1.00
O210   O     0.11602   0.66165   0.29676   0.00000  Uiso   1.00
O211   O     0.13384   0.51618   0.08291   0.00000  Uiso   1.00
O212   O     0.07339   0.55236   0.42330   0.00000  Uiso   1.00
O213   O     0.17930   0.41352   0.28213   0.00000  Uiso   1.00
O214   O     0.14632   0.59418   0.27013   0.00000  Uiso   1.00
O215   O     0.07412   0.46625   0.23413   0.00000  Uiso   1.00
O216   O     0.26693   0.52605   0.21360   0.00000  Uiso   1.00
O217   O     0.07071   0.52211   0.28213   0.00000  Uiso   1.00
O218   O     0.25491   0.48559   0.27013   0.00000  Uiso   1.00
O219   O     0.13760   0.40277   0.23413   0.00000  Uiso   1.00
O220   O     0.20345   0.58953   0.21360   0.00000  Uiso   1.00
Zn221  Zn    0.19338   0.47327   0.28734   0.00000  Uiso   1.00
Zn222  Zn    0.13379   0.45791   0.21875   0.00000  Uiso   1.00
Zn223  Zn    0.21056   0.53109   0.20657   0.00000  Uiso   1.00
Zn224  Zn    0.12893   0.53773   0.28733   0.00000  Uiso   1.00
C225   C     0.38602   0.49298   0.26034   0.00000  Uiso   1.00
C226   C     0.49922   0.49221   0.05946   0.00000  Uiso   1.00
C227   C     0.56357   0.46026   0.05551   0.00000  Uiso   1.00
C228   C     0.61420   0.50719   0.23980   0.00000  Uiso   1.00
C229   C     0.47181   0.52419   0.42062   0.00000  Uiso   1.00
C230   C     0.66034   0.50982   0.23490   0.00000  Uiso   1.00
C231   C     0.34087   0.49147   0.26384   0.00000  Uiso   1.00
C232   C     0.51308   0.65579   0.23739   0.00000  Uiso   1.00
C233   C     0.48418   0.34552   0.26479   0.00000  Uiso   1.00
C234   C     0.48991   0.38939   0.25976   0.00000  Uiso   1.00
C235   C     0.50975   0.61127   0.24032   0.00000  Uiso   1.00
C236   C     0.41179   0.51866   0.48757   0.00000  Uiso   1.00
C237   C     0.51883   0.48163   0.12934   0.00000  Uiso   1.00
C238   C     0.48234   0.51875   0.37097   0.00000  Uiso   1.00
C239   C     0.57652   0.46274   0.00932   0.00000  Uiso   1.00
C240   C     0.52606   0.47636   0.08087   0.00000  Uiso   1.00
C241   C     0.43008   0.53321   0.44456   0.00000  Uiso   1.00
C242   C     0.43619   0.49718   0.00635   0.00000  Uiso   1.00
C243   C     0.48143   0.49979   0.48822   0.00000  Uiso   1.00
C244   C     0.49945   0.51246   0.44403   0.00000  Uiso   1.00
C245   C     0.50920   0.48874   0.01205   0.00000  Uiso   1.00
C246   C     0.55075   0.47925   0.48790   0.00000  Uiso   1.00
C247   C     0.56801   0.49120   0.44436   0.00000  Uiso   1.00
C248   C     0.54437   0.51206   0.42464   0.00000  Uiso   1.00
H249   H     0.58457   0.44879   0.07192   0.00000  Uiso   1.00
H250   H     0.65205   0.47537   0.29128   0.00000  Uiso   1.00
H251   H     0.53985   0.33690   0.21228   0.00000  Uiso   1.00
H252   H     0.60161   0.48883   0.42784   0.00000  Uiso   1.00
H253   H     0.60766   0.45380   0.49072   0.00000  Uiso   1.00
H254   H     0.43232   0.35087   0.31300   0.00000  Uiso   1.00
H255   H     0.46336   0.51678   0.11563   0.00000  Uiso   1.00
H256   H     0.38297   0.56449   0.44582   0.00000  Uiso   1.00
I257   I     0.40275   0.45031   0.05114   0.00000  Uiso   1.00
I258   I     0.34623   0.52503   0.02250   0.00000  Uiso   1.00
I259   I     0.58240   0.55064   0.37356   0.00000  Uiso   1.00
I260   I     0.37010   0.54258   0.18159   0.00000  Uiso   1.00
O261   O     0.50000   0.50000   0.25000   0.00000  Uiso   1.00
O262   O     0.48784   0.45970   0.15458   0.00000  Uiso   1.00
O263   O     0.46274   0.53724   0.34968   0.00000  Uiso   1.00
O264   O     0.54157   0.51092   0.14606   0.00000  Uiso   1.00
O265   O     0.50785   0.49213   0.34968   0.00000  Uiso   1.00
O266   O     0.44935   0.66165   0.29676   0.00000  Uiso   1.00
O267   O     0.46717   0.51618   0.08291   0.00000  Uiso   1.00
O268   O     0.40673   0.55236   0.42330   0.00000  Uiso   1.00
O269   O     0.51264   0.41352   0.28213   0.00000  Uiso   1.00
O270   O     0.47965   0.59418   0.27013   0.00000  Uiso   1.00
O271   O     0.40745   0.46625   0.23413   0.00000  Uiso   1.00
O272   O     0.60026   0.52605   0.21360   0.00000  Uiso   1.00
O273   O     0.40405   0.52211   0.28213   0.00000  Uiso   1.00
O274   O     0.58824   0.48559   0.27013   0.00000  Uiso   1.00
O275   O     0.47093   0.40277   0.23413   0.00000  Uiso   1.00
O276   O     0.53678   0.58953   0.21360   0.00000  Uiso   1.00
Zn277  Zn    0.52672   0.47327   0.28734   0.00000  Uiso   1.00
Zn278  Zn    0.46713   0.45791   0.21875   0.00000  Uiso   1.00
Zn279  Zn    0.54389   0.53109   0.20657   0.00000  Uiso   1.00
Zn280  Zn    0.46226   0.53773   0.28733   0.00000  Uiso   1.00
C281   C     0.71935   0.49298   0.26034   0.00000  Uiso   1.00
C282   C     0.83256   0.49221   0.05946   0.00000  Uiso   1.00
C283   C     0.89691   0.46026   0.05551   0.00000  Uiso   1.00
C284   C     0.94753   0.50719   0.23980   0.00000  Uiso   1.00
C285   C     0.80514   0.52419   0.42062   0.00000  Uiso   1.00
C286   C     0.99367   0.50982   0.23490   0.00000  Uiso   1.00
C287   C     0.67420   0.49147   0.26384   0.00000  Uiso   1.00
C288   C     0.84642   0.65579   0.23739   0.00000  Uiso   1.00
C289   C     0.81751   0.34552   0.26479   0.00000  Uiso   1.00
C290   C     0.82324   0.38939   0.25976   0.00000  Uiso   1.00
C291   C     0.84309   0.61127   0.24032   0.00000  Uiso   1.00
C292   C     0.74513   0.51866   0.48757   0.00000  Uiso   1.00
C293   C     0.85216   0.48163   0.12934   0.00000  Uiso   1.00
C294   C     0.81568   0.51875   0.37097   0.00000  Uiso   1.00
C295   C     0.90985   0.46274   0.00932   0.00000  Uiso   1.00
C296   C     0.85939   0.47636   0.08087   0.00000  Uiso   1.00
C297   C     0.76341   0.53321   0.44456   0.00000  Uiso   1.00
C298   C     0.76952   0.49718   0.00635   0.00000  Uiso   1.00
C299   C     0.81476   0.49979   0.48822   0.00000  Uiso   1.00
C300   C     0.83278   0.51246   0.44403   0.00000  Uiso   1.00
C301   C     0.84254   0.48874   0.01205   0.00000  Uiso   1.00
C302   C     0.88408   0.47925   0.48790   0.00000  Uiso   1.00
C303   C     0.90134   0.49120   0.44436   0.00000  Uiso   1.00
C304   C     0.87770   0.51206   0.42464   0.00000  Uiso   1.00
H305   H     0.91790   0.44879   0.07192   0.00000  Uiso   1.00
H306   H     0.98538   0.47537   0.29128   0.00000  Uiso   1.00
H307   H     0.87318   0.33690   0.21228   0.00000  Uiso   1.00
H308   H     0.93495   0.48883   0.42784   0.00000  Uiso   1.00
H309   H     0.94099   0.45380   0.49072   0.00000  Uiso   1.00
H310   H     0.76565   0.35087   0.31300   0.00000  Uiso   1.00
H311   H     0.79669   0.51678   0.11563   0.00000  Uiso   1.00
H312   H     0.71630   0.56449   0.44582   0.00000  Uiso   1.00
I313   I     0.73608   0.45031   0.05114   0.00000  Uiso   1.00
I314   I     0.67957   0.52503   0.02250   0.00000  Uiso   1.00
I315   I     0.91574   0.55064   0.37356   0.00000  Uiso   1.00
I316   I     0.70343   0.54258   0.18159   0.00000  Uiso   1.00
O317   O     0.83333   0.50000   0.25000   0.00000  Uiso   1.00
O318   O     0.82118   0.45970   0.15458   0.00000  Uiso   1.00
O319   O     0.79607   0.53724   0.34968   0.00000  Uiso   1.00
O320   O     0.87491   0.51092   0.14606   0.00000  Uiso   1.00
O321   O     0.84118   0.49213   0.34968   0.00000  Uiso   1.00
O322   O     0.78268   0.66165   0.29676   0.00000  Uiso   1.00
O323   O     0.80050   0.51618   0.08291   0.00000  Uiso   1.00
O324   O     0.74006   0.55236   0.42330   0.00000  Uiso   1.00
O325   O     0.84597   0.41352   0.28213   0.00000  Uiso   1.00
O326   O     0.81298   0.59418   0.27013   0.00000  Uiso   1.00
O327   O     0.74078   0.46625   0.23413   0.00000  Uiso   1.00
O328   O     0.93360   0.52605   0.21360   0.00000  Uiso   1.00
O329   O     0.73738   0.52211   0.28213   0.00000  Uiso   1.00
O330   O     0.92158   0.48559   0.27013   0.00000  Uiso   1.00
O331   O     0.80426   0.40277   0.23413   0.00000  Uiso   1.00
O332   O     0.87012   0.58953   0.21360   0.00000  Uiso   1.00
Zn333  Zn    0.86005   0.47327   0.28734   0.00000  Uiso   1.00
Zn334  Zn    0.80046   0.45791   0.21875   0.00000  Uiso   1.00
Zn335  Zn    0.87723   0.53109   0.20657   0.00000  Uiso   1.00
Zn336  Zn    0.79560   0.53773   0.28733   0.00000  Uiso   1.00
C337   C     0.05268   0.82631   0.26034   0.00000  Uiso   1.00
C338   C     0.16589   0.82554   0.05946   0.00000  Uiso   1.00
C339   C     0.23024   0.79360   0.05551   0.00000  Uiso   1.00
C340   C     0.28087   0.84052   0.23980   0.00000  Uiso   1.00
C341   C     0.13847   0.85752   0.42062   0.00000  Uiso   1.00
C342   C     0.32700   0.84315   0.23490   0.00000  Uiso   1.00
C343   C     0.00753   0.82481   0.26384   0.00000  Uiso   1.00
C344   C     0.17975   0.98912   0.23739   0.00000  Uiso   1.00
C345   C     0.15085   0.67885   0.26479   0.00000  Uiso   1.00
C346   C     0.15657   0.72273   0.25976   0.00000  Uiso   1.00
C347   C     0.17642   0.94460   0.24032   0.00000  Uiso   1.00
C348   C     0.07846   0.85199   0.48757   0.00000  Uiso   1.00
C349   C     0.18550   0.81496   0.12934   0.00000  Uiso   1.00
C350   C     0.14901   0.85209   0.37097   0.00000  Uiso   1.00
C351   C     0.24318   0.79607   0.00932   0.00000  Uiso   1.00
C352   C     0.19272   0.80970   0.08087   0.00000  Uiso   1.00
C353   C     0.09675   0.86655   0.44456   0.00000  Uiso   1.00
C354   C     0.10286   0.83052   0.00635   0.00000  Uiso   1.00
C355   C     0.14809   0.83312   0.48822   0.00000  Uiso   1.00
C356   C     0.16612   0.84580   0.44403   0.00000  Uiso   1.00
C357   C     0.17587   0.82207   0.01205   0.00000  Uiso   1.00
C358   C     0.21741   0.81259   0.48790   0.00000  Uiso   1.00
C359   C     0.23467   0.82454   0.44436   0.00000  Uiso   1.00
C360   C     0.21103   0.84540   0.42464   0.00000  Uiso   1.00
H361   H     0.25124   0.78213   0.07192   0.00000  Uiso   1.00
H362   H     0.31871   0.80871   0.29128   0.00000  Uiso   1.00
H363   H     0.20652   0.67023   0.21228   0.00000  Uiso   1.00
H364   H     0.26828   0.82217   0.42784   0.00000  Uiso   1.00
H365   H     0.27432   0.78714   0.49072   0.00000  Uiso   1.00
H366   H     0.09898   0.68420   0.31300   0.00000  Uiso   1.00
H367   H     0.13002   0.85011   0.11563   0.00000  Uiso   1.00
H368   H     0.04964   0.89782   0.44582   0.00000  Uiso   1.00
I369   I     0.06941   0.78364   0.05114   0.00000  Uiso   1.00
I370   I     0.01290   0.85836   0.02250   0.00000  Uiso   1.00
I371   I     0.24907   0.88397   0.37356   0.00000  Uiso   1.00
I372   I     0.03677   0.87591   0.18159   0.00000  Uiso   1.00
O373   O     0.16667   0.83333   0.25000   0.00000  Uiso   1.00
O374   O     0.15451   0.79304   0.15458   0.00000  Uiso   1.00
O375   O     0.12940   0.87058   0.34968   0.00000  Uiso   1.00
O376   O     0.20824   0.84425   0.14606   0.00000  Uiso   1.00
O377   O     0.17451   0.82546   0.34968   0.00000  Uiso   1.00
O378   O     0.11602   0.99498   0.29676   0.00000  Uiso   1.00
O379   O     0.13384   0.84951   0.08291   0.00000  Uiso   1.00
O380   O     0.07339   0.88569   0.42330   0.00000  Uiso   1.00
O381   O     0.17930   0.74686   0.28213   0.00000  Uiso   1.00
O382   O     0.14632   0.92751   0.27013   0.00000  Uiso   1.00
O383   O     0.07412   0.79958   0.23413   0.00000  Uiso   1.00
O384   O     0.26693   0.85939   0.21360   0.00000  Uiso   1.00
O385   O     0.07071   0.85544   0.28213   0.00000  Uiso   1.00
O386   O     0.25491   0.81892   0.27013   0.00000  Uiso   1.00
O387   O     0.13760   0.73610   0.23413   0.00000  Uiso   1.00
O388   O     0.20345   0.92286   0.21360   0.00000  Uiso   1.00
Zn389  Zn    0.19338   0.80661   0.28734   0.00000  Uiso   1.00
Zn390  Zn    0.13379   0.79124   0.21875   0.00000  Uiso   1.00
Zn391  Zn    0.21056   0.86442   0.20657   0.00000  Uiso   1.00
Zn392  Zn    0.12893   0.87106   0.28733   0.00000  Uiso   1.00
C393   C     0.38602   0.82631   0.26034   0.00000  Uiso   1.00
C394   C     0.49922   0.82554   0.05946   0.00000  Uiso   1.00
C395   C     0.56357   0.79360   0.05551   0.00000  Uiso   1.00
C396   C     0.61420   0.84052   0.23980   0.00000  Uiso   1.00
C397   C     0.47181   0.85752   0.42062   0.00000  Uiso   1.00
C398   C     0.66034   0.84315   0.23490   0.00000  Uiso   1.00
C399   C     0.34087   0.82481   0.26384   0.00000  Uiso   1.00
C400   C     0.51308   0.98912   0.23739   0.00000  Uiso   1.00
C401   C     0.48418   0.67885   0.26479   0.00000  Uiso   1.00
C402   C     0.48991   0.72273   0.25976   0.00000  Uiso   1.00
C403   C     0.50975   0.94460   0.24032   0.00000  Uiso   1.00
C404   C     0.41179   0.85199   0.48757   0.00000  Uiso   1.00
C405   C     0.51883   0.81496   0.12934   0.00000  Uiso   1.00
C406   C     0.48234   0.85209   0.37097   0.00000  Uiso   1.00
C407   C     0.57652   0.79607   0.00932   0.00000  Uiso   1.00
C408   C     0.52606   0.80970   0.08087   0.00000  Uiso   1.00
C409   C     0.43008   0.86655   0.44456   0.00000  Uiso   1.00
C410   C     0.43619   0.83052   0.00635   0.00000  Uiso   1.00
C411   C     0.48143   0.83312   0.48822   0.00000  Uiso   1.00
C412   C     0.49945   0.84580   0.44403   0.00000  Uiso   1.00
C413   C     0.50920   0.82207   0.01205   0.00000  Uiso   1.00
C414   C     0.55075   0.81259   0.48790   0.00000  Uiso   1.00
C415   C     0.56801   0.82454   0.44436   0.00000  Uiso   1.00
C416   C     0.54437   0.84540   0.42464   0.00000  Uiso   1.00
H417   H     0.58457   0.78213   0.07192   0.00000  Uiso   1.00
H418   H     0.65205   0.80871   0.29128   0.00000  Uiso   1.00
H419   H     0.53985   0.67023   0.21228   0.00000  Uiso   1.00
H420   H     0.60161   0.82217   0.42784   0.00000  Uiso   1.00
H421   H     0.60766   0.78714   0.49072   0.00000  Uiso   1.00
H422   H     0.43232   0.68420   0.31300   0.00000  Uiso   1.00
H423   H     0.46336   0.85011   0.11563   0.00000  Uiso   1.00
H424   H     0.38297   0.89782   0.44582   0.00000  Uiso   1.00
I425   I     0.40275   0.78364   0.05114   0.00000  Uiso   1.00
I426   I     0.34623   0.85836   0.02250   0.00000  Uiso   1.00
I427   I     0.58240   0.88397   0.37356   0.00000  Uiso   1.00
I428   I     0.37010   0.87591   0.18159   0.00000  Uiso   1.00
O429   O     0.50000   0.83333   0.25000   0.00000  Uiso   1.00
O430   O     0.48784   0.79304   0.15458   0.00000  Uiso   1.00
O431   O     0.46274   0.87058   0.34968   0.00000  Uiso   1.00
O432   O     0.54157   0.84425   0.14606   0.00000  Uiso   1.00
O433   O     0.50785   0.82546   0.34968   0.00000  Uiso   1.00
O434   O     0.44935   0.99498   0.29676   0.00000  Uiso   1.00
O435   O     0.46717   0.84951   0.08291   0.00000  Uiso   1.00
O436   O     0.40673   0.88569   0.42330   0.00000  Uiso   1.00
O437   O     0.51264   0.74686   0.28213   0.00000  Uiso   1.00
O438   O     0.47965   0.92751   0.27013   0.00000  Uiso   1.00
O439   O     0.40745   0.79958   0.23413   0.00000  Uiso   1.00
O440   O     0.60026   0.85939   0.21360   0.00000  Uiso   1.00
O441   O     0.40405   0.85544   0.28213   0.00000  Uiso   1.00
O442   O     0.58824   0.81892   0.27013   0.00000  Uiso   1.00
O443   O     0.47093   0.73610   0.23413   0.00000  Uiso   1.00
O444   O     0.53678   0.92286   0.21360   0.00000  Uiso   1.00
Zn445  Zn    0.52672   0.80661   0.28734   0.00000  Uiso   1.00
Zn446  Zn    0.46713   0.79124   0.21875   0.00000  Uiso   1.00
Zn447  Zn    0.54389   0.86442   0.20657   0.00000  Uiso   1.00
Zn448  Zn    0.46226   0.87106   0.28733   0.00000  Uiso   1.00
C449   C     0.71935   0.82631   0.26034   0.00000  Uiso   1.00
C450   C     0.83256   0.82554   0.05946   0.00000  Uiso   1.00
C451   C     0.89691   0.79360   0.05551   0.00000  Uiso   1.00
C452   C     0.94753   0.84052   0.23980   0.00000  Uiso   1.00
C453   C     0.80514   0.85752   0.42062   0.00000  Uiso   1.00
C454   C     0.99367   0.84315   0.23490   0.00000  Uiso   1.00
C455   C     0.67420   0.82481   0.26384   0.00000  Uiso   1.00
C456   C     0.84642   0.98912   0.23739   0.00000  Uiso   1.00
C457   C     0.81751   0.67885   0.26479   0.00000  Uiso   1.00
C458   C     0.82324   0.72273   0.25976   0.00000  Uiso   1.00
C459   C     0.84309   0.94460   0.24032   0.00000  Uiso   1.00
C460   C     0.74513   0.85199   0.48757   0.00000  Uiso   1.00
C461   C     0.85216   0.81496   0.12934   0.00000  Uiso   1.00
C462   C     0.81568   0.85209   0.37097   0.00000  Uiso   1.00
C463   C     0.90985   0.79607   0.00932   0.00000  Uiso   1.00
C464   C     0.85939   0.80970   0.08087   0.00000  Uiso   1.00
C465   C     0.76341   0.86655   0.44456   0.00000  Uiso   1.00
C466   C     0.76952   0.83052   0.00635   0.00000  Uiso   1.00
C467   C     0.81476   0.83312   0.48822   0.00000  Uiso   1.00
C468   C     0.83278   0.84580   0.44403   0.00000  Uiso   1.00
C469   C     0.84254   0.82207   0.01205   0.00000  Uiso   1.00
C470   C     0.88408   0.81259   0.48790   0.00000  Uiso   1.00
C471   C     0.90134   0.82454   0.44436   0.00000  Uiso   1.00
C472   C     0.87770   0.84540   0.42464   0.00000  Uiso   1.00
H473   H     0.91790   0.78213   0.07192   0.00000  Uiso   1.00
H474   H     0.98538   0.80871   0.29128   0.00000  Uiso   1.00
H475   H     0.87318   0.67023   0.21228   0.00000  Uiso   1.00
H476   H     0.93495   0.82217   0.42784   0.00000  Uiso   1.00
H477   H     0.94099   0.78714   0.49072   0.00000  Uiso   1.00
H478   H     0.76565   0.68420   0.31300   0.00000  Uiso   1.00
H479   H     0.79669   0.85011   0.11563   0.00000  Uiso   1.00
H480   H     0.71630   0.89782   0.44582   0.00000  Uiso   1.00
I481   I     0.73608   0.78364   0.05114   0.00000  Uiso   1.00
I482   I     0.67957   0.85836   0.02250   0.00000  Uiso   1.00
I483   I     0.91574   0.88397   0.37356   0.00000  Uiso   1.00
I484   I     0.70343   0.87591   0.18159   0.00000  Uiso   1.00
O485   O     0.83333   0.83333   0.25000   0.00000  Uiso   1.00
O486   O     0.82118   0.79304   0.15458   0.00000  Uiso   1.00
O487   O     0.79607   0.87058   0.34968   0.00000  Uiso   1.00
O488   O     0.87491   0.84425   0.14606   0.00000  Uiso   1.00
O489   O     0.84118   0.82546   0.34968   0.00000  Uiso   1.00
O490   O     0.78268   0.99498   0.29676   0.00000  Uiso   1.00
O491   O     0.80050   0.84951   0.08291   0.00000  Uiso   1.00
O492   O     0.74006   0.88569   0.42330   0.00000  Uiso   1.00
O493   O     0.84597   0.74686   0.28213   0.00000  Uiso   1.00
O494   O     0.81298   0.92751   0.27013   0.00000  Uiso   1.00
O495   O     0.74078   0.79958   0.23413   0.00000  Uiso   1.00
O496   O     0.93360   0.85939   0.21360   0.00000  Uiso   1.00
O497   O     0.73738   0.85544   0.28213   0.00000  Uiso   1.00
O498   O     0.92158   0.81892   0.27013   0.00000  Uiso   1.00
O499   O     0.80426   0.73610   0.23413   0.00000  Uiso   1.00
O500   O     0.87012   0.92286   0.21360   0.00000  Uiso   1.00
Zn501  Zn    0.86005   0.80661   0.28734   0.00000  Uiso   1.00
Zn502  Zn    0.80046   0.79124   0.21875   0.00000  Uiso   1.00
Zn503  Zn    0.87723   0.86442   0.20657   0.00000  Uiso   1.00
Zn504  Zn    0.79560   0.87106   0.28733   0.00000  Uiso   1.00
C505   C     0.05268   0.15964   0.76034   0.00000  Uiso   1.00
C506   C     0.16589   0.15887   0.55946   0.00000  Uiso   1.00
C507   C     0.23024   0.12693   0.55551   0.00000  Uiso   1.00
C508   C     0.28087   0.17386   0.73980   0.00000  Uiso   1.00
C509   C     0.13847   0.19085   0.92062   0.00000  Uiso   1.00
C510   C     0.32700   0.17648   0.73490   0.00000  Uiso   1.00
C511   C     0.00753   0.15814   0.76384   0.00000  Uiso   1.00
C512   C     0.17975   0.32246   0.73739   0.00000  Uiso   1.00
C513   C     0.15085   0.01218   0.76479   0.00000  Uiso   1.00
C514   C     0.15657   0.05606   0.75976   0.00000  Uiso   1.00
C515   C     0.17642   0.27794   0.74032   0.00000  Uiso   1.00
C516   C     0.07846   0.18533   0.98757   0.00000  Uiso   1.00
C517   C     0.18550   0.14830   0.62934   0.00000  Uiso   1.00
C518   C     0.14901   0.18542   0.87097   0.00000  Uiso   1.00
C519   C     0.24318   0.12941   0.50932   0.00000  Uiso   1.00
C520   C     0.19272   0.14303   0.58087   0.00000  Uiso   1.00
C521   C     0.09675   0.19988   0.94456   0.00000  Uiso   1.00
C522   C     0.10286   0.16385   0.50635   0.00000  Uiso   1.00
C523   C     0.14809   0.16646   0.98822   0.00000  Uiso   1.00
C524   C     0.16612   0.17913   0.94403   0.00000  Uiso   1.00
C525   C     0.17587   0.15540   0.51205   0.00000  Uiso   1.00
C526   C     0.21741   0.14592   0.98790   0.00000  Uiso   1.00
C527   C     0.23467   0.15787   0.94436   0.00000  Uiso   1.00
C528   C     0.21103   0.17873   0.92464   0.00000  Uiso   1.00
H529   H     0.25124   0.11546   0.57192   0.00000  Uiso   1.00
H530   H     0.31871   0.14204   0.79128   0.00000  Uiso   1.00
H531   H     0.20652   0.00356   0.71228   0.00000  Uiso   1.00
H532   H     0.26828   0.15550   0.92784   0.00000  Uiso   1.00
H533   H     0.27432   0.12047   0.99072   0.00000  Uiso   1.00
H534   H     0.09898   0.01753   0.81300   0.00000  Uiso   1.00
H535   H     0.13002   0.18345   0.61563   0.00000  Uiso   1.00
H536   H     0.04964   0.23116   0.94582   0.00000  Uiso   1.00
I537   I     0.06941   0.11698   0.55114   0.00000  Uiso   1.00
I538   I     0.01290   0.19170   0.52250   0.00000  Uiso   1.00
I539   I     0.24907   0.21731   0.87356   0.00000  Uiso   1.00
I540   I     0.03677   0.20924   0.68159   0.00000  Uiso   1.00
O541   O     0.16667   0.16667   0.75000   0.00000  Uiso   1.00
O542   O     0.15451   0.12637   0.65458   0.00000  Uiso   1.00
O543   O     0.12940   0.20391   0.84968   0.00000  Uiso   1.00
O544   O     0.20824   0.17759   0.64606   0.00000  Uiso   1.00
O545   O     0.17451   0.15880   0.84968   0.00000  Uiso   1.00
O546   O     0.11602   0.32831   0.79676   0.00000  Uiso   1.00
O547   O     0.13384   0.18284   0.58291   0.00000  Uiso   1.00
O548   O     0.07339   0.21902   0.92330   0.00000  Uiso   1.00
O549   O     0.17930   0.08019   0.78213   0.00000  Uiso   1.00
O550   O     0.14632   0.26085   0.77013   0.00000  Uiso   1.00
O551   O     0.07412   0.13291   0.73413   0.00000  Uiso   1.00
O552   O     0.26693   0.19272   0.71360   0.00000  Uiso   1.00
O553   O     0.07071   0.18878   0.78213   0.00000  Uiso   1.00
O554   O     0.25491   0.15226   0.77013   0.00000  Uiso   1.00
O555   O     0.13760   0.06944   0.73413   0.00000  Uiso   1.00
O556   O     0.20345   0.25620   0.71360   0.00000  Uiso   1.00
Zn557  Zn    0.19338   0.13994   0.78734   0.00000  Uiso   1.00
Zn558  Zn    0.13379   0.12458   0.71875   0.00000  Uiso   1.00
Zn559  Zn    0.21056   0.19775   0.70657   0.00000  Uiso   1.00
Zn560  Zn    0.12893   0.20439   0.78733   0.00000  Uiso   1.00
C561   C     0.38602   0.15964   0.76034   0.00000  Uiso   1.00
C562   C     0.49922   0.15887   0.55946   0.00000  Uiso   1.00
C563   C     0.56357   0.12693   0.55551   0.00000  Uiso   1.00
C564   C     0.61420   0.17386   0.73980   0.00000  Uiso   1.00
C565   C     0.47181   0.19085   0.92062   0.00000  Uiso   1.00
C566   C     0.66034   0.17648   0.73490   0.00000  Uiso   1.00
C567   C     0.34087   0.15814   0.76384   0.00000  Uiso   1.00
C568   C     0.51308   0.32246   0.73739   0.00000  Uiso   1.00
C569   C     0.48418   0.01218   0.76479   0.00000  Uiso   1.00
C570   C     0.48991   0.05606   0.75976   0.00000  Uiso   1.00
C571   C     0.50975   0.27794   0.74032   0.00000  Uiso   1.00
C572   C     0.41179   0.18533   0.98757   0.00000  Uiso   1.00
C573   C     0.51883   0.14830   0.62934   0.00000  Uiso   1.00
C574   C     0.48234   0.18542   0.87097   0.00000  Uiso   1.00
C575   C     0.57652   0.12941   0.50932   0.00000  Uiso   1.00
C576   C     0.52606   0.14303   0.58087   0.00000  Uiso   1.00
C577   C     0.43008   0.19988   0.94456   0.00000  Uiso   1.00
C578   C     0.43619   0.16385   0.50635   0.00000  Uiso   1.00
C579   C     0.48143   0.16646   0.98822   0.00000  Uiso   1.00
C580   C     0.49945   0.17913   0.94403   0.00000  Uiso   1.00
C581   C     0.50920   0.15540   0.51205   0.00000  Uiso   1.00
C582   C     0.55075   0.14592   0.98790   0.00000  Uiso   1.00
C583   C     0.56801   0.15787   0.94436   0.00000  Uiso   1.00
C584   C     0.54437   0.17873   0.92464   0.00000  Uiso   1.00
H585   H     0.58457   0.11546   0.57192   0.00000  Uiso   1.00
H586   H     0.65205   0.14204   0.79128   0.00000  Uiso   1.00
H587   H     0.53985   0.00356   0.71228   0.00000  Uiso   1.00
H588   H     0.60161   0.15550   0.92784   0.00000  Uiso   1.00
H589   H     0.60766   0.12047   0.99072   0.00000  Uiso   1.00
H590   H     0.43232   0.01753   0.81300   0.00000  Uiso   1.00
H591   H     0.46336   0.18345   0.61563   0.00000  Uiso   1.00
H592   H     0.38297   0.23116   0.94582   0.00000  Uiso   1.00
I593   I     0.40275   0.11698   0.55114   0.00000  Uiso   1.00
I594   I     0.34623   0.19170   0.52250   0.00000  Uiso   1.00
I595   I     0.58240   0.21731   0.87356   0.00000  Uiso   1.00
I596   I     0.37010   0.20924   0.68159   0.00000  Uiso   1.00
O597   O     0.50000   0.16667   0.75000   0.00000  Uiso   1.00
O598   O     0.48784   0.12637   0.65458   0.00000  Uiso   1.00
O599   O     0.46274   0.20391   0.84968   0.00000  Uiso   1.00
O600   O     0.54157   0.17759   0.64606   0.00000  Uiso   1.00
O601   O     0.50785   0.15880   0.84968   0.00000  Uiso   1.00
O602   O     0.44935   0.32831   0.79676   0.00000  Uiso   1.00
O603   O     0.46717   0.18284   0.58291   0.00000  Uiso   1.00
O604   O     0.40673   0.21902   0.92330   0.00000  Uiso   1.00
O605   O     0.51264   0.08019   0.78213   0.00000  Uiso   1.00
O606   O     0.47965   0.26085   0.77013   0.00000  Uiso   1.00
O607   O     0.40745   0.13291   0.73413   0.00000  Uiso   1.00
O608   O     0.60026   0.19272   0.71360   0.00000  Uiso   1.00
O609   O     0.40405   0.18878   0.78213   0.00000  Uiso   1.00
O610   O     0.58824   0.15226   0.77013   0.00000  Uiso   1.00
O611   O     0.47093   0.06944   0.73413   0.00000  Uiso   1.00
O612   O     0.53678   0.25620   0.71360   0.00000  Uiso   1.00
Zn613  Zn    0.52672   0.13994   0.78734   0.00000  Uiso   1.00
Zn614  Zn    0.46713   0.12458   0.71875   0.00000  Uiso   1.00
Zn615  Zn    0.54389   0.19775   0.70657   0.00000  Uiso   1.00
Zn616  Zn    0.46226   0.20439   0.78733   0.00000  Uiso   1.00
C617   C     0.71935   0.15964   0.76034   0.00000  Uiso   1.00
C618   C     0.83256   0.15887   0.55946   0.00000  Uiso   1.00
C619   C     0.89691   0.12693   0.55551   0.00000  Uiso   1.00
C620   C     0.94753   0.17386   0.73980   0.00000  Uiso   1.00
C621   C     0.80514   0.19085   0.92062   0.00000  Uiso   1.00
C622   C     0.99367   0.17648   0.73490   0.00000  Uiso   1.00
C623   C     0.67420   0.15814   0.76384   0.00000  Uiso   1.00
C624   C     0.84642   0.32246   0.73739   0.00000  Uiso   1.00
C625   C     0.81751   0.01218   0.76479   0.00000  Uiso   1.00
C626   C     0.82324   0.05606   0.75976   0.00000  Uiso   1.00
C627   C     0.84309   0.27794   0.74032   0.00000  Uiso   1.00
C628   C     0.74513   0.18533   0.98757   0.00000  Uiso   1.00
C629   C     0.85216   0.14830   0.62934   0.00000  Uiso   1.00
C630   C     0.81568   0.18542   0.87097   0.00000  Uiso   1.00
C631   C     0.90985   0.12941   0.50932   0.00000  Uiso   1.00
C632   C     0.85939   0.14303   0.58087   0.00000  Uiso   1.00
C633   C     0.76341   0.19988   0.94456   0.00000  Uiso   1.00
C634   C     0.76952   0.16385   0.50635   0.00000  Uiso   1.00
C635   C     0.81476   0.16646   0.98822   0.00000  Uiso   1.00
C636   C     0.83278   0.17913   0.94403   0.00000  Uiso   1.00
C637   C     0.84254   0.15540   0.51205   0.00000  Uiso   1.00
C638   C     0.88408   0.14592   0.98790   0.00000  Uiso   1.00
C639   C     0.90134   0.15787   0.94436   0.00000  Uiso   1.00
C640   C     0.87770   0.17873   0.92464   0.00000  Uiso   1.00
H641   H     0.91790   0.11546   0.57192   0.00000  Uiso   1.00
H642   H     0.98538   0.14204   0.79128   0.00000  Uiso   1.00
H643   H     0.87318   0.00356   0.71228   0.00000  Uiso   1.00
H644   H     0.93495   0.15550   0.92784   0.00000  Uiso   1.00
H645   H     0.94099   0.12047   0.99072   0.00000  Uiso   1.00
H646   H     0.76565   0.01753   0.81300   0.00000  Uiso   1.00
H647   H     0.79669   0.18345   0.61563   0.00000  Uiso   1.00
H648   H     0.71630   0.23116   0.94582   0.00000  Uiso   1.00
I649   I     0.73608   0.11698   0.55114   0.00000  Uiso   1.00
I650   I     0.67957   0.19170   0.52250   0.00000  Uiso   1.00
I651   I     0.91574   0.21731   0.87356   0.00000  Uiso   1.00
I652   I     0.70343   0.20924   0.68159   0.00000  Uiso   1.00
O653   O     0.83333   0.16667   0.75000   0.00000  Uiso   1.00
O654   O     0.82118   0.12637   0.65458   0.00000  Uiso   1.00
O655   O     0.79607   0.20391   0.84968   0.00000  Uiso   1.00
O656   O     0.87491   0.17759   0.64606   0.00000  Uiso   1.00
O657   O     0.84118   0.15880   0.84968   0.00000  Uiso   1.00
O658   O     0.78268   0.32831   0.79676   0.00000  Uiso   1.00
O659   O     0.80050   0.18284   0.58291   0.00000  Uiso   1.00
O660   O     0.74006   0.21902   0.92330   0.00000  Uiso   1.00
O661   O     0.84597   0.08019   0.78213   0.00000  Uiso   1.00
O662   O     0.81298   0.26085   0.77013   0.00000  Uiso   1.00
O663   O     0.74078   0.13291   0.73413   0.00000  Uiso   1.00
O664   O     0.93360   0.19272   0.71360   0.00000  Uiso   1.00
O665   O     0.73738   0.18878   0.78213   0.00000  Uiso   1.00
O666   O     0.92158   0.15226   0.77013   0.00000  Uiso   1.00
O667   O     0.80426   0.06944   0.73413   0.00000  Uiso   1.00
O668   O     0.87012   0.25620   0.71360   0.00000  Uiso   1.00
Zn669  Zn    0.86005   0.13994   0.78734   0.00000  Uiso   1.00
Zn670  Zn    0.80046   0.12458   0.71875   0.00000  Uiso   1.00
Zn671  Zn    0.87723   0.19775   0.70657   0.00000  Uiso   1.00
Zn672  Zn    0.79560   0.20439   0.78733   0.00000  Uiso   1.00
C673   C     0.05268   0.49298   0.76034   0.00000  Uiso   1.00
C674   C     0.16589   0.49221   0.55946   0.00000  Uiso   1.00
C675   C     0.23024   0.46026   0.55551   0.00000  Uiso   1.00
C676   C     0.28087   0.50719   0.73980   0.00000  Uiso   1.00
C677   C     0.13847   0.52419   0.92062   0.00000  Uiso   1.00
C678   C     0.32700   0.50982   0.73490   0.00000  Uiso   1.00
C679   C     0.00753   0.49147   0.76384   0.00000  Uiso   1.00
C680   C     0.17975   0.65579   0.73739   0.00000  Uiso   1.00
C681   C     0.15085   0.34552   0.76479   0.00000  Uiso   1.00
C682   C     0.15657   0.38939   0.75976   0.00000  Uiso   1.00
C683   C     0.17642   0.61127   0.74032   0.00000  Uiso   1.00
C684   C     0.07846   0.51866   0.98757   0.00000  Uiso   1.00
C685   C     0.18550   0.48163   0.62934   0.00000  Uiso   1.00
C686   C     0.14901   0.51875   0.87097   0.00000  Uiso   1.00
C687   C     0.24318   0.46274   0.50932   0.00000  Uiso   1.00
C688   C     0.19272   0.47636   0.58087   0.00000  Uiso   1.00
C689   C     0.09675   0.53321   0.94456   0.00000  Uiso   1.00
C690   C     0.10286   0.49718   0.50635   0.00000  Uiso   1.00
C691   C     0.14809   0.49979   0.98822   0.00000  Uiso   1.00
C692   C     0.16612   0.51246   0.94403   0.00000  Uiso   1.00
C693   C     0.17587   0.48874   0.51205   0.00000  Uiso   1.00
C694   C     0.21741   0.47925   0.98790   0.00000  Uiso   1.00
C695   C     0.23467   0.49120   0.94436   0.00000  Uiso   1.00
C696   C     0.21103   0.51206   0.92464   0.00000  Uiso   1.00
H697   H     0.25124   0.44879   0.57192   0.00000  Uiso   1.00
H698   H     0.31871   0.47537   0.79128   0.00000  Uiso   1.00
H699   H     0.20652   0.33690   0.71228   0.00000  Uiso   1.00
H700   H     0.26828   0.48883   0.92784   0.00000  Uiso   1.00
H701   H     0.27432   0.45380   0.99072   0.00000  Uiso   1.00
H702   H     0.09898   0.35087   0.81300   0.00000  Uiso   1.00
H703   H     0.13002   0.51678   0.61563   0.00000  Uiso   1.00
H704   H     0.04964   0.56449   0.94582   0.00000  Uiso   1.00
I705   I     0.06941   0.45031   0.55114   0.00000  Uiso   1.00
I706   I     0.01290   0.52503   0.52250   0.00000  Uiso   1.00
I707   I     0.24907   0.55064   0.87356   0.00000  Uiso   1.00
I708   I     0.03677   0.54258   0.68159   0.00000  Uiso   1.00
O709   O     0.16667   0.50000   0.75000   0.00000  Uiso   1.00
O710   O     0.15451   0.45970   0.65458   0.00000  Uiso   1.00
O711   O     0.12940   0.53724   0.84968   0.00000  Uiso   1.00
O712   O     0.20824   0.51092   0.64606   0.00000  Uiso   1.00
O713   O     0.17451   0.49213   0.84968   0.00000  Uiso   1.00
O714   O     0.11602   0.66165   0.79676   0.00000  Uiso   1.00
O715   O     0.13384   0.51618   0.58291   0.00000  Uiso   1.00
O716   O     0.07339   0.55236   0.92330   0.00000  Uiso   1.00
O717   O     0.17930   0.41352   0.78213   0.00000  Uiso   1.00
O718   O     0.14632   0.59418   0.77013   0.00000  Uiso   1.00
O719   O     0.07412   0.46625   0.73413   0.00000  Uiso   1.00
O720   O     0.26693   0.52605   0.71360   0.00000  Uiso   1.00
O721   O     0.07071   0.52211   0.78213   0.00000  Uiso   1.00
O722   O     0.25491   0.48559   0.77013   0.00000  Uiso   1.00
O723   O     0.13760   0.40277   0.73413   0.00000  Uiso   1.00
O724   O     0.20345   0.58953   0.71360   0.00000  Uiso   1.00
Zn725  Zn    0.19338   0.47327   0.78734   0.00000  Uiso   1.00
Zn726  Zn    0.13379   0.45791   0.71875   0.00000  Uiso   1.00
Zn727  Zn    0.21056   0.53109   0.70657   0.00000  Uiso   1.00
Zn728  Zn    0.12893   0.53773   0.78733   0.00000  Uiso   1.00
C729   C     0.38602   0.49298   0.76034   0.00000  Uiso   1.00
C730   C     0.49922   0.49221   0.55946   0.00000  Uiso   1.00
C731   C     0.56357   0.46026   0.55551   0.00000  Uiso   1.00
C732   C     0.61420   0.50719   0.73980   0.00000  Uiso   1.00
C733   C     0.47181   0.52419   0.92062   0.00000  Uiso   1.00
C734   C     0.66034   0.50982   0.73490   0.00000  Uiso   1.00
C735   C     0.34087   0.49147   0.76384   0.00000  Uiso   1.00
C736   C     0.51308   0.65579   0.73739   0.00000  Uiso   1.00
C737   C     0.48418   0.34552   0.76479   0.00000  Uiso   1.00
C738   C     0.48991   0.38939   0.75976   0.00000  Uiso   1.00
C739   C     0.50975   0.61127   0.74032   0.00000  Uiso   1.00
C740   C     0.41179   0.51866   0.98757   0.00000  Uiso   1.00
C741   C     0.51883   0.48163   0.62934   0.00000  Uiso   1.00
C742   C     0.48234   0.51875   0.87097   0.00000  Uiso   1.00
C743   C     0.57652   0.46274   0.50932   0.00000  Uiso   1.00
C744   C     0.52606   0.47636   0.58087   0.00000  Uiso   1.00
C745   C     0.43008   0.53321   0.94456   0.00000  Uiso   1.00
C746   C     0.43619   0.49718   0.50635   0.00000  Uiso   1.00
C747   C     0.48143   0.49979   0.98822   0.00000  Uiso   1.00
C748   C     0.49945   0.51246   0.94403   0.00000  Uiso   1.00
C749   C     0.50920   0.48874   0.51205   0.00000  Uiso   1.00
C750   C     0.55075   0.47925   0.98790   0.00000  Uiso   1.00
C751   C     0.56801   0.49120   0.94436   0.00000  Uiso   1.00
C752   C     0.54437   0.51206   0.92464   0.00000  Uiso   1.00
H753   H     0.58457   0.44879   0.57192   0.00000  Uiso   1.00
H754   H     0.65205   0.47537   0.79128   0.00000  Uiso   1.00
H755   H     0.53985   0.33690   0.71228   0.00000  Uiso   1.00
H756   H     0.60161   0.48883   0.92784   0.00000  Uiso   1.00
H757   H     0.60766   0.45380   0.99072   0.00000  Uiso   1.00
H758   H     0.43232   0.35087   0.81300   0.00000  Uiso   1.00
H759   H     0.46336   0.51678   0.61563   0.00000  Uiso   1.00
H760   H     0.38297   0.56449   0.94582   0.00000  Uiso   1.00
I761   I     0.40275   0.45031   0.55114   0.00000  Uiso   1.00
I762   I     0.34623   0.52503   0.52250   0.00000  Uiso   1.00
I763   I     0.58240   0.55064   0.87356   0.00000  Uiso   1.00
I764   I     0.37010   0.54258   0.68159   0.00000  Uiso   1.00
O765   O     0.50000   0.50000   0.75000   0.00000  Uiso   1.00
O766   O     0.48784   0.45970   0.65458   0.00000  Uiso   1.00
O767   O     0.46274   0.53724   0.84968   0.00000  Uiso   1.00
O768   O     0.54157   0.51092   0.64606   0.00000  Uiso   1.00
O769   O     0.50785   0.49213   0.84968   0.00000  Uiso   1.00
O770   O     0.44935   0.66165   0.79676   0.00000  Uiso   1.00
O771   O     0.46717   0.51618   0.58291   0.00000  Uiso   1.00
O772   O     0.40673   0.55236   0.92330   0.00000  Uiso   1.00
O773   O     0.51264   0.41352   0.78213   0.00000  Uiso   1.00
O774   O     0.47965   0.59418   0.77013   0.00000  Uiso   1.00
O775   O     0.40745   0.46625   0.73413   0.00000  Uiso   1.00
O776   O     0.60026   0.52605   0.71360   0.00000  Uiso   1.00
O777   O     0.40405   0.52211   0.78213   0.00000  Uiso   1.00
O778   O     0.58824   0.48559   0.77013   0.00000  Uiso   1.00
O779   O     0.47093   0.40277   0.73413   0.00000  Uiso   1.00
O780   O     0.53678   0.58953   0.71360   0.00000  Uiso   1.00
Zn781  Zn    0.52672   0.47327   0.78734   0.00000  Uiso   1.00
Zn782  Zn    0.46713   0.45791   0.71875   0.00000  Uiso   1.00
Zn783  Zn    0.54389   0.53109   0.70657   0.00000  Uiso   1.00
Zn784  Zn    0.46226   0.53773   0.78733   0.00000  Uiso   1.00
C785   C     0.71935   0.49298   0.76034   0.00000  Uiso   1.00
C786   C     0.83256   0.49221   0.55946   0.00000  Uiso   1.00
C787   C     0.89691   0.46026   0.55551   0.00000  Uiso   1.00
C788   C     0.94753   0.50719   0.73980   0.00000  Uiso   1.00
C789   C     0.80514   0.52419   0.92062   0.00000  Uiso   1.00
C790   C     0.99367   0.50982   0.73490   0.00000  Uiso   1.00
C791   C     0.67420   0.49147   0.76384   0.00000  Uiso   1.00
C792   C     0.84642   0.65579   0.73739   0.00000  Uiso   1.00
C793   C     0.81751   0.34552   0.76479   0.00000  Uiso   1.00
C794   C     0.82324   0.38939   0.75976   0.00000  Uiso   1.00
C795   C     0.84309   0.61127   0.74032   0.00000  Uiso   1.00
C796   C     0.74513   0.51866   0.98757   0.00000  Uiso   1.00
C797   C     0.85216   0.48163   0.62934   0.00000  Uiso   1.00
C798   C     0.81568   0.51875   0.87097   0.00000  Uiso   1.00
C799   C     0.90985   0.46274   0.50932   0.00000  Uiso   1.00
C800   C     0.85939   0.47636   0.58087   0.00000  Uiso   1.00
C801   C     0.76341   0.53321   0.94456   0.00000  Uiso   1.00
C802   C     0.76952   0.49718   0.50635   0.00000  Uiso   1.00
C803   C     0.81476   0.49979   0.98822   0.00000  Uiso   1.00
C804   C     0.83278   0.51246   0.94403   0.00000  Uiso   1.00
C805   C     0.84254   0.48874   0.51205   0.00000  Uiso   1.00
C806   C     0.88408   0.47925   0.98790   0.00000  Uiso   1.00
C807   C     0.90134   0.49120   0.94436   0.00000  Uiso   1.00
C808   C     0.87770   0.51206   0.92464   0.00000  Uiso   1.00
H809   H     0.91790   0.44879   0.57192   0.00000  Uiso   1.00
H810   H     0.98538   0.47537   0.79128   0.00000  Uiso   1.00
H811   H     0.87318   0.33690   0.71228   0.00000  Uiso   1.00
H812   H     0.93495   0.48883   0.92784   0.00000  Uiso   1.00
H813   H     0.94099   0.45380   0.99072   0.00000  Uiso   1.00
H814   H     0.76565   0.35087   0.81300   0.00000  Uiso   1.00
H815   H     0.79669   0.51678   0.61563   0.00000  Uiso   1.00
H816   H     0.71630   0.56449   0.94582   0.00000  Uiso   1.00
I817   I     0.73608   0.45031   0.55114   0.00000  Uiso   1.00
I818   I     0.67957   0.52503   0.52250   0.00000  Uiso   1.00
I819   I     0.91574   0.55064   0.87356   0.00000  Uiso   1.00
I820   I     0.70343   0.54258   0.68159   0.00000  Uiso   1.00
O821   O     0.83333   0.50000   0.75000   0.00000  Uiso   1.00
O822   O     0.82118   0.45970   0.65458   0.00000  Uiso   1.00
O823   O     0.79607   0.53724   0.84968   0.00000  Uiso   1.00
O824   O     0.87491   0.51092   0.64606   0.00000  Uiso   1.00
O825   O     0.84118   0.49213   0.84968   0.00000  Uiso   1.00
O826   O     0.78268   0.66165   0.79676   0.00000  Uiso   1.00
O827   O     0.80050   0.51618   0.58291   0.00000  Uiso   1.00
O828   O     0.74006   0.55236   0.92330   0.00000  Uiso   1.00
O829   O     0.84597   0.41352   0.78213   0.00000  Uiso   1.00
O830   O     0.81298   0.59418   0.77013   0.00000  Uiso   1.00
O831   O     0.74078   0.46625   0.73413   0.00000  Uiso   1.00
O832   O     0.93360   0.52605   0.71360   0.00000  Uiso   1.00
O833   O     0.73738   0.52211   0.78213   0.00000  Uiso   1.00
O834   O     0.92158   0.48559   0.77013   0.00000  Uiso   1.00
O835   O     0.80426   0.40277   0.73413   0.00000  Uiso   1.00
O836   O     0.87012   0.58953   0.71360   0.00000  Uiso   1.00
Zn837  Zn    0.86005   0.47327   0.78734   0.00000  Uiso   1.00
Zn838  Zn    0.80046   0.45791   0.71875   0.00000  Uiso   1.00
Zn839  Zn    0.87723   0.53109   0.70657   0.00000  Uiso   1.00
Zn840  Zn    0.79560   0.53773   0.78733   0.00000  Uiso   1.00
C841   C     0.05268   0.82631   0.76034   0.00000  Uiso   1.00
C842   C     0.16589   0.82554   0.55946   0.00000  Uiso   1.00
C843   C     0.23024   0.79360   0.55551   0.00000  Uiso   1.00
C844   C     0.28087   0.84052   0.73980   0.00000  Uiso   1.00
C845   C     0.13847   0.85752   0.92062   0.00000  Uiso   1.00
C846   C     0.32700   0.84315   0.73490   0.00000  Uiso   1.00
C847   C     0.00753   0.82481   0.76384   0.00000  Uiso   1.00
C848   C     0.17975   0.98912   0.73739   0.00000  Uiso   1.00
C849   C     0.15085   0.67885   0.76479   0.00000  Uiso   1.00
C850   C     0.15657   0.72273   0.75976   0.00000  Uiso   1.00
C851   C     0.17642   0.94460   0.74032   0.00000  Uiso   1.00
C852   C     0.07846   0.85199   0.98757   0.00000  Uiso   1.00
C853   C     0.18550   0.81496   0.62934   0.00000  Uiso   1.00
C854   C     0.14901   0.85209   0.87097   0.00000  Uiso   1.00
C855   C     0.24318   0.79607   0.50932   0.00000  Uiso   1.00
C856   C     0.19272   0.80970   0.58087   0.00000  Uiso   1.00
C857   C     0.09675   0.86655   0.94456   0.00000  Uiso   1.00
C858   C     0.10286   0.83052   0.50635   0.00000  Uiso   1.00
C859   C     0.14809   0.83312   0.98822   0.00000  Uiso   1.00
C860   C     0.16612   0.84580   0.94403   0.00000  Uiso   1.00
C861   C     0.17587   0.82207   0.51205   0.00000  Uiso   1.00
C862   C     0.21741   0.81259   0.98790   0.00000  Uiso   1.00
C863   C     0.23467   0.82454   0.94436   0.00000  Uiso   1.00
C864   C     0.21103   0.84540   0.92464   0.00000  Uiso   1.00
H865   H     0.25124   0.78213   0.57192   0.00000  Uiso   1.00
H866   H     0.31871   0.80871   0.79128   0.00000  Uiso   1.00
H867   H     0.20652   0.67023   0.71228   0.00000  Uiso   1.00
H868   H     0.26828   0.82217   0.92784   0.00000  Uiso   1.00
H869   H     0.27432   0.78714   0.99072   0.00000  Uiso   1.00
H870   H     0.09898   0.68420   0.81300   0.00000  Uiso   1.00
H871   H     0.13002   0.85011   0.61563   0.00000  Uiso   1.00
H872   H     0.04964   0.89782   0.94582   0.00000  Uiso   1.00
I873   I     0.06941   0.78364   0.55114   0.00000  Uiso   1.00
I874   I     0.01290   0.85836   0.52250   0.00000  Uiso   1.00
I875   I     0.24907   0.88397   0.87356   0.00000  Uiso   1.00
I876   I     0.03677   0.87591   0.68159   0.00000  Uiso   1.00
O877   O     0.16667   0.83333   0.75000   0.00000  Uiso   1.00
O878   O     0.15451   0.79304   0.65458   0.00000  Uiso   1.00
O879   O     0.12940   0.87058   0.84968   0.00000  Uiso   1.00
O880   O     0.20824   0.84425   0.64606   0.00000  Uiso   1.00
O881   O     0.17451   0.82546   0.84968   0.00000  Uiso   1.00
O882   O     0.11602   0.99498   0.79676   0.00000  Uiso   1.00
O883   O     0.13384   0.84951   0.58291   0.00000  Uiso   1.00
O884   O     0.07339   0.88569   0.92330   0.00000  Uiso   1.00
O885   O     0.17930   0.74686   0.78213   0.00000  Uiso   1.00
O886   O     0.14632   0.92751   0.77013   0.00000  Uiso   1.00
O887   O     0.07412   0.79958   0.73413   0.00000  Uiso   1.00
O888   O     0.26693   0.85939   0.71360   0.00000  Uiso   1.00
O889   O     0.07071   0.85544   0.78213   0.00000  Uiso   1.00
O890   O     0.25491   0.81892   0.77013   0.00000  Uiso   1.00
O891   O     0.13760   0.73610   0.73413   0.00000  Uiso   1.00
O892   O     0.20345   0.92286   0.71360   0.00000  Uiso   1.00
Zn893  Zn    0.19338   0.80661   0.78734   0.00000  Uiso   1.00
Zn894  Zn    0.13379   0.79124   0.71875   0.00000  Uiso   1.00
Zn895  Zn    0.21056   0.86442   0.70657   0.00000  Uiso   1.00
Zn896  Zn    0.12893   0.87106   0.78733   0.00000  Uiso   1.00
C897   C     0.38602   0.82631   0.76034   0.00000  Uiso   1.00
C898   C     0.49922   0.82554   0.55946   0.00000  Uiso   1.00
C899   C     0.56357   0.79360   0.55551   0.00000  Uiso   1.00
C900   C     0.61420   0.84052   0.73980   0.00000  Uiso   1.00
C901   C     0.47181   0.85752   0.92062   0.00000  Uiso   1.00
C902   C     0.66034   0.84315   0.73490   0.00000  Uiso   1.00
C903   C     0.34087   0.82481   0.76384   0.00000  Uiso   1.00
C904   C     0.51308   0.98912   0.73739   0.00000  Uiso   1.00
C905   C     0.48418   0.67885   0.76479   0.00000  Uiso   1.00
C906   C     0.48991   0.72273   0.75976   0.00000  Uiso   1.00
C907   C     0.50975   0.94460   0.74032   0.00000  Uiso   1.00
C908   C     0.41179   0.85199   0.98757   0.00000  Uiso   1.00
C909   C     0.51883   0.81496   0.62934   0.00000  Uiso   1.00
C910   C     0.48234   0.85209   0.87097   0.00000  Uiso   1.00
C911   C     0.57652   0.79607   0.50932   0.00000  Uiso   1.00
C912   C     0.52606   0.80970   0.58087   0.00000  Uiso   1.00
C913   C     0.43008   0.86655   0.94456   0.00000  Uiso   1.00
C914   C     0.43619   0.83052   0.50635   0.00000  Uiso   1.00
C915   C     0.48143   0.83312   0.98822   0.00000  Uiso   1.00
C916   C     0.49945   0.84580   0.94403   0.00000  Uiso   1.00
C917   C     0.50920   0.82207   0.51205   0.00000  Uiso   1.00
C918   C     0.55075   0.81259   0.98790   0.00000  Uiso   1.00
C919   C     0.56801   0.82454   0.94436   0.00000  Uiso   1.00
C920   C     0.54437   0.84540   0.92464   0.00000  Uiso   1.00
H921   H     0.58457   0.78213   0.57192   0.00000  Uiso   1.00
H922   H     0.65205   0.80871   0.79128   0.00000  Uiso   1.00
H923   H     0.53985   0.67023   0.71228   0.00000  Uiso   1.00
H924   H     0.60161   0.82217   0.92784   0.00000  Uiso   1.00
H925   H     0.60766   0.78714   0.99072   0.00000  Uiso   1.00
H926   H     0.43232   0.68420   0.81300   0.00000  Uiso   1.00
H927   H     0.46336   0.85011   0.61563   0.00000  Uiso   1.00
H928   H     0.38297   0.89782   0.94582   0.00000  Uiso   1.00
I929   I     0.40275   0.78364   0.55114   0.00000  Uiso   1.00
I930   I     0.34623   0.85836   0.52250   0.00000  Uiso   1.00
I931   I     0.58240   0.88397   0.87356   0.00000  Uiso   1.00
I932   I     0.37010   0.87591   0.68159   0.00000  Uiso   1.00
O933   O     0.50000   0.83333   0.75000   0.00000  Uiso   1.00
O934   O     0.48784   0.79304   0.65458   0.00000  Uiso   1.00
O935   O     0.46274   0.87058   0.84968   0.00000  Uiso   1.00
O936   O     0.54157   0.84425   0.64606   0.00000  Uiso   1.00
O937   O     0.50785   0.82546   0.84968   0.00000  Uiso   1.00
O938   O     0.44935   0.99498   0.79676   0.00000  Uiso   1.00
O939   O     0.46717   0.84951   0.58291   0.00000  Uiso   1.00
O940   O     0.40673   0.88569   0.92330   0.00000  Uiso   1.00
O941   O     0.51264   0.74686   0.78213   0.00000  Uiso   1.00
O942   O     0.47965   0.92751   0.77013   0.00000  Uiso   1.00
O943   O     0.40745   0.79958   0.73413   0.00000  Uiso   1.00
O944   O     0.60026   0.85939   0.71360   0.00000  Uiso   1.00
O945   O     0.40405   0.85544   0.78213   0.00000  Uiso   1.00
O946   O     0.58824   0.81892   0.77013   0.00000  Uiso   1.00
O947   O     0.47093   0.73610   0.73413   0.00000  Uiso   1.00
O948   O     0.53678   0.92286   0.71360   0.00000  Uiso   1.00
Zn949  Zn    0.52672   0.80661   0.78734   0.00000  Uiso   1.00
Zn950  Zn    0.46713   0.79124   0.71875   0.00000  Uiso   1.00
Zn951  Zn    0.54389   0.86442   0.70657   0.00000  Uiso   1.00
Zn952  Zn    0.46226   0.87106   0.78733   0.00000  Uiso   1.00
C953   C     0.71935   0.82631   0.76034   0.00000  Uiso   1.00
C954   C     0.83256   0.82554   0.55946   0.00000  Uiso   1.00
C955   C     0.89691   0.79360   0.55551   0.00000  Uiso   1.00
C956   C     0.94753   0.84052   0.73980   0.00000  Uiso   1.00
C957   C     0.80514   0.85752   0.92062   0.00000  Uiso   1.00
C958   C     0.99367   0.84315   0.73490   0.00000  Uiso   1.00
C959   C     0.67420   0.82481   0.76384   0.00000  Uiso   1.00
C960   C     0.84642   0.98912   0.73739   0.00000  Uiso   1.00
C961   C     0.81751   0.67885   0.76479   0.00000  Uiso   1.00
C962   C     0.82324   0.72273   0.75976   0.00000  Uiso   1.00
C963   C     0.84309   0.94460   0.74032   0.00000  Uiso   1.00
C964   C     0.74513   0.85199   0.98757   0.00000  Uiso   1.00
C965   C     0.85216   0.81496   0.62934   0.00000  Uiso   1.00
C966   C     0.81568   0.85209   0.87097   0.00000  Uiso   1.00
C967   C     0.90985   0.79607   0.50932   0.00000  Uiso   1.00
C968   C     0.85939   0.80970   0.58087   0.00000  Uiso   1.00
C969   C     0.76341   0.86655   0.94456   0.00000  Uiso   1.00
C970   C     0.76952   0.83052   0.50635   0.00000  Uiso   1.00
C971   C     0.81476   0.83312   0.98822   0.00000  Uiso   1.00
C972   C     0.83278   0.84580   0.94403   0.00000  Uiso   1.00
C973   C     0.84254   0.82207   0.51205   0.00000  Uiso   1.00
C974   C     0.88408   0.81259   0.98790   0.00000  Uiso   1.00
C975   C     0.90134   0.82454   0.94436   0.00000  Uiso   1.00
C976   C     0.87770   0.84540   0.92464   0.00000  Uiso   1.00
H977   H     0.91790   0.78213   0.57192   0.00000  Uiso   1.00
H978   H     0.98538   0.80871   0.79128   0.00000  Uiso   1.00
H979   H     0.87318   0.67023   0.71228   0.00000  Uiso   1.00
H980   H     0.93495   0.82217   0.92784   0.00000  Uiso   1.00
H981   H     0.94099   0.78714   0.99072   0.00000  Uiso   1.00
H982   H     0.76565   0.68420   0.81300   0.00000  Uiso   1.00
H983   H     0.79669   0.85011   0.61563   0.00000  Uiso   1.00
H984   H     0.71630   0.89782   0.94582   0.00000  Uiso   1.00
I985   I     0.73608   0.78364   0.55114   0.00000  Uiso   1.00
I986   I     0.67957   0.85836   0.52250   0.00000  Uiso   1.00
I987   I     0.91574   0.88397   0.87356   0.00000  Uiso   1.00
I988   I     0.70343   0.87591   0.68159   0.00000  Uiso   1.00
O989   O     0.83333   0.83333   0.75000   0.00000  Uiso   1.00
O990   O     0.82118   0.79304   0.65458   0.00000  Uiso   1.00
O991   O     0.79607   0.87058   0.84968   0.00000  Uiso   1.00
O992   O     0.87491   0.84425   0.64606   0.00000  Uiso   1.00
O993   O     0.84118   0.82546   0.84968   0.00000  Uiso   1.00
O994   O     0.78268   0.99498   0.79676   0.00000  Uiso   1.00
O995   O     0.80050   0.84951   0.58291   0.00000  Uiso   1.00
O996   O     0.74006   0.88569   0.92330   0.00000  Uiso   1.00
O997   O     0.84597   0.74686   0.78213   0.00000  Uiso   1.00
O998   O     0.81298   0.92751   0.77013   0.00000  Uiso   1.00
O999   O     0.74078   0.79958   0.73413   0.00000  Uiso   1.00
O1000  O     0.93360   0.85939   0.71360   0.00000  Uiso   1.00
O1001  O     0.73738   0.85544   0.78213   0.00000  Uiso   1.00
O1002  O     0.92158   0.81892   0.77013   0.00000  Uiso   1.00
O1003  O     0.80426   0.73610   0.73413   0.00000  Uiso   1.00
O1004  O     0.87012   0.92286   0.71360   0.00000  Uiso   1.00
Zn1005 Zn    0.86005   0.80661   0.78734   0.00000  Uiso   1.00
Zn1006 Zn    0.80046   0.79124   0.71875   0.00000  Uiso   1.00
Zn1007 Zn    0.87723   0.86442   0.70657   0.00000  Uiso   1.00
Zn1008 Zn    0.79560   0.87106   0.78733   0.00000  Uiso   1.00
loop_
_geom_bond_atom_site_label_1
_geom_bond_atom_site_label_2
_geom_bond_distance
_geom_bond_site_symmetry_2
_ccdc_geom_bond_type
C1     C7      1.438   .     S
C1     O47     1.271   .     A
C1     O49     1.269   .     A
C2     C16     1.414   .     A
C2     O43     1.387   .     S
C2     C21     1.413   .     A
C3     H25     1.084   .     S
C3     C15     1.389   .     A
C3     C16     1.398   .     A
C4     C6      1.458   .     S
C4     O48     1.282   .     A
C4     O50     1.282   .     A
C5     C20     1.416   .     A
C5     C17     1.414   .     A
C5     C14     1.480   .     S
C6     C63     1.339   .     S
C6     I92     2.134   .     S
C7     C118    1.339   1_455 S
C7     H138    1.086   1_455 S
C8     C11     1.453   .     S
C8     C177    1.341   .     S
C8     H195    1.088   .     S
C9     C10     1.438   .     S
C9     C344    1.341   1_545 S
C9     O378    1.384   1_545 S
C10    O45     1.278   .     A
C10    O51     1.277   .     A
C11    O46     1.262   .     A
C11    O52     1.271   .     A
C12    C17     1.412   .     A
C12    C522    1.404   .     S
C12    I538    2.142   .     S
C13    O38     1.277   .     A
C13    C16     1.452   .     S
C13    O40     1.273   .     A
C14    O41     1.289   .     A
C14    O39     1.281   .     A
C15    C526    1.398   1_554 S
C15    H533    1.084   1_554 S
C17    O44     1.382   .     S
C18    I33     2.154   .     S
C18    C516    1.404   1_554 S
C18    C523    1.419   1_554 S
C19    C20     1.421   .     A
C19    C522    1.419   .     S
C19    C525    1.420   .     S
C20    C24     1.423   .     A
C21    C523    1.420   1_554 S
C21    C526    1.415   1_554 S
C22    C23     1.392   .     A
C22    C519    1.398   .     S
C22    C525    1.415   .     S
C23    C24     1.391   .     A
C23    H28     1.084   .     S
C24    I35     2.138   .     S
H26    C63     1.086   .     S
H27    C344    1.088   1_545 S
H29    C519    1.084   .     S
H30    O378    0.992   1_545 S
H31    O43     0.987   .     S
H32    O44     0.987   .     S
I34    C516    2.142   1_554 S
I36    C118    2.134   1_455 S
O37    Zn55    1.932   .     S
O37    Zn53    1.966   .     S
O37    Zn54    1.950   .     S
O37    Zn56    1.925   .     S
O38    Zn54    1.926   .     S
O39    Zn56    1.942   .     S
O40    Zn55    1.935   .     S
O41    Zn53    1.921   .     S
O42    C177    1.384   .     S
O42    H198    0.992   .     S
O45    Zn53    1.936   .     S
O46    Zn56    1.939   .     S
O47    Zn54    1.922   .     S
O48    Zn55    1.938   .     S
O49    Zn56    1.934   .     S
O50    Zn53    1.921   .     S
O51    Zn54    1.944   .     S
O52    Zn55    1.935   .     S
C57    C63     1.438   .     S
C57    O103    1.271   .     A
C57    O105    1.269   .     A
C58    C72     1.414   .     A
C58    O99     1.387   .     S
C58    C77     1.413   .     A
C59    H81     1.084   .     S
C59    C71     1.389   .     A
C59    C72     1.398   .     A
C60    C62     1.458   .     S
C60    O104    1.282   .     A
C60    O106    1.282   .     A
C61    C76     1.416   .     A
C61    C73     1.414   .     A
C61    C70     1.480   .     S
C62    C119    1.339   .     S
C62    I148    2.134   .     S
C64    C67     1.453   .     S
C64    C233    1.341   .     S
C64    H251    1.088   .     S
C65    C66     1.438   .     S
C65    C400    1.341   1_545 S
C65    O434    1.384   1_545 S
C66    O101    1.278   .     A
C66    O107    1.277   .     A
C67    O102    1.262   .     A
C67    O108    1.271   .     A
C68    C73     1.412   .     A
C68    C578    1.404   .     S
C68    I594    2.142   .     S
C69    O94     1.277   .     A
C69    C72     1.452   .     S
C69    O96     1.273   .     A
C70    O97     1.289   .     A
C70    O95     1.281   .     A
C71    C582    1.398   1_554 S
C71    H589    1.084   1_554 S
C73    O100    1.382   .     S
C74    I89     2.154   .     S
C74    C572    1.404   1_554 S
C74    C579    1.419   1_554 S
C75    C76     1.421   .     A
C75    C578    1.419   .     S
C75    C581    1.420   .     S
C76    C80     1.423   .     A
C77    C579    1.420   1_554 S
C77    C582    1.415   1_554 S
C78    C79     1.392   .     A
C78    C575    1.398   .     S
C78    C581    1.415   .     S
C79    C80     1.391   .     A
C79    H84     1.084   .     S
C80    I91     2.138   .     S
H82    C119    1.086   .     S
H83    C400    1.088   1_545 S
H85    C575    1.084   .     S
H86    O434    0.992   1_545 S
H87    O99     0.987   .     S
H88    O100    0.987   .     S
I90    C572    2.142   1_554 S
O93    Zn111   1.932   .     S
O93    Zn109   1.966   .     S
O93    Zn110   1.950   .     S
O93    Zn112   1.925   .     S
O94    Zn110   1.926   .     S
O95    Zn112   1.942   .     S
O96    Zn111   1.935   .     S
O97    Zn109   1.921   .     S
O98    C233    1.384   .     S
O98    H254    0.992   .     S
O101   Zn109   1.936   .     S
O102   Zn112   1.939   .     S
O103   Zn110   1.922   .     S
O104   Zn111   1.938   .     S
O105   Zn112   1.934   .     S
O106   Zn109   1.921   .     S
O107   Zn110   1.944   .     S
O108   Zn111   1.935   .     S
C113   C119    1.438   .     S
C113   O159    1.271   .     A
C113   O161    1.269   .     A
C114   C128    1.414   .     A
C114   O155    1.387   .     S
C114   C133    1.413   .     A
C115   H137    1.084   .     S
C115   C127    1.389   .     A
C115   C128    1.398   .     A
C116   C118    1.458   .     S
C116   O160    1.282   .     A
C116   O162    1.282   .     A
C117   C132    1.416   .     A
C117   C129    1.414   .     A
C117   C126    1.480   .     S
C118   C7      1.339   1_655 S
C118   I36     2.134   1_655 S
C120   C123    1.453   .     S
C120   C289    1.341   .     S
C120   H307    1.088   .     S
C121   C122    1.438   .     S
C121   C456    1.341   1_545 S
C121   O490    1.384   1_545 S
C122   O157    1.278   .     A
C122   O163    1.277   .     A
C123   O158    1.262   .     A
C123   O164    1.271   .     A
C124   C129    1.412   .     A
C124   C634    1.404   .     S
C124   I650    2.142   .     S
C125   O150    1.277   .     A
C125   C128    1.452   .     S
C125   O152    1.273   .     A
C126   O153    1.289   .     A
C126   O151    1.281   .     A
C127   C638    1.398   1_554 S
C127   H645    1.084   1_554 S
C129   O156    1.382   .     S
C130   I145    2.154   .     S
C130   C628    1.404   1_554 S
C130   C635    1.419   1_554 S
C131   C132    1.421   .     A
C131   C634    1.419   .     S
C131   C637    1.420   .     S
C132   C136    1.423   .     A
C133   C635    1.420   1_554 S
C133   C638    1.415   1_554 S
C134   C135    1.392   .     A
C134   C631    1.398   .     S
C134   C637    1.415   .     S
C135   C136    1.391   .     A
C135   H140    1.084   .     S
C136   I147    2.138   .     S
H138   C7      1.086   1_655 S
H139   C456    1.088   1_545 S
H141   C631    1.084   .     S
H142   O490    0.992   1_545 S
H143   O155    0.987   .     S
H144   O156    0.987   .     S
I146   C628    2.142   1_554 S
O149   Zn167   1.932   .     S
O149   Zn165   1.966   .     S
O149   Zn166   1.950   .     S
O149   Zn168   1.925   .     S
O150   Zn166   1.926   .     S
O151   Zn168   1.942   .     S
O152   Zn167   1.935   .     S
O153   Zn165   1.921   .     S
O154   C289    1.384   .     S
O154   H310    0.992   .     S
O157   Zn165   1.936   .     S
O158   Zn168   1.939   .     S
O159   Zn166   1.922   .     S
O160   Zn167   1.938   .     S
O161   Zn168   1.934   .     S
O162   Zn165   1.921   .     S
O163   Zn166   1.944   .     S
O164   Zn167   1.935   .     S
C169   C175    1.438   .     S
C169   O215    1.271   .     A
C169   O217    1.269   .     A
C170   C184    1.414   .     A
C170   O211    1.387   .     S
C170   C189    1.413   .     A
C171   H193    1.084   .     S
C171   C183    1.389   .     A
C171   C184    1.398   .     A
C172   C174    1.458   .     S
C172   O216    1.282   .     A
C172   O218    1.282   .     A
C173   C188    1.416   .     A
C173   C185    1.414   .     A
C173   C182    1.480   .     S
C174   C231    1.339   .     S
C174   I260    2.134   .     S
C175   C286    1.339   1_455 S
C175   H306    1.086   1_455 S
C176   C179    1.453   .     S
C176   C345    1.341   .     S
C176   H363    1.088   .     S
C177   C178    1.438   .     S
C178   O213    1.278   .     A
C178   O219    1.277   .     A
C179   O214    1.262   .     A
C179   O220    1.271   .     A
C180   C185    1.412   .     A
C180   C690    1.404   .     S
C180   I706    2.142   .     S
C181   O206    1.277   .     A
C181   C184    1.452   .     S
C181   O208    1.273   .     A
C182   O209    1.289   .     A
C182   O207    1.281   .     A
C183   C694    1.398   1_554 S
C183   H701    1.084   1_554 S
C185   O212    1.382   .     S
C186   I201    2.154   .     S
C186   C684    1.404   1_554 S
C186   C691    1.419   1_554 S
C187   C188    1.421   .     A
C187   C690    1.419   .     S
C187   C693    1.420   .     S
C188   C192    1.423   .     A
C189   C691    1.420   1_554 S
C189   C694    1.415   1_554 S
C190   C191    1.392   .     A
C190   C687    1.398   .     S
C190   C693    1.415   .     S
C191   C192    1.391   .     A
C191   H196    1.084   .     S
C192   I203    2.138   .     S
H194   C231    1.086   .     S
H197   C687    1.084   .     S
H199   O211    0.987   .     S
H200   O212    0.987   .     S
I202   C684    2.142   1_554 S
I204   C286    2.134   1_455 S
O205   Zn223   1.932   .     S
O205   Zn221   1.966   .     S
O205   Zn222   1.950   .     S
O205   Zn224   1.925   .     S
O206   Zn222   1.926   .     S
O207   Zn224   1.942   .     S
O208   Zn223   1.935   .     S
O209   Zn221   1.921   .     S
O210   C345    1.384   .     S
O210   H366    0.992   .     S
O213   Zn221   1.936   .     S
O214   Zn224   1.939   .     S
O215   Zn222   1.922   .     S
O216   Zn223   1.938   .     S
O217   Zn224   1.934   .     S
O218   Zn221   1.921   .     S
O219   Zn222   1.944   .     S
O220   Zn223   1.935   .     S
C225   C231    1.438   .     S
C225   O271    1.271   .     A
C225   O273    1.269   .     A
C226   C240    1.414   .     A
C226   O267    1.387   .     S
C226   C245    1.413   .     A
C227   H249    1.084   .     S
C227   C239    1.389   .     A
C227   C240    1.398   .     A
C228   C230    1.458   .     S
C228   O272    1.282   .     A
C228   O274    1.282   .     A
C229   C244    1.416   .     A
C229   C241    1.414   .     A
C229   C238    1.480   .     S
C230   C287    1.339   .     S
C230   I316    2.134   .     S
C232   C235    1.453   .     S
C232   C401    1.341   .     S
C232   H419    1.088   .     S
C233   C234    1.438   .     S
C234   O269    1.278   .     A
C234   O275    1.277   .     A
C235   O270    1.262   .     A
C235   O276    1.271   .     A
C236   C241    1.412   .     A
C236   C746    1.404   .     S
C236   I762    2.142   .     S
C237   O262    1.277   .     A
C237   C240    1.452   .     S
C237   O264    1.273   .     A
C238   O265    1.289   .     A
C238   O263    1.281   .     A
C239   C750    1.398   1_554 S
C239   H757    1.084   1_554 S
C241   O268    1.382   .     S
C242   I257    2.154   .     S
C242   C740    1.404   1_554 S
C242   C747    1.419   1_554 S
C243   C244    1.421   .     A
C243   C746    1.419   .     S
C243   C749    1.420   .     S
C244   C248    1.423   .     A
C245   C747    1.420   1_554 S
C245   C750    1.415   1_554 S
C246   C247    1.392   .     A
C246   C743    1.398   .     S
C246   C749    1.415   .     S
C247   C248    1.391   .     A
C247   H252    1.084   .     S
C248   I259    2.138   .     S
H250   C287    1.086   .     S
H253   C743    1.084   .     S
H255   O267    0.987   .     S
H256   O268    0.987   .     S
I258   C740    2.142   1_554 S
O261   Zn279   1.932   .     S
O261   Zn277   1.966   .     S
O261   Zn278   1.950   .     S
O261   Zn280   1.925   .     S
O262   Zn278   1.926   .     S
O263   Zn280   1.942   .     S
O264   Zn279   1.935   .     S
O265   Zn277   1.921   .     S
O266   C401    1.384   .     S
O266   H422    0.992   .     S
O269   Zn277   1.936   .     S
O270   Zn280   1.939   .     S
O271   Zn278   1.922   .     S
O272   Zn279   1.938   .     S
O273   Zn280   1.934   .     S
O274   Zn277   1.921   .     S
O275   Zn278   1.944   .     S
O276   Zn279   1.935   .     S
C281   C287    1.438   .     S
C281   O327    1.271   .     A
C281   O329    1.269   .     A
C282   C296    1.414   .     A
C282   O323    1.387   .     S
C282   C301    1.413   .     A
C283   H305    1.084   .     S
C283   C295    1.389   .     A
C283   C296    1.398   .     A
C284   C286    1.458   .     S
C284   O328    1.282   .     A
C284   O330    1.282   .     A
C285   C300    1.416   .     A
C285   C297    1.414   .     A
C285   C294    1.480   .     S
C286   C175    1.339   1_655 S
C286   I204    2.134   1_655 S
C288   C291    1.453   .     S
C288   C457    1.341   .     S
C288   H475    1.088   .     S
C289   C290    1.438   .     S
C290   O325    1.278   .     A
C290   O331    1.277   .     A
C291   O326    1.262   .     A
C291   O332    1.271   .     A
C292   C297    1.412   .     A
C292   C802    1.404   .     S
C292   I818    2.142   .     S
C293   O318    1.277   .     A
C293   C296    1.452   .     S
C293   O320    1.273   .     A
C294   O321    1.289   .     A
C294   O319    1.281   .     A
C295   C806    1.398   1_554 S
C295   H813    1.084   1_554 S
C297   O324    1.382   .     S
C298   I313    2.154   .     S
C298   C796    1.404   1_554 S
C298   C803    1.419   1_554 S
C299   C300    1.421   .     A
C299   C802    1.419   .     S
C299   C805    1.420   .     S
C300   C304    1.423   .     A
C301   C803    1.420   1_554 S
C301   C806    1.415   1_554 S
C302   C303    1.392   .     A
C302   C799    1.398   .     S
C302   C805    1.415   .     S
C303   C304    1.391   .     A
C303   H308    1.084   .     S
C304   I315    2.138   .     S
H306   C175    1.086   1_655 S
H309   C799    1.084   .     S
H311   O323    0.987   .     S
H312   O324    0.987   .     S
I314   C796    2.142   1_554 S
O317   Zn335   1.932   .     S
O317   Zn333   1.966   .     S
O317   Zn334   1.950   .     S
O317   Zn336   1.925   .     S
O318   Zn334   1.926   .     S
O319   Zn336   1.942   .     S
O320   Zn335   1.935   .     S
O321   Zn333   1.921   .     S
O322   C457    1.384   .     S
O322   H478    0.992   .     S
O325   Zn333   1.936   .     S
O326   Zn336   1.939   .     S
O327   Zn334   1.922   .     S
O328   Zn335   1.938   .     S
O329   Zn336   1.934   .     S
O330   Zn333   1.921   .     S
O331   Zn334   1.944   .     S
O332   Zn335   1.935   .     S
C337   C343    1.438   .     S
C337   O383    1.271   .     A
C337   O385    1.269   .     A
C338   C352    1.414   .     A
C338   O379    1.387   .     S
C338   C357    1.413   .     A
C339   H361    1.084   .     S
C339   C351    1.389   .     A
C339   C352    1.398   .     A
C340   C342    1.458   .     S
C340   O384    1.282   .     A
C340   O386    1.282   .     A
C341   C356    1.416   .     A
C341   C353    1.414   .     A
C341   C350    1.480   .     S
C342   C399    1.339   .     S
C342   I428    2.134   .     S
C343   C454    1.339   1_455 S
C343   H474    1.086   1_455 S
C344   C347    1.453   .     S
C344   C9      1.341   1_565 S
C344   H27     1.088   1_565 S
C345   C346    1.438   .     S
C346   O381    1.278   .     A
C346   O387    1.277   .     A
C347   O382    1.262   .     A
C347   O388    1.271   .     A
C348   C353    1.412   .     A
C348   C858    1.404   .     S
C348   I874    2.142   .     S
C349   O374    1.277   .     A
C349   C352    1.452   .     S
C349   O376    1.273   .     A
C350   O377    1.289   .     A
C350   O375    1.281   .     A
C351   C862    1.398   1_554 S
C351   H869    1.084   1_554 S
C353   O380    1.382   .     S
C354   I369    2.154   .     S
C354   C852    1.404   1_554 S
C354   C859    1.419   1_554 S
C355   C356    1.421   .     A
C355   C858    1.419   .     S
C355   C861    1.420   .     S
C356   C360    1.423   .     A
C357   C859    1.420   1_554 S
C357   C862    1.415   1_554 S
C358   C359    1.392   .     A
C358   C855    1.398   .     S
C358   C861    1.415   .     S
C359   C360    1.391   .     A
C359   H364    1.084   .     S
C360   I371    2.138   .     S
H362   C399    1.086   .     S
H365   C855    1.084   .     S
H367   O379    0.987   .     S
H368   O380    0.987   .     S
I370   C852    2.142   1_554 S
I372   C454    2.134   1_455 S
O373   Zn391   1.932   .     S
O373   Zn389   1.966   .     S
O373   Zn390   1.950   .     S
O373   Zn392   1.925   .     S
O374   Zn390   1.926   .     S
O375   Zn392   1.942   .     S
O376   Zn391   1.935   .     S
O377   Zn389   1.921   .     S
O378   C9      1.384   1_565 S
O378   H30     0.992   1_565 S
O381   Zn389   1.936   .     S
O382   Zn392   1.939   .     S
O383   Zn390   1.922   .     S
O384   Zn391   1.938   .     S
O385   Zn392   1.934   .     S
O386   Zn389   1.921   .     S
O387   Zn390   1.944   .     S
O388   Zn391   1.935   .     S
C393   C399    1.438   .     S
C393   O439    1.271   .     A
C393   O441    1.269   .     A
C394   C408    1.414   .     A
C394   O435    1.387   .     S
C394   C413    1.413   .     A
C395   H417    1.084   .     S
C395   C407    1.389   .     A
C395   C408    1.398   .     A
C396   C398    1.458   .     S
C396   O440    1.282   .     A
C396   O442    1.282   .     A
C397   C412    1.416   .     A
C397   C409    1.414   .     A
C397   C406    1.480   .     S
C398   C455    1.339   .     S
C398   I484    2.134   .     S
C400   C403    1.453   .     S
C400   C65     1.341   1_565 S
C400   H83     1.088   1_565 S
C401   C402    1.438   .     S
C402   O437    1.278   .     A
C402   O443    1.277   .     A
C403   O438    1.262   .     A
C403   O444    1.271   .     A
C404   C409    1.412   .     A
C404   C914    1.404   .     S
C404   I930    2.142   .     S
C405   O430    1.277   .     A
C405   C408    1.452   .     S
C405   O432    1.273   .     A
C406   O433    1.289   .     A
C406   O431    1.281   .     A
C407   C918    1.398   1_554 S
C407   H925    1.084   1_554 S
C409   O436    1.382   .     S
C410   I425    2.154   .     S
C410   C908    1.404   1_554 S
C410   C915    1.419   1_554 S
C411   C412    1.421   .     A
C411   C914    1.419   .     S
C411   C917    1.420   .     S
C412   C416    1.423   .     A
C413   C915    1.420   1_554 S
C413   C918    1.415   1_554 S
C414   C415    1.392   .     A
C414   C911    1.398   .     S
C414   C917    1.415   .     S
C415   C416    1.391   .     A
C415   H420    1.084   .     S
C416   I427    2.138   .     S
H418   C455    1.086   .     S
H421   C911    1.084   .     S
H423   O435    0.987   .     S
H424   O436    0.987   .     S
I426   C908    2.142   1_554 S
O429   Zn447   1.932   .     S
O429   Zn445   1.966   .     S
O429   Zn446   1.950   .     S
O429   Zn448   1.925   .     S
O430   Zn446   1.926   .     S
O431   Zn448   1.942   .     S
O432   Zn447   1.935   .     S
O433   Zn445   1.921   .     S
O434   C65     1.384   1_565 S
O434   H86     0.992   1_565 S
O437   Zn445   1.936   .     S
O438   Zn448   1.939   .     S
O439   Zn446   1.922   .     S
O440   Zn447   1.938   .     S
O441   Zn448   1.934   .     S
O442   Zn445   1.921   .     S
O443   Zn446   1.944   .     S
O444   Zn447   1.935   .     S
C449   C455    1.438   .     S
C449   O495    1.271   .     A
C449   O497    1.269   .     A
C450   C464    1.414   .     A
C450   O491    1.387   .     S
C450   C469    1.413   .     A
C451   H473    1.084   .     S
C451   C463    1.389   .     A
C451   C464    1.398   .     A
C452   C454    1.458   .     S
C452   O496    1.282   .     A
C452   O498    1.282   .     A
C453   C468    1.416   .     A
C453   C465    1.414   .     A
C453   C462    1.480   .     S
C454   C343    1.339   1_655 S
C454   I372    2.134   1_655 S
C456   C459    1.453   .     S
C456   C121    1.341   1_565 S
C456   H139    1.088   1_565 S
C457   C458    1.438   .     S
C458   O493    1.278   .     A
C458   O499    1.277   .     A
C459   O494    1.262   .     A
C459   O500    1.271   .     A
C460   C465    1.412   .     A
C460   C970    1.404   .     S
C460   I986    2.142   .     S
C461   O486    1.277   .     A
C461   C464    1.452   .     S
C461   O488    1.273   .     A
C462   O489    1.289   .     A
C462   O487    1.281   .     A
C463   C974    1.398   1_554 S
C463   H981    1.084   1_554 S
C465   O492    1.382   .     S
C466   I481    2.154   .     S
C466   C964    1.404   1_554 S
C466   C971    1.419   1_554 S
C467   C468    1.421   .     A
C467   C970    1.419   .     S
C467   C973    1.420   .     S
C468   C472    1.423   .     A
C469   C971    1.420   1_554 S
C469   C974    1.415   1_554 S
C470   C471    1.392   .     A
C470   C967    1.398   .     S
C470   C973    1.415   .     S
C471   C472    1.391   .     A
C471   H476    1.084   .     S
C472   I483    2.138   .     S
H474   C343    1.086   1_655 S
H477   C967    1.084   .     S
H479   O491    0.987   .     S
H480   O492    0.987   .     S
I482   C964    2.142   1_554 S
O485   Zn503   1.932   .     S
O485   Zn501   1.966   .     S
O485   Zn502   1.950   .     S
O485   Zn504   1.925   .     S
O486   Zn502   1.926   .     S
O487   Zn504   1.942   .     S
O488   Zn503   1.935   .     S
O489   Zn501   1.921   .     S
O490   C121    1.384   1_565 S
O490   H142    0.992   1_565 S
O493   Zn501   1.936   .     S
O494   Zn504   1.939   .     S
O495   Zn502   1.922   .     S
O496   Zn503   1.938   .     S
O497   Zn504   1.934   .     S
O498   Zn501   1.921   .     S
O499   Zn502   1.944   .     S
O500   Zn503   1.935   .     S
C505   C511    1.438   .     S
C505   O551    1.271   .     A
C505   O553    1.269   .     A
C506   C520    1.414   .     A
C506   O547    1.387   .     S
C506   C525    1.413   .     A
C507   H529    1.084   .     S
C507   C519    1.389   .     A
C507   C520    1.398   .     A
C508   C510    1.458   .     S
C508   O552    1.282   .     A
C508   O554    1.282   .     A
C509   C524    1.416   .     A
C509   C521    1.414   .     A
C509   C518    1.480   .     S
C510   C567    1.339   .     S
C510   I596    2.134   .     S
C511   C622    1.339   1_455 S
C511   H642    1.086   1_455 S
C512   C515    1.453   .     S
C512   C681    1.341   .     S
C512   H699    1.088   .     S
C513   C514    1.438   .     S
C513   C848    1.341   1_545 S
C513   O882    1.384   1_545 S
C514   O549    1.278   .     A
C514   O555    1.277   .     A
C515   O550    1.262   .     A
C515   O556    1.271   .     A
C516   C521    1.412   .     A
C516   C18     1.404   1_556 S
C516   I34     2.142   1_556 S
C517   O542    1.277   .     A
C517   C520    1.452   .     S
C517   O544    1.273   .     A
C518   O545    1.289   .     A
C518   O543    1.281   .     A
C521   O548    1.382   .     S
C522   I537    2.154   .     S
C523   C524    1.421   .     A
C523   C18     1.419   1_556 S
C523   C21     1.420   1_556 S
C524   C528    1.423   .     A
C526   C527    1.392   .     A
C526   C15     1.398   1_556 S
C526   C21     1.415   1_556 S
C527   C528    1.391   .     A
C527   H532    1.084   .     S
C528   I539    2.138   .     S
H530   C567    1.086   .     S
H531   C848    1.088   1_545 S
H533   C15     1.084   1_556 S
H534   O882    0.992   1_545 S
H535   O547    0.987   .     S
H536   O548    0.987   .     S
I540   C622    2.134   1_455 S
O541   Zn559   1.932   .     S
O541   Zn557   1.966   .     S
O541   Zn558   1.950   .     S
O541   Zn560   1.925   .     S
O542   Zn558   1.926   .     S
O543   Zn560   1.942   .     S
O544   Zn559   1.935   .     S
O545   Zn557   1.921   .     S
O546   C681    1.384   .     S
O546   H702    0.992   .     S
O549   Zn557   1.936   .     S
O550   Zn560   1.939   .     S
O551   Zn558   1.922   .     S
O552   Zn559   1.938   .     S
O553   Zn560   1.934   .     S
O554   Zn557   1.921   .     S
O555   Zn558   1.944   .     S
O556   Zn559   1.935   .     S
C561   C567    1.438   .     S
C561   O607    1.271   .     A
C561   O609    1.269   .     A
C562   C576    1.414   .     A
C562   O603    1.387   .     S
C562   C581    1.413   .     A
C563   H585    1.084   .     S
C563   C575    1.389   .     A
C563   C576    1.398   .     A
C564   C566    1.458   .     S
C564   O608    1.282   .     A
C564   O610    1.282   .     A
C565   C580    1.416   .     A
C565   C577    1.414   .     A
C565   C574    1.480   .     S
C566   C623    1.339   .     S
C566   I652    2.134   .     S
C568   C571    1.453   .     S
C568   C737    1.341   .     S
C568   H755    1.088   .     S
C569   C570    1.438   .     S
C569   C904    1.341   1_545 S
C569   O938    1.384   1_545 S
C570   O605    1.278   .     A
C570   O611    1.277   .     A
C571   O606    1.262   .     A
C571   O612    1.271   .     A
C572   C577    1.412   .     A
C572   C74     1.404   1_556 S
C572   I90     2.142   1_556 S
C573   O598    1.277   .     A
C573   C576    1.452   .     S
C573   O600    1.273   .     A
C574   O601    1.289   .     A
C574   O599    1.281   .     A
C577   O604    1.382   .     S
C578   I593    2.154   .     S
C579   C580    1.421   .     A
C579   C74     1.419   1_556 S
C579   C77     1.420   1_556 S
C580   C584    1.423   .     A
C582   C583    1.392   .     A
C582   C71     1.398   1_556 S
C582   C77     1.415   1_556 S
C583   C584    1.391   .     A
C583   H588    1.084   .     S
C584   I595    2.138   .     S
H586   C623    1.086   .     S
H587   C904    1.088   1_545 S
H589   C71     1.084   1_556 S
H590   O938    0.992   1_545 S
H591   O603    0.987   .     S
H592   O604    0.987   .     S
O597   Zn615   1.932   .     S
O597   Zn613   1.966   .     S
O597   Zn614   1.950   .     S
O597   Zn616   1.925   .     S
O598   Zn614   1.926   .     S
O599   Zn616   1.942   .     S
O600   Zn615   1.935   .     S
O601   Zn613   1.921   .     S
O602   C737    1.384   .     S
O602   H758    0.992   .     S
O605   Zn613   1.936   .     S
O606   Zn616   1.939   .     S
O607   Zn614   1.922   .     S
O608   Zn615   1.938   .     S
O609   Zn616   1.934   .     S
O610   Zn613   1.921   .     S
O611   Zn614   1.944   .     S
O612   Zn615   1.935   .     S
C617   C623    1.438   .     S
C617   O663    1.271   .     A
C617   O665    1.269   .     A
C618   C632    1.414   .     A
C618   O659    1.387   .     S
C618   C637    1.413   .     A
C619   H641    1.084   .     S
C619   C631    1.389   .     A
C619   C632    1.398   .     A
C620   C622    1.458   .     S
C620   O664    1.282   .     A
C620   O666    1.282   .     A
C621   C636    1.416   .     A
C621   C633    1.414   .     A
C621   C630    1.480   .     S
C622   C511    1.339   1_655 S
C622   I540    2.134   1_655 S
C624   C627    1.453   .     S
C624   C793    1.341   .     S
C624   H811    1.088   .     S
C625   C626    1.438   .     S
C625   C960    1.341   1_545 S
C625   O994    1.384   1_545 S
C626   O661    1.278   .     A
C626   O667    1.277   .     A
C627   O662    1.262   .     A
C627   O668    1.271   .     A
C628   C633    1.412   .     A
C628   C130    1.404   1_556 S
C628   I146    2.142   1_556 S
C629   O654    1.277   .     A
C629   C632    1.452   .     S
C629   O656    1.273   .     A
C630   O657    1.289   .     A
C630   O655    1.281   .     A
C633   O660    1.382   .     S
C634   I649    2.154   .     S
C635   C636    1.421   .     A
C635   C130    1.419   1_556 S
C635   C133    1.420   1_556 S
C636   C640    1.423   .     A
C638   C639    1.392   .     A
C638   C127    1.398   1_556 S
C638   C133    1.415   1_556 S
C639   C640    1.391   .     A
C639   H644    1.084   .     S
C640   I651    2.138   .     S
H642   C511    1.086   1_655 S
H643   C960    1.088   1_545 S
H645   C127    1.084   1_556 S
H646   O994    0.992   1_545 S
H647   O659    0.987   .     S
H648   O660    0.987   .     S
O653   Zn671   1.932   .     S
O653   Zn669   1.966   .     S
O653   Zn670   1.950   .     S
O653   Zn672   1.925   .     S
O654   Zn670   1.926   .     S
O655   Zn672   1.942   .     S
O656   Zn671   1.935   .     S
O657   Zn669   1.921   .     S
O658   C793    1.384   .     S
O658   H814    0.992   .     S
O661   Zn669   1.936   .     S
O662   Zn672   1.939   .     S
O663   Zn670   1.922   .     S
O664   Zn671   1.938   .     S
O665   Zn672   1.934   .     S
O666   Zn669   1.921   .     S
O667   Zn670   1.944   .     S
O668   Zn671   1.935   .     S
C673   C679    1.438   .     S
C673   O719    1.271   .     A
C673   O721    1.269   .     A
C674   C688    1.414   .     A
C674   O715    1.387   .     S
C674   C693    1.413   .     A
C675   H697    1.084   .     S
C675   C687    1.389   .     A
C675   C688    1.398   .     A
C676   C678    1.458   .     S
C676   O720    1.282   .     A
C676   O722    1.282   .     A
C677   C692    1.416   .     A
C677   C689    1.414   .     A
C677   C686    1.480   .     S
C678   C735    1.339   .     S
C678   I764    2.134   .     S
C679   C790    1.339   1_455 S
C679   H810    1.086   1_455 S
C680   C683    1.453   .     S
C680   C849    1.341   .     S
C680   H867    1.088   .     S
C681   C682    1.438   .     S
C682   O717    1.278   .     A
C682   O723    1.277   .     A
C683   O718    1.262   .     A
C683   O724    1.271   .     A
C684   C689    1.412   .     A
C684   C186    1.404   1_556 S
C684   I202    2.142   1_556 S
C685   O710    1.277   .     A
C685   C688    1.452   .     S
C685   O712    1.273   .     A
C686   O713    1.289   .     A
C686   O711    1.281   .     A
C689   O716    1.382   .     S
C690   I705    2.154   .     S
C691   C692    1.421   .     A
C691   C186    1.419   1_556 S
C691   C189    1.420   1_556 S
C692   C696    1.423   .     A
C694   C695    1.392   .     A
C694   C183    1.398   1_556 S
C694   C189    1.415   1_556 S
C695   C696    1.391   .     A
C695   H700    1.084   .     S
C696   I707    2.138   .     S
H698   C735    1.086   .     S
H701   C183    1.084   1_556 S
H703   O715    0.987   .     S
H704   O716    0.987   .     S
I708   C790    2.134   1_455 S
O709   Zn727   1.932   .     S
O709   Zn725   1.966   .     S
O709   Zn726   1.950   .     S
O709   Zn728   1.925   .     S
O710   Zn726   1.926   .     S
O711   Zn728   1.942   .     S
O712   Zn727   1.935   .     S
O713   Zn725   1.921   .     S
O714   C849    1.384   .     S
O714   H870    0.992   .     S
O717   Zn725   1.936   .     S
O718   Zn728   1.939   .     S
O719   Zn726   1.922   .     S
O720   Zn727   1.938   .     S
O721   Zn728   1.934   .     S
O722   Zn725   1.921   .     S
O723   Zn726   1.944   .     S
O724   Zn727   1.935   .     S
C729   C735    1.438   .     S
C729   O775    1.271   .     A
C729   O777    1.269   .     A
C730   C744    1.414   .     A
C730   O771    1.387   .     S
C730   C749    1.413   .     A
C731   H753    1.084   .     S
C731   C743    1.389   .     A
C731   C744    1.398   .     A
C732   C734    1.458   .     S
C732   O776    1.282   .     A
C732   O778    1.282   .     A
C733   C748    1.416   .     A
C733   C745    1.414   .     A
C733   C742    1.480   .     S
C734   C791    1.339   .     S
C734   I820    2.134   .     S
C736   C739    1.453   .     S
C736   C905    1.341   .     S
C736   H923    1.088   .     S
C737   C738    1.438   .     S
C738   O773    1.278   .     A
C738   O779    1.277   .     A
C739   O774    1.262   .     A
C739   O780    1.271   .     A
C740   C745    1.412   .     A
C740   C242    1.404   1_556 S
C740   I258    2.142   1_556 S
C741   O766    1.277   .     A
C741   C744    1.452   .     S
C741   O768    1.273   .     A
C742   O769    1.289   .     A
C742   O767    1.281   .     A
C745   O772    1.382   .     S
C746   I761    2.154   .     S
C747   C748    1.421   .     A
C747   C242    1.419   1_556 S
C747   C245    1.420   1_556 S
C748   C752    1.423   .     A
C750   C751    1.392   .     A
C750   C239    1.398   1_556 S
C750   C245    1.415   1_556 S
C751   C752    1.391   .     A
C751   H756    1.084   .     S
C752   I763    2.138   .     S
H754   C791    1.086   .     S
H757   C239    1.084   1_556 S
H759   O771    0.987   .     S
H760   O772    0.987   .     S
O765   Zn783   1.932   .     S
O765   Zn781   1.966   .     S
O765   Zn782   1.950   .     S
O765   Zn784   1.925   .     S
O766   Zn782   1.926   .     S
O767   Zn784   1.942   .     S
O768   Zn783   1.935   .     S
O769   Zn781   1.921   .     S
O770   C905    1.384   .     S
O770   H926    0.992   .     S
O773   Zn781   1.936   .     S
O774   Zn784   1.939   .     S
O775   Zn782   1.922   .     S
O776   Zn783   1.938   .     S
O777   Zn784   1.934   .     S
O778   Zn781   1.921   .     S
O779   Zn782   1.944   .     S
O780   Zn783   1.935   .     S
C785   C791    1.438   .     S
C785   O831    1.271   .     A
C785   O833    1.269   .     A
C786   C800    1.414   .     A
C786   O827    1.387   .     S
C786   C805    1.413   .     A
C787   H809    1.084   .     S
C787   C799    1.389   .     A
C787   C800    1.398   .     A
C788   C790    1.458   .     S
C788   O832    1.282   .     A
C788   O834    1.282   .     A
C789   C804    1.416   .     A
C789   C801    1.414   .     A
C789   C798    1.480   .     S
C790   C679    1.339   1_655 S
C790   I708    2.134   1_655 S
C792   C795    1.453   .     S
C792   C961    1.341   .     S
C792   H979    1.088   .     S
C793   C794    1.438   .     S
C794   O829    1.278   .     A
C794   O835    1.277   .     A
C795   O830    1.262   .     A
C795   O836    1.271   .     A
C796   C801    1.412   .     A
C796   C298    1.404   1_556 S
C796   I314    2.142   1_556 S
C797   O822    1.277   .     A
C797   C800    1.452   .     S
C797   O824    1.273   .     A
C798   O825    1.289   .     A
C798   O823    1.281   .     A
C801   O828    1.382   .     S
C802   I817    2.154   .     S
C803   C804    1.421   .     A
C803   C298    1.419   1_556 S
C803   C301    1.420   1_556 S
C804   C808    1.423   .     A
C806   C807    1.392   .     A
C806   C295    1.398   1_556 S
C806   C301    1.415   1_556 S
C807   C808    1.391   .     A
C807   H812    1.084   .     S
C808   I819    2.138   .     S
H810   C679    1.086   1_655 S
H813   C295    1.084   1_556 S
H815   O827    0.987   .     S
H816   O828    0.987   .     S
O821   Zn839   1.932   .     S
O821   Zn837   1.966   .     S
O821   Zn838   1.950   .     S
O821   Zn840   1.925   .     S
O822   Zn838   1.926   .     S
O823   Zn840   1.942   .     S
O824   Zn839   1.935   .     S
O825   Zn837   1.921   .     S
O826   C961    1.384   .     S
O826   H982    0.992   .     S
O829   Zn837   1.936   .     S
O830   Zn840   1.939   .     S
O831   Zn838   1.922   .     S
O832   Zn839   1.938   .     S
O833   Zn840   1.934   .     S
O834   Zn837   1.921   .     S
O835   Zn838   1.944   .     S
O836   Zn839   1.935   .     S
C841   C847    1.438   .     S
C841   O887    1.271   .     A
C841   O889    1.269   .     A
C842   C856    1.414   .     A
C842   O883    1.387   .     S
C842   C861    1.413   .     A
C843   H865    1.084   .     S
C843   C855    1.389   .     A
C843   C856    1.398   .     A
C844   C846    1.458   .     S
C844   O888    1.282   .     A
C844   O890    1.282   .     A
C845   C860    1.416   .     A
C845   C857    1.414   .     A
C845   C854    1.480   .     S
C846   C903    1.339   .     S
C846   I932    2.134   .     S
C847   C958    1.339   1_455 S
C847   H978    1.086   1_455 S
C848   C851    1.453   .     S
C848   C513    1.341   1_565 S
C848   H531    1.088   1_565 S
C849   C850    1.438   .     S
C850   O885    1.278   .     A
C850   O891    1.277   .     A
C851   O886    1.262   .     A
C851   O892    1.271   .     A
C852   C857    1.412   .     A
C852   C354    1.404   1_556 S
C852   I370    2.142   1_556 S
C853   O878    1.277   .     A
C853   C856    1.452   .     S
C853   O880    1.273   .     A
C854   O881    1.289   .     A
C854   O879    1.281   .     A
C857   O884    1.382   .     S
C858   I873    2.154   .     S
C859   C860    1.421   .     A
C859   C354    1.419   1_556 S
C859   C357    1.420   1_556 S
C860   C864    1.423   .     A
C862   C863    1.392   .     A
C862   C351    1.398   1_556 S
C862   C357    1.415   1_556 S
C863   C864    1.391   .     A
C863   H868    1.084   .     S
C864   I875    2.138   .     S
H866   C903    1.086   .     S
H869   C351    1.084   1_556 S
H871   O883    0.987   .     S
H872   O884    0.987   .     S
I876   C958    2.134   1_455 S
O877   Zn895   1.932   .     S
O877   Zn893   1.966   .     S
O877   Zn894   1.950   .     S
O877   Zn896   1.925   .     S
O878   Zn894   1.926   .     S
O879   Zn896   1.942   .     S
O880   Zn895   1.935   .     S
O881   Zn893   1.921   .     S
O882   C513    1.384   1_565 S
O882   H534    0.992   1_565 S
O885   Zn893   1.936   .     S
O886   Zn896   1.939   .     S
O887   Zn894   1.922   .     S
O888   Zn895   1.938   .     S
O889   Zn896   1.934   .     S
O890   Zn893   1.921   .     S
O891   Zn894   1.944   .     S
O892   Zn895   1.935   .     S
C897   C903    1.438   .     S
C897   O943    1.271   .     A
C897   O945    1.269   .     A
C898   C912    1.414   .     A
C898   O939    1.387   .     S
C898   C917    1.413   .     A
C899   H921    1.084   .     S
C899   C911    1.389   .     A
C899   C912    1.398   .     A
C900   C902    1.458   .     S
C900   O944    1.282   .     A
C900   O946    1.282   .     A
C901   C916    1.416   .     A
C901   C913    1.414   .     A
C901   C910    1.480   .     S
C902   C959    1.339   .     S
C902   I988    2.134   .     S
C904   C907    1.453   .     S
C904   C569    1.341   1_565 S
C904   H587    1.088   1_565 S
C905   C906    1.438   .     S
C906   O941    1.278   .     A
C906   O947    1.277   .     A
C907   O942    1.262   .     A
C907   O948    1.271   .     A
C908   C913    1.412   .     A
C908   C410    1.404   1_556 S
C908   I426    2.142   1_556 S
C909   O934    1.277   .     A
C909   C912    1.452   .     S
C909   O936    1.273   .     A
C910   O937    1.289   .     A
C910   O935    1.281   .     A
C913   O940    1.382   .     S
C914   I929    2.154   .     S
C915   C916    1.421   .     A
C915   C410    1.419   1_556 S
C915   C413    1.420   1_556 S
C916   C920    1.423   .     A
C918   C919    1.392   .     A
C918   C407    1.398   1_556 S
C918   C413    1.415   1_556 S
C919   C920    1.391   .     A
C919   H924    1.084   .     S
C920   I931    2.138   .     S
H922   C959    1.086   .     S
H925   C407    1.084   1_556 S
H927   O939    0.987   .     S
H928   O940    0.987   .     S
O933   Zn951   1.932   .     S
O933   Zn949   1.966   .     S
O933   Zn950   1.950   .     S
O933   Zn952   1.925   .     S
O934   Zn950   1.926   .     S
O935   Zn952   1.942   .     S
O936   Zn951   1.935   .     S
O937   Zn949   1.921   .     S
O938   C569    1.384   1_565 S
O938   H590    0.992   1_565 S
O941   Zn949   1.936   .     S
O942   Zn952   1.939   .     S
O943   Zn950   1.922   .     S
O944   Zn951   1.938   .     S
O945   Zn952   1.934   .     S
O946   Zn949   1.921   .     S
O947   Zn950   1.944   .     S
O948   Zn951   1.935   .     S
C953   C959    1.438   .     S
C953   O999    1.271   .     A
C953   O1001   1.269   .     A
C954   C968    1.414   .     A
C954   O995    1.387   .     S
C954   C973    1.413   .     A
C955   H977    1.084   .     S
C955   C967    1.389   .     A
C955   C968    1.398   .     A
C956   C958    1.458   .     S
C956   O1000   1.282   .     A
C956   O1002   1.282   .     A
C957   C972    1.416   .     A
C957   C969    1.414   .     A
C957   C966    1.480   .     S
C958   C847    1.339   1_655 S
C958   I876    2.134   1_655 S
C960   C963    1.453   .     S
C960   C625    1.341   1_565 S
C960   H643    1.088   1_565 S
C961   C962    1.438   .     S
C962   O997    1.278   .     A
C962   O1003   1.277   .     A
C963   O998    1.262   .     A
C963   O1004   1.271   .     A
C964   C969    1.412   .     A
C964   C466    1.404   1_556 S
C964   I482    2.142   1_556 S
C965   O990    1.277   .     A
C965   C968    1.452   .     S
C965   O992    1.273   .     A
C966   O993    1.289   .     A
C966   O991    1.281   .     A
C969   O996    1.382   .     S
C970   I985    2.154   .     S
C971   C972    1.421   .     A
C971   C466    1.419   1_556 S
C971   C469    1.420   1_556 S
C972   C976    1.423   .     A
C974   C975    1.392   .     A
C974   C463    1.398   1_556 S
C974   C469    1.415   1_556 S
C975   C976    1.391   .     A
C975   H980    1.084   .     S
C976   I987    2.138   .     S
H978   C847    1.086   1_655 S
H981   C463    1.084   1_556 S
H983   O995    0.987   .     S
H984   O996    0.987   .     S
O989   Zn1007  1.932   .     S
O989   Zn1005  1.966   .     S
O989   Zn1006  1.950   .     S
O989   Zn1008  1.925   .     S
O990   Zn1006  1.926   .     S
O991   Zn1008  1.942   .     S
O992   Zn1007  1.935   .     S
O993   Zn1005  1.921   .     S
O994   C625    1.384   1_565 S
O994   H646    0.992   1_565 S
O997   Zn1005  1.936   .     S
O998   Zn1008  1.939   .     S
O999   Zn1006  1.922   .     S
O1000  Zn1007  1.938   .     S
O1001  Zn1008  1.934   .     S
O1002  Zn1005  1.921   .     S
O1003  Zn1006  1.944   .     S
O1004  Zn1007  1.935   .     S
