data_str_m3_o2_o5_pcu_sym.93
_audit_creation_date              2020-01-03
_audit_creation_method            'Materials Studio'
_symmetry_space_group_name_H-M    'P1'
_symmetry_Int_Tables_number       1
_symmetry_cell_setting            triclinic
loop_
_symmetry_equiv_pos_as_xyz
  x,y,z
_cell_length_a                    29.7771
_cell_length_b                    28.6597
_cell_length_c                    26.8403
_cell_angle_alpha                 89.9172
_cell_angle_beta                  93.7971
_cell_angle_gamma                 90.4482
loop_
_atom_site_label
_atom_site_type_symbol
_atom_site_fract_x
_atom_site_fract_y
_atom_site_fract_z
_atom_site_U_iso_or_equiv
_atom_site_adp_type
_atom_site_occupancy
O1     O     0.18453   0.28974   0.16667   0.00000  Uiso   1.00
O2     O     0.31547   0.21026   0.16666   0.00000  Uiso   1.00
O3     O     0.31547   0.28974   0.16666   0.00000  Uiso   1.00
O4     O     0.18453   0.21026   0.16667   0.00000  Uiso   1.00
C5     C     0.16335   0.24979   0.16767   0.00000  Uiso   1.00
C6     C     0.33599   0.25033   0.16368   0.00000  Uiso   1.00
O7     O     0.25000   0.28973   0.09511   0.00000  Uiso   1.00
O8     O     0.25000   0.21027   0.23822   0.00000  Uiso   1.00
O9     O     0.25000   0.28973   0.23822   0.00000  Uiso   1.00
O10    O     0.25000   0.21027   0.09511   0.00000  Uiso   1.00
C11    C     0.22948   0.05229   0.12768   0.00000  Uiso   1.00
C12    C     0.26699   0.44732   0.20876   0.00000  Uiso   1.00
C13    C     0.27268   0.05305   0.20581   0.00000  Uiso   1.00
C14    C     0.23628   0.44762   0.12443   0.00000  Uiso   1.00
C15    C     0.24993   0.25002   0.07293   0.00000  Uiso   1.00
C16    C     0.25028   0.24998   0.26041   0.00000  Uiso   1.00
Zn17   Zn    0.25000   0.30307   0.16667   0.00000  Uiso   1.00
Zn18   Zn    0.25000   0.19693   0.16667   0.00000  Uiso   1.00
N19    N     0.25000   0.12623   0.16667   0.00000  Uiso   1.00
N20    N     0.25000   0.37376   0.16667   0.00000  Uiso   1.00
C21    C     0.25118   0.02668   0.16688   0.00000  Uiso   1.00
C22    C     0.25143   0.47346   0.16680   0.00000  Uiso   1.00
C23    C     0.25015   0.25004   0.02179   0.00000  Uiso   1.00
C24    C     0.25028   0.24998   0.31157   0.00000  Uiso   1.00
C25    C     0.04842   0.28395   0.11979   0.00000  Uiso   1.00
C26    C     0.44424   0.21889   0.10945   0.00000  Uiso   1.00
C27    C     0.45594   0.28917   0.15964   0.00000  Uiso   1.00
C28    C     0.04189   0.20825   0.15955   0.00000  Uiso   1.00
C29    C     0.09163   0.28891   0.14165   0.00000  Uiso   1.00
C30    C     0.40067   0.21435   0.12514   0.00000  Uiso   1.00
C31    C     0.40942   0.29207   0.16163   0.00000  Uiso   1.00
C32    C     0.08862   0.20834   0.17115   0.00000  Uiso   1.00
C33    C     0.11389   0.24942   0.16245   0.00000  Uiso   1.00
C34    C     0.38300   0.25149   0.15198   0.00000  Uiso   1.00
C35    C     0.02200   0.24626   0.13345   0.00000  Uiso   1.00
C36    C     0.47335   0.25220   0.13258   0.00000  Uiso   1.00
C37    C     0.22961   0.10134   0.12737   0.00000  Uiso   1.00
C38    C     0.26847   0.39820   0.20734   0.00000  Uiso   1.00
C39    C     0.27188   0.10217   0.20540   0.00000  Uiso   1.00
C40    C     0.23372   0.39859   0.12537   0.00000  Uiso   1.00
H41    H     0.21089   0.03503   0.09712   0.00000  Uiso   1.00
H42    H     0.27962   0.46433   0.24270   0.00000  Uiso   1.00
H43    H     0.29152   0.03636   0.23648   0.00000  Uiso   1.00
H44    H     0.22493   0.46477   0.09022   0.00000  Uiso   1.00
C45    C     0.20741   0.12387   0.08275   0.00000  Uiso   1.00
O46    O     0.18116   0.15586   0.08681   0.00000  Uiso   1.00
O47    O     0.21471   0.10635   0.03540   0.00000  Uiso   1.00
H48    H     0.19737   0.12396   0.00764   0.00000  Uiso   1.00
C49    C     0.29270   0.37501   0.25009   0.00000  Uiso   1.00
O50    O     0.32191   0.34656   0.24322   0.00000  Uiso   1.00
O51    O     0.28454   0.38830   0.29868   0.00000  Uiso   1.00
H52    H     0.30334   0.37022   0.32489   0.00000  Uiso   1.00
C53    C     0.29637   0.12611   0.24757   0.00000  Uiso   1.00
O54    O     0.32769   0.15239   0.24032   0.00000  Uiso   1.00
O55    O     0.28561   0.11597   0.29631   0.00000  Uiso   1.00
H56    H     0.30513   0.13387   0.32226   0.00000  Uiso   1.00
C57    C     0.21062   0.37617   0.08125   0.00000  Uiso   1.00
O58    O     0.18331   0.34502   0.08638   0.00000  Uiso   1.00
O59    O     0.21735   0.39324   0.03352   0.00000  Uiso   1.00
H60    H     0.19876   0.37587   0.00638   0.00000  Uiso   1.00
O61    O     0.03078   0.31835   0.08827   0.00000  Uiso   1.00
C62    C     0.04073   0.30715   0.03876   0.00000  Uiso   1.00
H63    H     0.01660   0.32608   0.01316   0.00000  Uiso   1.00
H64    H     0.03562   0.26935   0.03000   0.00000  Uiso   1.00
C65    C     0.08895   0.32175   0.02833   0.00000  Uiso   1.00
H66    H     0.09589   0.35776   0.04230   0.00000  Uiso   1.00
H67    H     0.11305   0.29735   0.04767   0.00000  Uiso   1.00
C68    C     0.09698   0.32001   0.30644   0.00000  Uiso   1.00
H69    H     0.08558   0.28609   0.28985   0.00000  Uiso   1.00
H70    H     0.13355   0.32430   0.30177   0.00000  Uiso   1.00
H71    H     0.07896   0.34907   0.28687   0.00000  Uiso   1.00
O72    O     0.45649   0.19461   0.06806   0.00000  Uiso   1.00
C73    C     0.44794   0.22323   0.02512   0.00000  Uiso   1.00
H74    H     0.47072   0.21208   0.32972   0.00000  Uiso   1.00
H75    H     0.45592   0.26081   0.03227   0.00000  Uiso   1.00
C76    C     0.39888   0.21867   0.00372   0.00000  Uiso   1.00
H77    H     0.38985   0.18130   0.33149   0.00000  Uiso   1.00
H78    H     0.37587   0.23392   0.03004   0.00000  Uiso   1.00
C79    C     0.39121   0.24494   0.28786   0.00000  Uiso   1.00
H80    H     0.39747   0.28281   0.29391   0.00000  Uiso   1.00
H81    H     0.35575   0.24017   0.27322   0.00000  Uiso   1.00
H82    H     0.41369   0.23170   0.25983   0.00000  Uiso   1.00
O83    O     0.48380   0.32580   0.17631   0.00000  Uiso   1.00
C84    C     0.48055   0.33488   0.22784   0.00000  Uiso   1.00
H85    H     0.01216   0.32321   0.24786   0.00000  Uiso   1.00
H86    H     0.45277   0.31600   0.24524   0.00000  Uiso   1.00
C87    C     0.47492   0.38747   0.23530   0.00000  Uiso   1.00
H88    H     0.00057   0.40688   0.21506   0.00000  Uiso   1.00
H89    H     0.44109   0.39796   0.21971   0.00000  Uiso   1.00
C90    C     0.47929   0.40137   0.29022   0.00000  Uiso   1.00
H91    H     0.45661   0.37969   0.31215   0.00000  Uiso   1.00
H92    H     0.46983   0.43855   0.29393   0.00000  Uiso   1.00
H93    H     0.01463   0.39756   0.30537   0.00000  Uiso   1.00
O94    O     0.01665   0.16883   0.16874   0.00000  Uiso   1.00
C95    C     0.00170   0.17031   0.21757   0.00000  Uiso   1.00
H96    H     0.47335   0.19522   0.21848   0.00000  Uiso   1.00
H97    H     0.02891   0.18120   0.24583   0.00000  Uiso   1.00
C98    C     0.48546   0.12127   0.23114   0.00000  Uiso   1.00
H99    H     0.46613   0.10562   0.19850   0.00000  Uiso   1.00
H100   H     0.01492   0.09875   0.24077   0.00000  Uiso   1.00
C101   C     0.45579   0.12134   0.27521   0.00000  Uiso   1.00
H102   H     0.47523   0.13393   0.30930   0.00000  Uiso   1.00
H103   H     0.44392   0.08525   0.28227   0.00000  Uiso   1.00
H104   H     0.42592   0.14356   0.26670   0.00000  Uiso   1.00
O105   O     0.11216   0.33222   0.13933   0.00000  Uiso   1.00
C106   C     0.10681   0.35555   0.18480   0.00000  Uiso   1.00
H107   H     0.12810   0.33859   0.21502   0.00000  Uiso   1.00
H108   H     0.07099   0.35527   0.19439   0.00000  Uiso   1.00
C109   C     0.12187   0.40636   0.18075   0.00000  Uiso   1.00
H110   H     0.15695   0.40768   0.16967   0.00000  Uiso   1.00
H111   H     0.10005   0.42442   0.15169   0.00000  Uiso   1.00
C112   C     0.11974   0.43164   0.23056   0.00000  Uiso   1.00
H113   H     0.08449   0.43274   0.24170   0.00000  Uiso   1.00
H114   H     0.13247   0.46791   0.22710   0.00000  Uiso   1.00
H115   H     0.14110   0.41373   0.26011   0.00000  Uiso   1.00
O116   O     0.37257   0.17971   0.10449   0.00000  Uiso   1.00
C117   C     0.37819   0.13771   0.13193   0.00000  Uiso   1.00
H118   H     0.34400   0.12411   0.13817   0.00000  Uiso   1.00
H119   H     0.39582   0.14205   0.16968   0.00000  Uiso   1.00
C120   C     0.40242   0.10161   0.10164   0.00000  Uiso   1.00
H121   H     0.38831   0.10197   0.06223   0.00000  Uiso   1.00
H122   H     0.43879   0.11063   0.10216   0.00000  Uiso   1.00
C123   C     0.39715   0.05249   0.12278   0.00000  Uiso   1.00
H124   H     0.41012   0.05115   0.16249   0.00000  Uiso   1.00
H125   H     0.41638   0.02744   0.10110   0.00000  Uiso   1.00
H126   H     0.36114   0.04171   0.12005   0.00000  Uiso   1.00
O127   O     0.39078   0.33446   0.17340   0.00000  Uiso   1.00
C128   C     0.37491   0.35750   0.12875   0.00000  Uiso   1.00
H129   H     0.34711   0.38079   0.13831   0.00000  Uiso   1.00
H130   H     0.36021   0.33304   0.09956   0.00000  Uiso   1.00
C131   C     0.41177   0.38754   0.10702   0.00000  Uiso   1.00
H132   H     0.42547   0.41283   0.13548   0.00000  Uiso   1.00
H133   H     0.43958   0.36507   0.09583   0.00000  Uiso   1.00
C134   C     0.39333   0.41460   0.06121   0.00000  Uiso   1.00
H135   H     0.38115   0.39008   0.03119   0.00000  Uiso   1.00
H136   H     0.42042   0.43681   0.04703   0.00000  Uiso   1.00
H137   H     0.36525   0.43744   0.07099   0.00000  Uiso   1.00
O138   O     0.10790   0.17103   0.19744   0.00000  Uiso   1.00
C139   C     0.11574   0.13350   0.16483   0.00000  Uiso   1.00
H140   H     0.15225   0.12631   0.16885   0.00000  Uiso   1.00
H141   H     0.10630   0.14069   0.12458   0.00000  Uiso   1.00
C142   C     0.09120   0.08920   0.18021   0.00000  Uiso   1.00
H143   H     0.09553   0.08452   0.22136   0.00000  Uiso   1.00
H144   H     0.05491   0.09209   0.16887   0.00000  Uiso   1.00
C145   C     0.10890   0.04612   0.15472   0.00000  Uiso   1.00
H146   H     0.10768   0.05115   0.11360   0.00000  Uiso   1.00
H147   H     0.08770   0.01541   0.16295   0.00000  Uiso   1.00
H148   H     0.14408   0.03911   0.16885   0.00000  Uiso   1.00
O149   O     0.68453   0.28974   0.16667   0.00000  Uiso   1.00
O150   O     0.81547   0.21026   0.16666   0.00000  Uiso   1.00
O151   O     0.81547   0.28974   0.16666   0.00000  Uiso   1.00
O152   O     0.68453   0.21026   0.16667   0.00000  Uiso   1.00
C153   C     0.66335   0.24979   0.16767   0.00000  Uiso   1.00
C154   C     0.83599   0.25033   0.16368   0.00000  Uiso   1.00
O155   O     0.75000   0.28973   0.09511   0.00000  Uiso   1.00
O156   O     0.75000   0.21027   0.23822   0.00000  Uiso   1.00
O157   O     0.75000   0.28973   0.23822   0.00000  Uiso   1.00
O158   O     0.75000   0.21027   0.09511   0.00000  Uiso   1.00
C159   C     0.72948   0.05229   0.12768   0.00000  Uiso   1.00
C160   C     0.76699   0.44732   0.20876   0.00000  Uiso   1.00
C161   C     0.77268   0.05305   0.20581   0.00000  Uiso   1.00
C162   C     0.73628   0.44762   0.12443   0.00000  Uiso   1.00
C163   C     0.74993   0.25002   0.07293   0.00000  Uiso   1.00
C164   C     0.75028   0.24998   0.26041   0.00000  Uiso   1.00
Zn165  Zn    0.75000   0.30307   0.16667   0.00000  Uiso   1.00
Zn166  Zn    0.75000   0.19693   0.16667   0.00000  Uiso   1.00
N167   N     0.75000   0.12623   0.16667   0.00000  Uiso   1.00
N168   N     0.75000   0.37376   0.16667   0.00000  Uiso   1.00
C169   C     0.75118   0.02668   0.16688   0.00000  Uiso   1.00
C170   C     0.75143   0.47346   0.16680   0.00000  Uiso   1.00
C171   C     0.75015   0.25004   0.02179   0.00000  Uiso   1.00
C172   C     0.75028   0.24998   0.31157   0.00000  Uiso   1.00
C173   C     0.54842   0.28395   0.11979   0.00000  Uiso   1.00
C174   C     0.94424   0.21889   0.10945   0.00000  Uiso   1.00
C175   C     0.95594   0.28917   0.15964   0.00000  Uiso   1.00
C176   C     0.54189   0.20825   0.15955   0.00000  Uiso   1.00
C177   C     0.59163   0.28891   0.14165   0.00000  Uiso   1.00
C178   C     0.90067   0.21435   0.12514   0.00000  Uiso   1.00
C179   C     0.90942   0.29207   0.16163   0.00000  Uiso   1.00
C180   C     0.58862   0.20834   0.17115   0.00000  Uiso   1.00
C181   C     0.61389   0.24942   0.16245   0.00000  Uiso   1.00
C182   C     0.88300   0.25149   0.15198   0.00000  Uiso   1.00
C183   C     0.52200   0.24626   0.13345   0.00000  Uiso   1.00
C184   C     0.97335   0.25220   0.13258   0.00000  Uiso   1.00
C185   C     0.72961   0.10134   0.12737   0.00000  Uiso   1.00
C186   C     0.76847   0.39820   0.20734   0.00000  Uiso   1.00
C187   C     0.77188   0.10217   0.20540   0.00000  Uiso   1.00
C188   C     0.73372   0.39859   0.12537   0.00000  Uiso   1.00
H189   H     0.71089   0.03503   0.09712   0.00000  Uiso   1.00
H190   H     0.77962   0.46433   0.24270   0.00000  Uiso   1.00
H191   H     0.79152   0.03636   0.23648   0.00000  Uiso   1.00
H192   H     0.72493   0.46477   0.09022   0.00000  Uiso   1.00
C193   C     0.70741   0.12387   0.08275   0.00000  Uiso   1.00
O194   O     0.68116   0.15586   0.08681   0.00000  Uiso   1.00
O195   O     0.71471   0.10635   0.03540   0.00000  Uiso   1.00
H196   H     0.69737   0.12396   0.00764   0.00000  Uiso   1.00
C197   C     0.79270   0.37501   0.25009   0.00000  Uiso   1.00
O198   O     0.82191   0.34656   0.24322   0.00000  Uiso   1.00
O199   O     0.78454   0.38830   0.29868   0.00000  Uiso   1.00
H200   H     0.80334   0.37022   0.32489   0.00000  Uiso   1.00
C201   C     0.79637   0.12611   0.24757   0.00000  Uiso   1.00
O202   O     0.82769   0.15239   0.24032   0.00000  Uiso   1.00
O203   O     0.78561   0.11597   0.29631   0.00000  Uiso   1.00
H204   H     0.80513   0.13387   0.32226   0.00000  Uiso   1.00
C205   C     0.71062   0.37617   0.08125   0.00000  Uiso   1.00
O206   O     0.68331   0.34502   0.08638   0.00000  Uiso   1.00
O207   O     0.71735   0.39324   0.03352   0.00000  Uiso   1.00
H208   H     0.69876   0.37587   0.00638   0.00000  Uiso   1.00
O209   O     0.53078   0.31835   0.08827   0.00000  Uiso   1.00
C210   C     0.54073   0.30715   0.03876   0.00000  Uiso   1.00
H211   H     0.51660   0.32608   0.01316   0.00000  Uiso   1.00
H212   H     0.53562   0.26935   0.03000   0.00000  Uiso   1.00
C213   C     0.58895   0.32175   0.02833   0.00000  Uiso   1.00
H214   H     0.59589   0.35776   0.04230   0.00000  Uiso   1.00
H215   H     0.61305   0.29735   0.04767   0.00000  Uiso   1.00
C216   C     0.59698   0.32001   0.30644   0.00000  Uiso   1.00
H217   H     0.58558   0.28609   0.28985   0.00000  Uiso   1.00
H218   H     0.63355   0.32430   0.30177   0.00000  Uiso   1.00
H219   H     0.57896   0.34907   0.28687   0.00000  Uiso   1.00
O220   O     0.95649   0.19461   0.06806   0.00000  Uiso   1.00
C221   C     0.94794   0.22323   0.02512   0.00000  Uiso   1.00
H222   H     0.97072   0.21208   0.32972   0.00000  Uiso   1.00
H223   H     0.95592   0.26081   0.03227   0.00000  Uiso   1.00
C224   C     0.89888   0.21867   0.00372   0.00000  Uiso   1.00
H225   H     0.88985   0.18130   0.33149   0.00000  Uiso   1.00
H226   H     0.87587   0.23392   0.03004   0.00000  Uiso   1.00
C227   C     0.89121   0.24494   0.28786   0.00000  Uiso   1.00
H228   H     0.89747   0.28281   0.29391   0.00000  Uiso   1.00
H229   H     0.85575   0.24017   0.27322   0.00000  Uiso   1.00
H230   H     0.91369   0.23170   0.25983   0.00000  Uiso   1.00
O231   O     0.98380   0.32580   0.17631   0.00000  Uiso   1.00
C232   C     0.98055   0.33488   0.22784   0.00000  Uiso   1.00
H233   H     0.51216   0.32321   0.24786   0.00000  Uiso   1.00
H234   H     0.95277   0.31600   0.24524   0.00000  Uiso   1.00
C235   C     0.97492   0.38747   0.23530   0.00000  Uiso   1.00
H236   H     0.50057   0.40688   0.21506   0.00000  Uiso   1.00
H237   H     0.94109   0.39796   0.21971   0.00000  Uiso   1.00
C238   C     0.97929   0.40137   0.29022   0.00000  Uiso   1.00
H239   H     0.95661   0.37969   0.31215   0.00000  Uiso   1.00
H240   H     0.96983   0.43855   0.29393   0.00000  Uiso   1.00
H241   H     0.51463   0.39756   0.30537   0.00000  Uiso   1.00
O242   O     0.51665   0.16883   0.16874   0.00000  Uiso   1.00
C243   C     0.50170   0.17031   0.21757   0.00000  Uiso   1.00
H244   H     0.97335   0.19522   0.21848   0.00000  Uiso   1.00
H245   H     0.52891   0.18120   0.24583   0.00000  Uiso   1.00
C246   C     0.98546   0.12127   0.23114   0.00000  Uiso   1.00
H247   H     0.96613   0.10562   0.19850   0.00000  Uiso   1.00
H248   H     0.51492   0.09875   0.24077   0.00000  Uiso   1.00
C249   C     0.95579   0.12134   0.27521   0.00000  Uiso   1.00
H250   H     0.97523   0.13393   0.30930   0.00000  Uiso   1.00
H251   H     0.94392   0.08525   0.28227   0.00000  Uiso   1.00
H252   H     0.92592   0.14356   0.26670   0.00000  Uiso   1.00
O253   O     0.61216   0.33222   0.13933   0.00000  Uiso   1.00
C254   C     0.60681   0.35555   0.18480   0.00000  Uiso   1.00
H255   H     0.62810   0.33859   0.21502   0.00000  Uiso   1.00
H256   H     0.57099   0.35527   0.19439   0.00000  Uiso   1.00
C257   C     0.62187   0.40636   0.18075   0.00000  Uiso   1.00
H258   H     0.65695   0.40768   0.16967   0.00000  Uiso   1.00
H259   H     0.60005   0.42442   0.15169   0.00000  Uiso   1.00
C260   C     0.61974   0.43164   0.23056   0.00000  Uiso   1.00
H261   H     0.58449   0.43274   0.24170   0.00000  Uiso   1.00
H262   H     0.63247   0.46791   0.22710   0.00000  Uiso   1.00
H263   H     0.64110   0.41373   0.26011   0.00000  Uiso   1.00
O264   O     0.87257   0.17971   0.10449   0.00000  Uiso   1.00
C265   C     0.87819   0.13771   0.13193   0.00000  Uiso   1.00
H266   H     0.84400   0.12411   0.13817   0.00000  Uiso   1.00
H267   H     0.89582   0.14205   0.16968   0.00000  Uiso   1.00
C268   C     0.90242   0.10161   0.10164   0.00000  Uiso   1.00
H269   H     0.88831   0.10197   0.06223   0.00000  Uiso   1.00
H270   H     0.93879   0.11063   0.10216   0.00000  Uiso   1.00
C271   C     0.89715   0.05249   0.12278   0.00000  Uiso   1.00
H272   H     0.91012   0.05115   0.16249   0.00000  Uiso   1.00
H273   H     0.91638   0.02744   0.10110   0.00000  Uiso   1.00
H274   H     0.86114   0.04171   0.12005   0.00000  Uiso   1.00
O275   O     0.89078   0.33446   0.17340   0.00000  Uiso   1.00
C276   C     0.87491   0.35750   0.12875   0.00000  Uiso   1.00
H277   H     0.84711   0.38079   0.13831   0.00000  Uiso   1.00
H278   H     0.86021   0.33304   0.09956   0.00000  Uiso   1.00
C279   C     0.91177   0.38754   0.10702   0.00000  Uiso   1.00
H280   H     0.92547   0.41283   0.13548   0.00000  Uiso   1.00
H281   H     0.93958   0.36507   0.09583   0.00000  Uiso   1.00
C282   C     0.89333   0.41460   0.06121   0.00000  Uiso   1.00
H283   H     0.88115   0.39008   0.03119   0.00000  Uiso   1.00
H284   H     0.92042   0.43681   0.04703   0.00000  Uiso   1.00
H285   H     0.86525   0.43744   0.07099   0.00000  Uiso   1.00
O286   O     0.60790   0.17103   0.19744   0.00000  Uiso   1.00
C287   C     0.61574   0.13350   0.16483   0.00000  Uiso   1.00
H288   H     0.65225   0.12631   0.16885   0.00000  Uiso   1.00
H289   H     0.60630   0.14069   0.12458   0.00000  Uiso   1.00
C290   C     0.59120   0.08920   0.18021   0.00000  Uiso   1.00
H291   H     0.59553   0.08452   0.22136   0.00000  Uiso   1.00
H292   H     0.55491   0.09209   0.16887   0.00000  Uiso   1.00
C293   C     0.60890   0.04612   0.15472   0.00000  Uiso   1.00
H294   H     0.60768   0.05115   0.11360   0.00000  Uiso   1.00
H295   H     0.58770   0.01541   0.16295   0.00000  Uiso   1.00
H296   H     0.64408   0.03911   0.16885   0.00000  Uiso   1.00
O297   O     0.18453   0.78974   0.16667   0.00000  Uiso   1.00
O298   O     0.31547   0.71026   0.16666   0.00000  Uiso   1.00
O299   O     0.31547   0.78974   0.16666   0.00000  Uiso   1.00
O300   O     0.18453   0.71026   0.16667   0.00000  Uiso   1.00
C301   C     0.16335   0.74979   0.16767   0.00000  Uiso   1.00
C302   C     0.33599   0.75033   0.16368   0.00000  Uiso   1.00
O303   O     0.25000   0.78973   0.09511   0.00000  Uiso   1.00
O304   O     0.25000   0.71027   0.23822   0.00000  Uiso   1.00
O305   O     0.25000   0.78973   0.23822   0.00000  Uiso   1.00
O306   O     0.25000   0.71027   0.09511   0.00000  Uiso   1.00
C307   C     0.22948   0.55229   0.12768   0.00000  Uiso   1.00
C308   C     0.26699   0.94732   0.20876   0.00000  Uiso   1.00
C309   C     0.27268   0.55305   0.20581   0.00000  Uiso   1.00
C310   C     0.23628   0.94762   0.12443   0.00000  Uiso   1.00
C311   C     0.24993   0.75002   0.07293   0.00000  Uiso   1.00
C312   C     0.25028   0.74998   0.26041   0.00000  Uiso   1.00
Zn313  Zn    0.25000   0.80307   0.16667   0.00000  Uiso   1.00
Zn314  Zn    0.25000   0.69693   0.16667   0.00000  Uiso   1.00
N315   N     0.25000   0.62623   0.16667   0.00000  Uiso   1.00
N316   N     0.25000   0.87376   0.16667   0.00000  Uiso   1.00
C317   C     0.25118   0.52668   0.16688   0.00000  Uiso   1.00
C318   C     0.25143   0.97346   0.16680   0.00000  Uiso   1.00
C319   C     0.25015   0.75004   0.02179   0.00000  Uiso   1.00
C320   C     0.25028   0.74998   0.31157   0.00000  Uiso   1.00
C321   C     0.04842   0.78395   0.11979   0.00000  Uiso   1.00
C322   C     0.44424   0.71889   0.10945   0.00000  Uiso   1.00
C323   C     0.45594   0.78917   0.15964   0.00000  Uiso   1.00
C324   C     0.04189   0.70825   0.15955   0.00000  Uiso   1.00
C325   C     0.09163   0.78891   0.14165   0.00000  Uiso   1.00
C326   C     0.40067   0.71435   0.12514   0.00000  Uiso   1.00
C327   C     0.40942   0.79207   0.16163   0.00000  Uiso   1.00
C328   C     0.08862   0.70834   0.17115   0.00000  Uiso   1.00
C329   C     0.11389   0.74942   0.16245   0.00000  Uiso   1.00
C330   C     0.38300   0.75149   0.15198   0.00000  Uiso   1.00
C331   C     0.02200   0.74626   0.13345   0.00000  Uiso   1.00
C332   C     0.47335   0.75220   0.13258   0.00000  Uiso   1.00
C333   C     0.22961   0.60134   0.12737   0.00000  Uiso   1.00
C334   C     0.26847   0.89820   0.20734   0.00000  Uiso   1.00
C335   C     0.27188   0.60217   0.20540   0.00000  Uiso   1.00
C336   C     0.23372   0.89859   0.12537   0.00000  Uiso   1.00
H337   H     0.21089   0.53503   0.09712   0.00000  Uiso   1.00
H338   H     0.27962   0.96433   0.24270   0.00000  Uiso   1.00
H339   H     0.29152   0.53636   0.23648   0.00000  Uiso   1.00
H340   H     0.22493   0.96477   0.09022   0.00000  Uiso   1.00
C341   C     0.20741   0.62387   0.08275   0.00000  Uiso   1.00
O342   O     0.18116   0.65586   0.08681   0.00000  Uiso   1.00
O343   O     0.21471   0.60635   0.03540   0.00000  Uiso   1.00
H344   H     0.19737   0.62396   0.00764   0.00000  Uiso   1.00
C345   C     0.29270   0.87501   0.25009   0.00000  Uiso   1.00
O346   O     0.32191   0.84656   0.24322   0.00000  Uiso   1.00
O347   O     0.28454   0.88830   0.29868   0.00000  Uiso   1.00
H348   H     0.30334   0.87022   0.32489   0.00000  Uiso   1.00
C349   C     0.29637   0.62611   0.24757   0.00000  Uiso   1.00
O350   O     0.32769   0.65239   0.24032   0.00000  Uiso   1.00
O351   O     0.28561   0.61597   0.29631   0.00000  Uiso   1.00
H352   H     0.30513   0.63387   0.32226   0.00000  Uiso   1.00
C353   C     0.21062   0.87617   0.08125   0.00000  Uiso   1.00
O354   O     0.18331   0.84502   0.08638   0.00000  Uiso   1.00
O355   O     0.21735   0.89324   0.03352   0.00000  Uiso   1.00
H356   H     0.19876   0.87587   0.00638   0.00000  Uiso   1.00
O357   O     0.03078   0.81835   0.08827   0.00000  Uiso   1.00
C358   C     0.04073   0.80715   0.03876   0.00000  Uiso   1.00
H359   H     0.01660   0.82608   0.01316   0.00000  Uiso   1.00
H360   H     0.03562   0.76935   0.03000   0.00000  Uiso   1.00
C361   C     0.08895   0.82175   0.02833   0.00000  Uiso   1.00
H362   H     0.09589   0.85776   0.04230   0.00000  Uiso   1.00
H363   H     0.11305   0.79735   0.04767   0.00000  Uiso   1.00
C364   C     0.09698   0.82001   0.30644   0.00000  Uiso   1.00
H365   H     0.08558   0.78609   0.28985   0.00000  Uiso   1.00
H366   H     0.13355   0.82430   0.30177   0.00000  Uiso   1.00
H367   H     0.07896   0.84907   0.28687   0.00000  Uiso   1.00
O368   O     0.45649   0.69461   0.06806   0.00000  Uiso   1.00
C369   C     0.44794   0.72323   0.02512   0.00000  Uiso   1.00
H370   H     0.47072   0.71208   0.32972   0.00000  Uiso   1.00
H371   H     0.45592   0.76081   0.03227   0.00000  Uiso   1.00
C372   C     0.39888   0.71867   0.00372   0.00000  Uiso   1.00
H373   H     0.38985   0.68130   0.33149   0.00000  Uiso   1.00
H374   H     0.37587   0.73392   0.03004   0.00000  Uiso   1.00
C375   C     0.39121   0.74494   0.28786   0.00000  Uiso   1.00
H376   H     0.39747   0.78281   0.29391   0.00000  Uiso   1.00
H377   H     0.35575   0.74017   0.27322   0.00000  Uiso   1.00
H378   H     0.41369   0.73170   0.25983   0.00000  Uiso   1.00
O379   O     0.48380   0.82580   0.17631   0.00000  Uiso   1.00
C380   C     0.48055   0.83488   0.22784   0.00000  Uiso   1.00
H381   H     0.01216   0.82321   0.24786   0.00000  Uiso   1.00
H382   H     0.45277   0.81600   0.24524   0.00000  Uiso   1.00
C383   C     0.47492   0.88747   0.23530   0.00000  Uiso   1.00
H384   H     0.00057   0.90688   0.21506   0.00000  Uiso   1.00
H385   H     0.44109   0.89796   0.21971   0.00000  Uiso   1.00
C386   C     0.47929   0.90137   0.29022   0.00000  Uiso   1.00
H387   H     0.45661   0.87969   0.31215   0.00000  Uiso   1.00
H388   H     0.46983   0.93855   0.29393   0.00000  Uiso   1.00
H389   H     0.01463   0.89756   0.30537   0.00000  Uiso   1.00
O390   O     0.01665   0.66883   0.16874   0.00000  Uiso   1.00
C391   C     0.00170   0.67031   0.21757   0.00000  Uiso   1.00
H392   H     0.47335   0.69522   0.21848   0.00000  Uiso   1.00
H393   H     0.02891   0.68120   0.24583   0.00000  Uiso   1.00
C394   C     0.48546   0.62127   0.23114   0.00000  Uiso   1.00
H395   H     0.46613   0.60562   0.19850   0.00000  Uiso   1.00
H396   H     0.01492   0.59875   0.24077   0.00000  Uiso   1.00
C397   C     0.45579   0.62134   0.27521   0.00000  Uiso   1.00
H398   H     0.47523   0.63393   0.30930   0.00000  Uiso   1.00
H399   H     0.44392   0.58525   0.28227   0.00000  Uiso   1.00
H400   H     0.42592   0.64356   0.26670   0.00000  Uiso   1.00
O401   O     0.11216   0.83222   0.13933   0.00000  Uiso   1.00
C402   C     0.10681   0.85555   0.18480   0.00000  Uiso   1.00
H403   H     0.12810   0.83859   0.21502   0.00000  Uiso   1.00
H404   H     0.07099   0.85527   0.19439   0.00000  Uiso   1.00
C405   C     0.12187   0.90636   0.18075   0.00000  Uiso   1.00
H406   H     0.15695   0.90768   0.16967   0.00000  Uiso   1.00
H407   H     0.10005   0.92442   0.15169   0.00000  Uiso   1.00
C408   C     0.11974   0.93164   0.23056   0.00000  Uiso   1.00
H409   H     0.08449   0.93274   0.24170   0.00000  Uiso   1.00
H410   H     0.13247   0.96791   0.22710   0.00000  Uiso   1.00
H411   H     0.14110   0.91373   0.26011   0.00000  Uiso   1.00
O412   O     0.37257   0.67971   0.10449   0.00000  Uiso   1.00
C413   C     0.37819   0.63771   0.13193   0.00000  Uiso   1.00
H414   H     0.34400   0.62411   0.13817   0.00000  Uiso   1.00
H415   H     0.39582   0.64205   0.16968   0.00000  Uiso   1.00
C416   C     0.40242   0.60161   0.10164   0.00000  Uiso   1.00
H417   H     0.38831   0.60197   0.06223   0.00000  Uiso   1.00
H418   H     0.43879   0.61063   0.10216   0.00000  Uiso   1.00
C419   C     0.39715   0.55249   0.12278   0.00000  Uiso   1.00
H420   H     0.41012   0.55115   0.16249   0.00000  Uiso   1.00
H421   H     0.41638   0.52744   0.10110   0.00000  Uiso   1.00
H422   H     0.36114   0.54171   0.12005   0.00000  Uiso   1.00
O423   O     0.39078   0.83446   0.17340   0.00000  Uiso   1.00
C424   C     0.37491   0.85750   0.12875   0.00000  Uiso   1.00
H425   H     0.34711   0.88079   0.13831   0.00000  Uiso   1.00
H426   H     0.36021   0.83304   0.09956   0.00000  Uiso   1.00
C427   C     0.41177   0.88754   0.10702   0.00000  Uiso   1.00
H428   H     0.42547   0.91283   0.13548   0.00000  Uiso   1.00
H429   H     0.43958   0.86507   0.09583   0.00000  Uiso   1.00
C430   C     0.39333   0.91460   0.06121   0.00000  Uiso   1.00
H431   H     0.38115   0.89008   0.03119   0.00000  Uiso   1.00
H432   H     0.42042   0.93681   0.04703   0.00000  Uiso   1.00
H433   H     0.36525   0.93744   0.07099   0.00000  Uiso   1.00
O434   O     0.10790   0.67103   0.19744   0.00000  Uiso   1.00
C435   C     0.11574   0.63350   0.16483   0.00000  Uiso   1.00
H436   H     0.15225   0.62631   0.16885   0.00000  Uiso   1.00
H437   H     0.10630   0.64069   0.12458   0.00000  Uiso   1.00
C438   C     0.09120   0.58920   0.18021   0.00000  Uiso   1.00
H439   H     0.09553   0.58452   0.22136   0.00000  Uiso   1.00
H440   H     0.05491   0.59209   0.16887   0.00000  Uiso   1.00
C441   C     0.10890   0.54612   0.15472   0.00000  Uiso   1.00
H442   H     0.10768   0.55115   0.11360   0.00000  Uiso   1.00
H443   H     0.08770   0.51541   0.16295   0.00000  Uiso   1.00
H444   H     0.14408   0.53911   0.16885   0.00000  Uiso   1.00
O445   O     0.68453   0.78974   0.16667   0.00000  Uiso   1.00
O446   O     0.81547   0.71026   0.16666   0.00000  Uiso   1.00
O447   O     0.81547   0.78974   0.16666   0.00000  Uiso   1.00
O448   O     0.68453   0.71026   0.16667   0.00000  Uiso   1.00
C449   C     0.66335   0.74979   0.16767   0.00000  Uiso   1.00
C450   C     0.83599   0.75033   0.16368   0.00000  Uiso   1.00
O451   O     0.75000   0.78973   0.09511   0.00000  Uiso   1.00
O452   O     0.75000   0.71027   0.23822   0.00000  Uiso   1.00
O453   O     0.75000   0.78973   0.23822   0.00000  Uiso   1.00
O454   O     0.75000   0.71027   0.09511   0.00000  Uiso   1.00
C455   C     0.72948   0.55229   0.12768   0.00000  Uiso   1.00
C456   C     0.76699   0.94732   0.20876   0.00000  Uiso   1.00
C457   C     0.77268   0.55305   0.20581   0.00000  Uiso   1.00
C458   C     0.73628   0.94762   0.12443   0.00000  Uiso   1.00
C459   C     0.74993   0.75002   0.07293   0.00000  Uiso   1.00
C460   C     0.75028   0.74998   0.26041   0.00000  Uiso   1.00
Zn461  Zn    0.75000   0.80307   0.16667   0.00000  Uiso   1.00
Zn462  Zn    0.75000   0.69693   0.16667   0.00000  Uiso   1.00
N463   N     0.75000   0.62623   0.16667   0.00000  Uiso   1.00
N464   N     0.75000   0.87376   0.16667   0.00000  Uiso   1.00
C465   C     0.75118   0.52668   0.16688   0.00000  Uiso   1.00
C466   C     0.75143   0.97346   0.16680   0.00000  Uiso   1.00
C467   C     0.75015   0.75004   0.02179   0.00000  Uiso   1.00
C468   C     0.75028   0.74998   0.31157   0.00000  Uiso   1.00
C469   C     0.54842   0.78395   0.11979   0.00000  Uiso   1.00
C470   C     0.94424   0.71889   0.10945   0.00000  Uiso   1.00
C471   C     0.95594   0.78917   0.15964   0.00000  Uiso   1.00
C472   C     0.54189   0.70825   0.15955   0.00000  Uiso   1.00
C473   C     0.59163   0.78891   0.14165   0.00000  Uiso   1.00
C474   C     0.90067   0.71435   0.12514   0.00000  Uiso   1.00
C475   C     0.90942   0.79207   0.16163   0.00000  Uiso   1.00
C476   C     0.58862   0.70834   0.17115   0.00000  Uiso   1.00
C477   C     0.61389   0.74942   0.16245   0.00000  Uiso   1.00
C478   C     0.88300   0.75149   0.15198   0.00000  Uiso   1.00
C479   C     0.52200   0.74626   0.13345   0.00000  Uiso   1.00
C480   C     0.97335   0.75220   0.13258   0.00000  Uiso   1.00
C481   C     0.72961   0.60134   0.12737   0.00000  Uiso   1.00
C482   C     0.76847   0.89820   0.20734   0.00000  Uiso   1.00
C483   C     0.77188   0.60217   0.20540   0.00000  Uiso   1.00
C484   C     0.73372   0.89859   0.12537   0.00000  Uiso   1.00
H485   H     0.71089   0.53503   0.09712   0.00000  Uiso   1.00
H486   H     0.77962   0.96433   0.24270   0.00000  Uiso   1.00
H487   H     0.79152   0.53636   0.23648   0.00000  Uiso   1.00
H488   H     0.72493   0.96477   0.09022   0.00000  Uiso   1.00
C489   C     0.70741   0.62387   0.08275   0.00000  Uiso   1.00
O490   O     0.68116   0.65586   0.08681   0.00000  Uiso   1.00
O491   O     0.71471   0.60635   0.03540   0.00000  Uiso   1.00
H492   H     0.69737   0.62396   0.00764   0.00000  Uiso   1.00
C493   C     0.79270   0.87501   0.25009   0.00000  Uiso   1.00
O494   O     0.82191   0.84656   0.24322   0.00000  Uiso   1.00
O495   O     0.78454   0.88830   0.29868   0.00000  Uiso   1.00
H496   H     0.80334   0.87022   0.32489   0.00000  Uiso   1.00
C497   C     0.79637   0.62611   0.24757   0.00000  Uiso   1.00
O498   O     0.82769   0.65239   0.24032   0.00000  Uiso   1.00
O499   O     0.78561   0.61597   0.29631   0.00000  Uiso   1.00
H500   H     0.80513   0.63387   0.32226   0.00000  Uiso   1.00
C501   C     0.71062   0.87617   0.08125   0.00000  Uiso   1.00
O502   O     0.68331   0.84502   0.08638   0.00000  Uiso   1.00
O503   O     0.71735   0.89324   0.03352   0.00000  Uiso   1.00
H504   H     0.69876   0.87587   0.00638   0.00000  Uiso   1.00
O505   O     0.53078   0.81835   0.08827   0.00000  Uiso   1.00
C506   C     0.54073   0.80715   0.03876   0.00000  Uiso   1.00
H507   H     0.51660   0.82608   0.01316   0.00000  Uiso   1.00
H508   H     0.53562   0.76935   0.03000   0.00000  Uiso   1.00
C509   C     0.58895   0.82175   0.02833   0.00000  Uiso   1.00
H510   H     0.59589   0.85776   0.04230   0.00000  Uiso   1.00
H511   H     0.61305   0.79735   0.04767   0.00000  Uiso   1.00
C512   C     0.59698   0.82001   0.30644   0.00000  Uiso   1.00
H513   H     0.58558   0.78609   0.28985   0.00000  Uiso   1.00
H514   H     0.63355   0.82430   0.30177   0.00000  Uiso   1.00
H515   H     0.57896   0.84907   0.28687   0.00000  Uiso   1.00
O516   O     0.95649   0.69461   0.06806   0.00000  Uiso   1.00
C517   C     0.94794   0.72323   0.02512   0.00000  Uiso   1.00
H518   H     0.97072   0.71208   0.32972   0.00000  Uiso   1.00
H519   H     0.95592   0.76081   0.03227   0.00000  Uiso   1.00
C520   C     0.89888   0.71867   0.00372   0.00000  Uiso   1.00
H521   H     0.88985   0.68130   0.33149   0.00000  Uiso   1.00
H522   H     0.87587   0.73392   0.03004   0.00000  Uiso   1.00
C523   C     0.89121   0.74494   0.28786   0.00000  Uiso   1.00
H524   H     0.89747   0.78281   0.29391   0.00000  Uiso   1.00
H525   H     0.85575   0.74017   0.27322   0.00000  Uiso   1.00
H526   H     0.91369   0.73170   0.25983   0.00000  Uiso   1.00
O527   O     0.98380   0.82580   0.17631   0.00000  Uiso   1.00
C528   C     0.98055   0.83488   0.22784   0.00000  Uiso   1.00
H529   H     0.51216   0.82321   0.24786   0.00000  Uiso   1.00
H530   H     0.95277   0.81600   0.24524   0.00000  Uiso   1.00
C531   C     0.97492   0.88747   0.23530   0.00000  Uiso   1.00
H532   H     0.50057   0.90688   0.21506   0.00000  Uiso   1.00
H533   H     0.94109   0.89796   0.21971   0.00000  Uiso   1.00
C534   C     0.97929   0.90137   0.29022   0.00000  Uiso   1.00
H535   H     0.95661   0.87969   0.31215   0.00000  Uiso   1.00
H536   H     0.96983   0.93855   0.29393   0.00000  Uiso   1.00
H537   H     0.51463   0.89756   0.30537   0.00000  Uiso   1.00
O538   O     0.51665   0.66883   0.16874   0.00000  Uiso   1.00
C539   C     0.50170   0.67031   0.21757   0.00000  Uiso   1.00
H540   H     0.97335   0.69522   0.21848   0.00000  Uiso   1.00
H541   H     0.52891   0.68120   0.24583   0.00000  Uiso   1.00
C542   C     0.98546   0.62127   0.23114   0.00000  Uiso   1.00
H543   H     0.96613   0.60562   0.19850   0.00000  Uiso   1.00
H544   H     0.51492   0.59875   0.24077   0.00000  Uiso   1.00
C545   C     0.95579   0.62134   0.27521   0.00000  Uiso   1.00
H546   H     0.97523   0.63393   0.30930   0.00000  Uiso   1.00
H547   H     0.94392   0.58525   0.28227   0.00000  Uiso   1.00
H548   H     0.92592   0.64356   0.26670   0.00000  Uiso   1.00
O549   O     0.61216   0.83222   0.13933   0.00000  Uiso   1.00
C550   C     0.60681   0.85555   0.18480   0.00000  Uiso   1.00
H551   H     0.62810   0.83859   0.21502   0.00000  Uiso   1.00
H552   H     0.57099   0.85527   0.19439   0.00000  Uiso   1.00
C553   C     0.62187   0.90636   0.18075   0.00000  Uiso   1.00
H554   H     0.65695   0.90768   0.16967   0.00000  Uiso   1.00
H555   H     0.60005   0.92442   0.15169   0.00000  Uiso   1.00
C556   C     0.61974   0.93164   0.23056   0.00000  Uiso   1.00
H557   H     0.58449   0.93274   0.24170   0.00000  Uiso   1.00
H558   H     0.63247   0.96791   0.22710   0.00000  Uiso   1.00
H559   H     0.64110   0.91373   0.26011   0.00000  Uiso   1.00
O560   O     0.87257   0.67971   0.10449   0.00000  Uiso   1.00
C561   C     0.87819   0.63771   0.13193   0.00000  Uiso   1.00
H562   H     0.84400   0.62411   0.13817   0.00000  Uiso   1.00
H563   H     0.89582   0.64205   0.16968   0.00000  Uiso   1.00
C564   C     0.90242   0.60161   0.10164   0.00000  Uiso   1.00
H565   H     0.88831   0.60197   0.06223   0.00000  Uiso   1.00
H566   H     0.93879   0.61063   0.10216   0.00000  Uiso   1.00
C567   C     0.89715   0.55249   0.12278   0.00000  Uiso   1.00
H568   H     0.91012   0.55115   0.16249   0.00000  Uiso   1.00
H569   H     0.91638   0.52744   0.10110   0.00000  Uiso   1.00
H570   H     0.86114   0.54171   0.12005   0.00000  Uiso   1.00
O571   O     0.89078   0.83446   0.17340   0.00000  Uiso   1.00
C572   C     0.87491   0.85750   0.12875   0.00000  Uiso   1.00
H573   H     0.84711   0.88079   0.13831   0.00000  Uiso   1.00
H574   H     0.86021   0.83304   0.09956   0.00000  Uiso   1.00
C575   C     0.91177   0.88754   0.10702   0.00000  Uiso   1.00
H576   H     0.92547   0.91283   0.13548   0.00000  Uiso   1.00
H577   H     0.93958   0.86507   0.09583   0.00000  Uiso   1.00
C578   C     0.89333   0.91460   0.06121   0.00000  Uiso   1.00
H579   H     0.88115   0.89008   0.03119   0.00000  Uiso   1.00
H580   H     0.92042   0.93681   0.04703   0.00000  Uiso   1.00
H581   H     0.86525   0.93744   0.07099   0.00000  Uiso   1.00
O582   O     0.60790   0.67103   0.19744   0.00000  Uiso   1.00
C583   C     0.61574   0.63350   0.16483   0.00000  Uiso   1.00
H584   H     0.65225   0.62631   0.16885   0.00000  Uiso   1.00
H585   H     0.60630   0.64069   0.12458   0.00000  Uiso   1.00
C586   C     0.59120   0.58920   0.18021   0.00000  Uiso   1.00
H587   H     0.59553   0.58452   0.22136   0.00000  Uiso   1.00
H588   H     0.55491   0.59209   0.16887   0.00000  Uiso   1.00
C589   C     0.60890   0.54612   0.15472   0.00000  Uiso   1.00
H590   H     0.60768   0.55115   0.11360   0.00000  Uiso   1.00
H591   H     0.58770   0.51541   0.16295   0.00000  Uiso   1.00
H592   H     0.64408   0.53911   0.16885   0.00000  Uiso   1.00
O593   O     0.18453   0.28974   0.50000   0.00000  Uiso   1.00
O594   O     0.31547   0.21026   0.50000   0.00000  Uiso   1.00
O595   O     0.31547   0.28974   0.50000   0.00000  Uiso   1.00
O596   O     0.18453   0.21026   0.50000   0.00000  Uiso   1.00
C597   C     0.16335   0.24979   0.50100   0.00000  Uiso   1.00
C598   C     0.33599   0.25033   0.49701   0.00000  Uiso   1.00
O599   O     0.25000   0.28973   0.42845   0.00000  Uiso   1.00
O600   O     0.25000   0.21027   0.57155   0.00000  Uiso   1.00
O601   O     0.25000   0.28973   0.57155   0.00000  Uiso   1.00
O602   O     0.25000   0.21027   0.42845   0.00000  Uiso   1.00
C603   C     0.22948   0.05229   0.46101   0.00000  Uiso   1.00
C604   C     0.26699   0.44732   0.54209   0.00000  Uiso   1.00
C605   C     0.27268   0.05305   0.53915   0.00000  Uiso   1.00
C606   C     0.23628   0.44762   0.45776   0.00000  Uiso   1.00
C607   C     0.24993   0.25002   0.40626   0.00000  Uiso   1.00
C608   C     0.25028   0.24998   0.59375   0.00000  Uiso   1.00
Zn609  Zn    0.25000   0.30307   0.50000   0.00000  Uiso   1.00
Zn610  Zn    0.25000   0.19693   0.50000   0.00000  Uiso   1.00
N611   N     0.25000   0.12623   0.50000   0.00000  Uiso   1.00
N612   N     0.25000   0.37376   0.50000   0.00000  Uiso   1.00
C613   C     0.25118   0.02668   0.50021   0.00000  Uiso   1.00
C614   C     0.25143   0.47346   0.50014   0.00000  Uiso   1.00
C615   C     0.25015   0.25004   0.35513   0.00000  Uiso   1.00
C616   C     0.25028   0.24998   0.64490   0.00000  Uiso   1.00
C617   C     0.04842   0.28395   0.45312   0.00000  Uiso   1.00
C618   C     0.44424   0.21889   0.44279   0.00000  Uiso   1.00
C619   C     0.45594   0.28917   0.49298   0.00000  Uiso   1.00
C620   C     0.04189   0.20825   0.49288   0.00000  Uiso   1.00
C621   C     0.09163   0.28891   0.47498   0.00000  Uiso   1.00
C622   C     0.40067   0.21435   0.45847   0.00000  Uiso   1.00
C623   C     0.40942   0.29207   0.49496   0.00000  Uiso   1.00
C624   C     0.08862   0.20834   0.50448   0.00000  Uiso   1.00
C625   C     0.11389   0.24942   0.49578   0.00000  Uiso   1.00
C626   C     0.38300   0.25149   0.48531   0.00000  Uiso   1.00
C627   C     0.02200   0.24626   0.46678   0.00000  Uiso   1.00
C628   C     0.47335   0.25220   0.46591   0.00000  Uiso   1.00
C629   C     0.22961   0.10134   0.46071   0.00000  Uiso   1.00
C630   C     0.26847   0.39820   0.54068   0.00000  Uiso   1.00
C631   C     0.27188   0.10217   0.53874   0.00000  Uiso   1.00
C632   C     0.23372   0.39859   0.45870   0.00000  Uiso   1.00
H633   H     0.21089   0.03503   0.43045   0.00000  Uiso   1.00
H634   H     0.27962   0.46433   0.57604   0.00000  Uiso   1.00
H635   H     0.29152   0.03636   0.56982   0.00000  Uiso   1.00
H636   H     0.22493   0.46477   0.42356   0.00000  Uiso   1.00
C637   C     0.20741   0.12387   0.41608   0.00000  Uiso   1.00
O638   O     0.18116   0.15586   0.42014   0.00000  Uiso   1.00
O639   O     0.21471   0.10635   0.36873   0.00000  Uiso   1.00
H640   H     0.19737   0.12396   0.34097   0.00000  Uiso   1.00
C641   C     0.29270   0.37501   0.58342   0.00000  Uiso   1.00
O642   O     0.32191   0.34656   0.57655   0.00000  Uiso   1.00
O643   O     0.28454   0.38830   0.63202   0.00000  Uiso   1.00
H644   H     0.30334   0.37022   0.65822   0.00000  Uiso   1.00
C645   C     0.29637   0.12611   0.58090   0.00000  Uiso   1.00
O646   O     0.32769   0.15239   0.57365   0.00000  Uiso   1.00
O647   O     0.28561   0.11597   0.62965   0.00000  Uiso   1.00
H648   H     0.30513   0.13387   0.65560   0.00000  Uiso   1.00
C649   C     0.21062   0.37617   0.41459   0.00000  Uiso   1.00
O650   O     0.18331   0.34502   0.41971   0.00000  Uiso   1.00
O651   O     0.21735   0.39324   0.36685   0.00000  Uiso   1.00
H652   H     0.19876   0.37587   0.33971   0.00000  Uiso   1.00
O653   O     0.03078   0.31835   0.42161   0.00000  Uiso   1.00
C654   C     0.04073   0.30715   0.37209   0.00000  Uiso   1.00
H655   H     0.01660   0.32608   0.34649   0.00000  Uiso   1.00
H656   H     0.03562   0.26935   0.36334   0.00000  Uiso   1.00
C657   C     0.08895   0.32175   0.36166   0.00000  Uiso   1.00
H658   H     0.09589   0.35776   0.37563   0.00000  Uiso   1.00
H659   H     0.11305   0.29735   0.38100   0.00000  Uiso   1.00
C660   C     0.09698   0.32001   0.63978   0.00000  Uiso   1.00
H661   H     0.08558   0.28609   0.62319   0.00000  Uiso   1.00
H662   H     0.13355   0.32430   0.63510   0.00000  Uiso   1.00
H663   H     0.07896   0.34907   0.62021   0.00000  Uiso   1.00
O664   O     0.45649   0.19461   0.40140   0.00000  Uiso   1.00
C665   C     0.44794   0.22323   0.35845   0.00000  Uiso   1.00
H666   H     0.47072   0.21208   0.66306   0.00000  Uiso   1.00
H667   H     0.45592   0.26081   0.36560   0.00000  Uiso   1.00
C668   C     0.39888   0.21867   0.33706   0.00000  Uiso   1.00
H669   H     0.38985   0.18130   0.66482   0.00000  Uiso   1.00
H670   H     0.37587   0.23392   0.36337   0.00000  Uiso   1.00
C671   C     0.39121   0.24494   0.62119   0.00000  Uiso   1.00
H672   H     0.39747   0.28281   0.62724   0.00000  Uiso   1.00
H673   H     0.35575   0.24017   0.60655   0.00000  Uiso   1.00
H674   H     0.41369   0.23170   0.59316   0.00000  Uiso   1.00
O675   O     0.48380   0.32580   0.50965   0.00000  Uiso   1.00
C676   C     0.48055   0.33488   0.56118   0.00000  Uiso   1.00
H677   H     0.01216   0.32321   0.58119   0.00000  Uiso   1.00
H678   H     0.45277   0.31600   0.57857   0.00000  Uiso   1.00
C679   C     0.47492   0.38747   0.56863   0.00000  Uiso   1.00
H680   H     0.00057   0.40688   0.54839   0.00000  Uiso   1.00
H681   H     0.44109   0.39796   0.55305   0.00000  Uiso   1.00
C682   C     0.47929   0.40137   0.62355   0.00000  Uiso   1.00
H683   H     0.45661   0.37969   0.64548   0.00000  Uiso   1.00
H684   H     0.46983   0.43855   0.62727   0.00000  Uiso   1.00
H685   H     0.01463   0.39756   0.63871   0.00000  Uiso   1.00
O686   O     0.01665   0.16883   0.50207   0.00000  Uiso   1.00
C687   C     0.00170   0.17031   0.55090   0.00000  Uiso   1.00
H688   H     0.47335   0.19522   0.55182   0.00000  Uiso   1.00
H689   H     0.02891   0.18120   0.57917   0.00000  Uiso   1.00
C690   C     0.48546   0.12127   0.56448   0.00000  Uiso   1.00
H691   H     0.46613   0.10562   0.53183   0.00000  Uiso   1.00
H692   H     0.01492   0.09875   0.57410   0.00000  Uiso   1.00
C693   C     0.45579   0.12134   0.60854   0.00000  Uiso   1.00
H694   H     0.47523   0.13393   0.64264   0.00000  Uiso   1.00
H695   H     0.44392   0.08525   0.61561   0.00000  Uiso   1.00
H696   H     0.42592   0.14356   0.60004   0.00000  Uiso   1.00
O697   O     0.11216   0.33222   0.47266   0.00000  Uiso   1.00
C698   C     0.10681   0.35555   0.51813   0.00000  Uiso   1.00
H699   H     0.12810   0.33859   0.54835   0.00000  Uiso   1.00
H700   H     0.07099   0.35527   0.52772   0.00000  Uiso   1.00
C701   C     0.12187   0.40636   0.51408   0.00000  Uiso   1.00
H702   H     0.15695   0.40768   0.50301   0.00000  Uiso   1.00
H703   H     0.10005   0.42442   0.48502   0.00000  Uiso   1.00
C704   C     0.11974   0.43164   0.56389   0.00000  Uiso   1.00
H705   H     0.08449   0.43274   0.57503   0.00000  Uiso   1.00
H706   H     0.13247   0.46791   0.56044   0.00000  Uiso   1.00
H707   H     0.14110   0.41373   0.59344   0.00000  Uiso   1.00
O708   O     0.37257   0.17971   0.43783   0.00000  Uiso   1.00
C709   C     0.37819   0.13771   0.46526   0.00000  Uiso   1.00
H710   H     0.34400   0.12411   0.47150   0.00000  Uiso   1.00
H711   H     0.39582   0.14205   0.50302   0.00000  Uiso   1.00
C712   C     0.40242   0.10161   0.43497   0.00000  Uiso   1.00
H713   H     0.38831   0.10197   0.39556   0.00000  Uiso   1.00
H714   H     0.43879   0.11063   0.43549   0.00000  Uiso   1.00
C715   C     0.39715   0.05249   0.45611   0.00000  Uiso   1.00
H716   H     0.41012   0.05115   0.49583   0.00000  Uiso   1.00
H717   H     0.41638   0.02744   0.43444   0.00000  Uiso   1.00
H718   H     0.36114   0.04171   0.45338   0.00000  Uiso   1.00
O719   O     0.39078   0.33446   0.50673   0.00000  Uiso   1.00
C720   C     0.37491   0.35750   0.46208   0.00000  Uiso   1.00
H721   H     0.34711   0.38079   0.47165   0.00000  Uiso   1.00
H722   H     0.36021   0.33304   0.43290   0.00000  Uiso   1.00
C723   C     0.41177   0.38754   0.44036   0.00000  Uiso   1.00
H724   H     0.42547   0.41283   0.46881   0.00000  Uiso   1.00
H725   H     0.43958   0.36507   0.42916   0.00000  Uiso   1.00
C726   C     0.39333   0.41460   0.39455   0.00000  Uiso   1.00
H727   H     0.38115   0.39008   0.36452   0.00000  Uiso   1.00
H728   H     0.42042   0.43681   0.38037   0.00000  Uiso   1.00
H729   H     0.36525   0.43744   0.40432   0.00000  Uiso   1.00
O730   O     0.10790   0.17103   0.53077   0.00000  Uiso   1.00
C731   C     0.11574   0.13350   0.49816   0.00000  Uiso   1.00
H732   H     0.15225   0.12631   0.50218   0.00000  Uiso   1.00
H733   H     0.10630   0.14069   0.45791   0.00000  Uiso   1.00
C734   C     0.09120   0.08920   0.51354   0.00000  Uiso   1.00
H735   H     0.09553   0.08452   0.55469   0.00000  Uiso   1.00
H736   H     0.05491   0.09209   0.50220   0.00000  Uiso   1.00
C737   C     0.10890   0.04612   0.48805   0.00000  Uiso   1.00
H738   H     0.10768   0.05115   0.44693   0.00000  Uiso   1.00
H739   H     0.08770   0.01541   0.49629   0.00000  Uiso   1.00
H740   H     0.14408   0.03911   0.50218   0.00000  Uiso   1.00
O741   O     0.68453   0.28974   0.50000   0.00000  Uiso   1.00
O742   O     0.81547   0.21026   0.50000   0.00000  Uiso   1.00
O743   O     0.81547   0.28974   0.50000   0.00000  Uiso   1.00
O744   O     0.68453   0.21026   0.50000   0.00000  Uiso   1.00
C745   C     0.66335   0.24979   0.50100   0.00000  Uiso   1.00
C746   C     0.83599   0.25033   0.49701   0.00000  Uiso   1.00
O747   O     0.75000   0.28973   0.42845   0.00000  Uiso   1.00
O748   O     0.75000   0.21027   0.57155   0.00000  Uiso   1.00
O749   O     0.75000   0.28973   0.57155   0.00000  Uiso   1.00
O750   O     0.75000   0.21027   0.42845   0.00000  Uiso   1.00
C751   C     0.72948   0.05229   0.46101   0.00000  Uiso   1.00
C752   C     0.76699   0.44732   0.54209   0.00000  Uiso   1.00
C753   C     0.77268   0.05305   0.53915   0.00000  Uiso   1.00
C754   C     0.73628   0.44762   0.45776   0.00000  Uiso   1.00
C755   C     0.74993   0.25002   0.40626   0.00000  Uiso   1.00
C756   C     0.75028   0.24998   0.59375   0.00000  Uiso   1.00
Zn757  Zn    0.75000   0.30307   0.50000   0.00000  Uiso   1.00
Zn758  Zn    0.75000   0.19693   0.50000   0.00000  Uiso   1.00
N759   N     0.75000   0.12623   0.50000   0.00000  Uiso   1.00
N760   N     0.75000   0.37376   0.50000   0.00000  Uiso   1.00
C761   C     0.75118   0.02668   0.50021   0.00000  Uiso   1.00
C762   C     0.75143   0.47346   0.50014   0.00000  Uiso   1.00
C763   C     0.75015   0.25004   0.35513   0.00000  Uiso   1.00
C764   C     0.75028   0.24998   0.64490   0.00000  Uiso   1.00
C765   C     0.54842   0.28395   0.45312   0.00000  Uiso   1.00
C766   C     0.94424   0.21889   0.44279   0.00000  Uiso   1.00
C767   C     0.95594   0.28917   0.49298   0.00000  Uiso   1.00
C768   C     0.54189   0.20825   0.49288   0.00000  Uiso   1.00
C769   C     0.59163   0.28891   0.47498   0.00000  Uiso   1.00
C770   C     0.90067   0.21435   0.45847   0.00000  Uiso   1.00
C771   C     0.90942   0.29207   0.49496   0.00000  Uiso   1.00
C772   C     0.58862   0.20834   0.50448   0.00000  Uiso   1.00
C773   C     0.61389   0.24942   0.49578   0.00000  Uiso   1.00
C774   C     0.88300   0.25149   0.48531   0.00000  Uiso   1.00
C775   C     0.52200   0.24626   0.46678   0.00000  Uiso   1.00
C776   C     0.97335   0.25220   0.46591   0.00000  Uiso   1.00
C777   C     0.72961   0.10134   0.46071   0.00000  Uiso   1.00
C778   C     0.76847   0.39820   0.54068   0.00000  Uiso   1.00
C779   C     0.77188   0.10217   0.53874   0.00000  Uiso   1.00
C780   C     0.73372   0.39859   0.45870   0.00000  Uiso   1.00
H781   H     0.71089   0.03503   0.43045   0.00000  Uiso   1.00
H782   H     0.77962   0.46433   0.57604   0.00000  Uiso   1.00
H783   H     0.79152   0.03636   0.56982   0.00000  Uiso   1.00
H784   H     0.72493   0.46477   0.42356   0.00000  Uiso   1.00
C785   C     0.70741   0.12387   0.41608   0.00000  Uiso   1.00
O786   O     0.68116   0.15586   0.42014   0.00000  Uiso   1.00
O787   O     0.71471   0.10635   0.36873   0.00000  Uiso   1.00
H788   H     0.69737   0.12396   0.34097   0.00000  Uiso   1.00
C789   C     0.79270   0.37501   0.58342   0.00000  Uiso   1.00
O790   O     0.82191   0.34656   0.57655   0.00000  Uiso   1.00
O791   O     0.78454   0.38830   0.63202   0.00000  Uiso   1.00
H792   H     0.80334   0.37022   0.65822   0.00000  Uiso   1.00
C793   C     0.79637   0.12611   0.58090   0.00000  Uiso   1.00
O794   O     0.82769   0.15239   0.57365   0.00000  Uiso   1.00
O795   O     0.78561   0.11597   0.62965   0.00000  Uiso   1.00
H796   H     0.80513   0.13387   0.65560   0.00000  Uiso   1.00
C797   C     0.71062   0.37617   0.41459   0.00000  Uiso   1.00
O798   O     0.68331   0.34502   0.41971   0.00000  Uiso   1.00
O799   O     0.71735   0.39324   0.36685   0.00000  Uiso   1.00
H800   H     0.69876   0.37587   0.33971   0.00000  Uiso   1.00
O801   O     0.53078   0.31835   0.42161   0.00000  Uiso   1.00
C802   C     0.54073   0.30715   0.37209   0.00000  Uiso   1.00
H803   H     0.51660   0.32608   0.34649   0.00000  Uiso   1.00
H804   H     0.53562   0.26935   0.36334   0.00000  Uiso   1.00
C805   C     0.58895   0.32175   0.36166   0.00000  Uiso   1.00
H806   H     0.59589   0.35776   0.37563   0.00000  Uiso   1.00
H807   H     0.61305   0.29735   0.38100   0.00000  Uiso   1.00
C808   C     0.59698   0.32001   0.63978   0.00000  Uiso   1.00
H809   H     0.58558   0.28609   0.62319   0.00000  Uiso   1.00
H810   H     0.63355   0.32430   0.63510   0.00000  Uiso   1.00
H811   H     0.57896   0.34907   0.62021   0.00000  Uiso   1.00
O812   O     0.95649   0.19461   0.40140   0.00000  Uiso   1.00
C813   C     0.94794   0.22323   0.35845   0.00000  Uiso   1.00
H814   H     0.97072   0.21208   0.66306   0.00000  Uiso   1.00
H815   H     0.95592   0.26081   0.36560   0.00000  Uiso   1.00
C816   C     0.89888   0.21867   0.33706   0.00000  Uiso   1.00
H817   H     0.88985   0.18130   0.66482   0.00000  Uiso   1.00
H818   H     0.87587   0.23392   0.36337   0.00000  Uiso   1.00
C819   C     0.89121   0.24494   0.62119   0.00000  Uiso   1.00
H820   H     0.89747   0.28281   0.62724   0.00000  Uiso   1.00
H821   H     0.85575   0.24017   0.60655   0.00000  Uiso   1.00
H822   H     0.91369   0.23170   0.59316   0.00000  Uiso   1.00
O823   O     0.98380   0.32580   0.50965   0.00000  Uiso   1.00
C824   C     0.98055   0.33488   0.56118   0.00000  Uiso   1.00
H825   H     0.51216   0.32321   0.58119   0.00000  Uiso   1.00
H826   H     0.95277   0.31600   0.57857   0.00000  Uiso   1.00
C827   C     0.97492   0.38747   0.56863   0.00000  Uiso   1.00
H828   H     0.50057   0.40688   0.54839   0.00000  Uiso   1.00
H829   H     0.94109   0.39796   0.55305   0.00000  Uiso   1.00
C830   C     0.97929   0.40137   0.62355   0.00000  Uiso   1.00
H831   H     0.95661   0.37969   0.64548   0.00000  Uiso   1.00
H832   H     0.96983   0.43855   0.62727   0.00000  Uiso   1.00
H833   H     0.51463   0.39756   0.63871   0.00000  Uiso   1.00
O834   O     0.51665   0.16883   0.50207   0.00000  Uiso   1.00
C835   C     0.50170   0.17031   0.55090   0.00000  Uiso   1.00
H836   H     0.97335   0.19522   0.55182   0.00000  Uiso   1.00
H837   H     0.52891   0.18120   0.57917   0.00000  Uiso   1.00
C838   C     0.98546   0.12127   0.56448   0.00000  Uiso   1.00
H839   H     0.96613   0.10562   0.53183   0.00000  Uiso   1.00
H840   H     0.51492   0.09875   0.57410   0.00000  Uiso   1.00
C841   C     0.95579   0.12134   0.60854   0.00000  Uiso   1.00
H842   H     0.97523   0.13393   0.64264   0.00000  Uiso   1.00
H843   H     0.94392   0.08525   0.61561   0.00000  Uiso   1.00
H844   H     0.92592   0.14356   0.60004   0.00000  Uiso   1.00
O845   O     0.61216   0.33222   0.47266   0.00000  Uiso   1.00
C846   C     0.60681   0.35555   0.51813   0.00000  Uiso   1.00
H847   H     0.62810   0.33859   0.54835   0.00000  Uiso   1.00
H848   H     0.57099   0.35527   0.52772   0.00000  Uiso   1.00
C849   C     0.62187   0.40636   0.51408   0.00000  Uiso   1.00
H850   H     0.65695   0.40768   0.50301   0.00000  Uiso   1.00
H851   H     0.60005   0.42442   0.48502   0.00000  Uiso   1.00
C852   C     0.61974   0.43164   0.56389   0.00000  Uiso   1.00
H853   H     0.58449   0.43274   0.57503   0.00000  Uiso   1.00
H854   H     0.63247   0.46791   0.56044   0.00000  Uiso   1.00
H855   H     0.64110   0.41373   0.59344   0.00000  Uiso   1.00
O856   O     0.87257   0.17971   0.43783   0.00000  Uiso   1.00
C857   C     0.87819   0.13771   0.46526   0.00000  Uiso   1.00
H858   H     0.84400   0.12411   0.47150   0.00000  Uiso   1.00
H859   H     0.89582   0.14205   0.50302   0.00000  Uiso   1.00
C860   C     0.90242   0.10161   0.43497   0.00000  Uiso   1.00
H861   H     0.88831   0.10197   0.39556   0.00000  Uiso   1.00
H862   H     0.93879   0.11063   0.43549   0.00000  Uiso   1.00
C863   C     0.89715   0.05249   0.45611   0.00000  Uiso   1.00
H864   H     0.91012   0.05115   0.49583   0.00000  Uiso   1.00
H865   H     0.91638   0.02744   0.43444   0.00000  Uiso   1.00
H866   H     0.86114   0.04171   0.45338   0.00000  Uiso   1.00
O867   O     0.89078   0.33446   0.50673   0.00000  Uiso   1.00
C868   C     0.87491   0.35750   0.46208   0.00000  Uiso   1.00
H869   H     0.84711   0.38079   0.47165   0.00000  Uiso   1.00
H870   H     0.86021   0.33304   0.43290   0.00000  Uiso   1.00
C871   C     0.91177   0.38754   0.44036   0.00000  Uiso   1.00
H872   H     0.92547   0.41283   0.46881   0.00000  Uiso   1.00
H873   H     0.93958   0.36507   0.42916   0.00000  Uiso   1.00
C874   C     0.89333   0.41460   0.39455   0.00000  Uiso   1.00
H875   H     0.88115   0.39008   0.36452   0.00000  Uiso   1.00
H876   H     0.92042   0.43681   0.38037   0.00000  Uiso   1.00
H877   H     0.86525   0.43744   0.40432   0.00000  Uiso   1.00
O878   O     0.60790   0.17103   0.53077   0.00000  Uiso   1.00
C879   C     0.61574   0.13350   0.49816   0.00000  Uiso   1.00
H880   H     0.65225   0.12631   0.50218   0.00000  Uiso   1.00
H881   H     0.60630   0.14069   0.45791   0.00000  Uiso   1.00
C882   C     0.59120   0.08920   0.51354   0.00000  Uiso   1.00
H883   H     0.59553   0.08452   0.55469   0.00000  Uiso   1.00
H884   H     0.55491   0.09209   0.50220   0.00000  Uiso   1.00
C885   C     0.60890   0.04612   0.48805   0.00000  Uiso   1.00
H886   H     0.60768   0.05115   0.44693   0.00000  Uiso   1.00
H887   H     0.58770   0.01541   0.49629   0.00000  Uiso   1.00
H888   H     0.64408   0.03911   0.50218   0.00000  Uiso   1.00
O889   O     0.18453   0.78974   0.50000   0.00000  Uiso   1.00
O890   O     0.31547   0.71026   0.50000   0.00000  Uiso   1.00
O891   O     0.31547   0.78974   0.50000   0.00000  Uiso   1.00
O892   O     0.18453   0.71026   0.50000   0.00000  Uiso   1.00
C893   C     0.16335   0.74979   0.50100   0.00000  Uiso   1.00
C894   C     0.33599   0.75033   0.49701   0.00000  Uiso   1.00
O895   O     0.25000   0.78973   0.42845   0.00000  Uiso   1.00
O896   O     0.25000   0.71027   0.57155   0.00000  Uiso   1.00
O897   O     0.25000   0.78973   0.57155   0.00000  Uiso   1.00
O898   O     0.25000   0.71027   0.42845   0.00000  Uiso   1.00
C899   C     0.22948   0.55229   0.46101   0.00000  Uiso   1.00
C900   C     0.26699   0.94732   0.54209   0.00000  Uiso   1.00
C901   C     0.27268   0.55305   0.53915   0.00000  Uiso   1.00
C902   C     0.23628   0.94762   0.45776   0.00000  Uiso   1.00
C903   C     0.24993   0.75002   0.40626   0.00000  Uiso   1.00
C904   C     0.25028   0.74998   0.59375   0.00000  Uiso   1.00
Zn905  Zn    0.25000   0.80307   0.50000   0.00000  Uiso   1.00
Zn906  Zn    0.25000   0.69693   0.50000   0.00000  Uiso   1.00
N907   N     0.25000   0.62623   0.50000   0.00000  Uiso   1.00
N908   N     0.25000   0.87376   0.50000   0.00000  Uiso   1.00
C909   C     0.25118   0.52668   0.50021   0.00000  Uiso   1.00
C910   C     0.25143   0.97346   0.50014   0.00000  Uiso   1.00
C911   C     0.25015   0.75004   0.35513   0.00000  Uiso   1.00
C912   C     0.25028   0.74998   0.64490   0.00000  Uiso   1.00
C913   C     0.04842   0.78395   0.45312   0.00000  Uiso   1.00
C914   C     0.44424   0.71889   0.44279   0.00000  Uiso   1.00
C915   C     0.45594   0.78917   0.49298   0.00000  Uiso   1.00
C916   C     0.04189   0.70825   0.49288   0.00000  Uiso   1.00
C917   C     0.09163   0.78891   0.47498   0.00000  Uiso   1.00
C918   C     0.40067   0.71435   0.45847   0.00000  Uiso   1.00
C919   C     0.40942   0.79207   0.49496   0.00000  Uiso   1.00
C920   C     0.08862   0.70834   0.50448   0.00000  Uiso   1.00
C921   C     0.11389   0.74942   0.49578   0.00000  Uiso   1.00
C922   C     0.38300   0.75149   0.48531   0.00000  Uiso   1.00
C923   C     0.02200   0.74626   0.46678   0.00000  Uiso   1.00
C924   C     0.47335   0.75220   0.46591   0.00000  Uiso   1.00
C925   C     0.22961   0.60134   0.46071   0.00000  Uiso   1.00
C926   C     0.26847   0.89820   0.54068   0.00000  Uiso   1.00
C927   C     0.27188   0.60217   0.53874   0.00000  Uiso   1.00
C928   C     0.23372   0.89859   0.45870   0.00000  Uiso   1.00
H929   H     0.21089   0.53503   0.43045   0.00000  Uiso   1.00
H930   H     0.27962   0.96433   0.57604   0.00000  Uiso   1.00
H931   H     0.29152   0.53636   0.56982   0.00000  Uiso   1.00
H932   H     0.22493   0.96477   0.42356   0.00000  Uiso   1.00
C933   C     0.20741   0.62387   0.41608   0.00000  Uiso   1.00
O934   O     0.18116   0.65586   0.42014   0.00000  Uiso   1.00
O935   O     0.21471   0.60635   0.36873   0.00000  Uiso   1.00
H936   H     0.19737   0.62396   0.34097   0.00000  Uiso   1.00
C937   C     0.29270   0.87501   0.58342   0.00000  Uiso   1.00
O938   O     0.32191   0.84656   0.57655   0.00000  Uiso   1.00
O939   O     0.28454   0.88830   0.63202   0.00000  Uiso   1.00
H940   H     0.30334   0.87022   0.65822   0.00000  Uiso   1.00
C941   C     0.29637   0.62611   0.58090   0.00000  Uiso   1.00
O942   O     0.32769   0.65239   0.57365   0.00000  Uiso   1.00
O943   O     0.28561   0.61597   0.62965   0.00000  Uiso   1.00
H944   H     0.30513   0.63387   0.65560   0.00000  Uiso   1.00
C945   C     0.21062   0.87617   0.41459   0.00000  Uiso   1.00
O946   O     0.18331   0.84502   0.41971   0.00000  Uiso   1.00
O947   O     0.21735   0.89324   0.36685   0.00000  Uiso   1.00
H948   H     0.19876   0.87587   0.33971   0.00000  Uiso   1.00
O949   O     0.03078   0.81835   0.42161   0.00000  Uiso   1.00
C950   C     0.04073   0.80715   0.37209   0.00000  Uiso   1.00
H951   H     0.01660   0.82608   0.34649   0.00000  Uiso   1.00
H952   H     0.03562   0.76935   0.36334   0.00000  Uiso   1.00
C953   C     0.08895   0.82175   0.36166   0.00000  Uiso   1.00
H954   H     0.09589   0.85776   0.37563   0.00000  Uiso   1.00
H955   H     0.11305   0.79735   0.38100   0.00000  Uiso   1.00
C956   C     0.09698   0.82001   0.63978   0.00000  Uiso   1.00
H957   H     0.08558   0.78609   0.62319   0.00000  Uiso   1.00
H958   H     0.13355   0.82430   0.63510   0.00000  Uiso   1.00
H959   H     0.07896   0.84907   0.62021   0.00000  Uiso   1.00
O960   O     0.45649   0.69461   0.40140   0.00000  Uiso   1.00
C961   C     0.44794   0.72323   0.35845   0.00000  Uiso   1.00
H962   H     0.47072   0.71208   0.66306   0.00000  Uiso   1.00
H963   H     0.45592   0.76081   0.36560   0.00000  Uiso   1.00
C964   C     0.39888   0.71867   0.33706   0.00000  Uiso   1.00
H965   H     0.38985   0.68130   0.66482   0.00000  Uiso   1.00
H966   H     0.37587   0.73392   0.36337   0.00000  Uiso   1.00
C967   C     0.39121   0.74494   0.62119   0.00000  Uiso   1.00
H968   H     0.39747   0.78281   0.62724   0.00000  Uiso   1.00
H969   H     0.35575   0.74017   0.60655   0.00000  Uiso   1.00
H970   H     0.41369   0.73170   0.59316   0.00000  Uiso   1.00
O971   O     0.48380   0.82580   0.50965   0.00000  Uiso   1.00
C972   C     0.48055   0.83488   0.56118   0.00000  Uiso   1.00
H973   H     0.01216   0.82321   0.58119   0.00000  Uiso   1.00
H974   H     0.45277   0.81600   0.57857   0.00000  Uiso   1.00
C975   C     0.47492   0.88747   0.56863   0.00000  Uiso   1.00
H976   H     0.00057   0.90688   0.54839   0.00000  Uiso   1.00
H977   H     0.44109   0.89796   0.55305   0.00000  Uiso   1.00
C978   C     0.47929   0.90137   0.62355   0.00000  Uiso   1.00
H979   H     0.45661   0.87969   0.64548   0.00000  Uiso   1.00
H980   H     0.46983   0.93855   0.62727   0.00000  Uiso   1.00
H981   H     0.01463   0.89756   0.63871   0.00000  Uiso   1.00
O982   O     0.01665   0.66883   0.50207   0.00000  Uiso   1.00
C983   C     0.00170   0.67031   0.55090   0.00000  Uiso   1.00
H984   H     0.47335   0.69522   0.55182   0.00000  Uiso   1.00
H985   H     0.02891   0.68120   0.57917   0.00000  Uiso   1.00
C986   C     0.48546   0.62127   0.56448   0.00000  Uiso   1.00
H987   H     0.46613   0.60562   0.53183   0.00000  Uiso   1.00
H988   H     0.01492   0.59875   0.57410   0.00000  Uiso   1.00
C989   C     0.45579   0.62134   0.60854   0.00000  Uiso   1.00
H990   H     0.47523   0.63393   0.64264   0.00000  Uiso   1.00
H991   H     0.44392   0.58525   0.61561   0.00000  Uiso   1.00
H992   H     0.42592   0.64356   0.60004   0.00000  Uiso   1.00
O993   O     0.11216   0.83222   0.47266   0.00000  Uiso   1.00
C994   C     0.10681   0.85555   0.51813   0.00000  Uiso   1.00
H995   H     0.12810   0.83859   0.54835   0.00000  Uiso   1.00
H996   H     0.07099   0.85527   0.52772   0.00000  Uiso   1.00
C997   C     0.12187   0.90636   0.51408   0.00000  Uiso   1.00
H998   H     0.15695   0.90768   0.50301   0.00000  Uiso   1.00
H999   H     0.10005   0.92442   0.48502   0.00000  Uiso   1.00
C1000  C     0.11974   0.93164   0.56389   0.00000  Uiso   1.00
H1001  H     0.08449   0.93274   0.57503   0.00000  Uiso   1.00
H1002  H     0.13247   0.96791   0.56044   0.00000  Uiso   1.00
H1003  H     0.14110   0.91373   0.59344   0.00000  Uiso   1.00
O1004  O     0.37257   0.67971   0.43783   0.00000  Uiso   1.00
C1005  C     0.37819   0.63771   0.46526   0.00000  Uiso   1.00
H1006  H     0.34400   0.62411   0.47150   0.00000  Uiso   1.00
H1007  H     0.39582   0.64205   0.50302   0.00000  Uiso   1.00
C1008  C     0.40242   0.60161   0.43497   0.00000  Uiso   1.00
H1009  H     0.38831   0.60197   0.39556   0.00000  Uiso   1.00
H1010  H     0.43879   0.61063   0.43549   0.00000  Uiso   1.00
C1011  C     0.39715   0.55249   0.45611   0.00000  Uiso   1.00
H1012  H     0.41012   0.55115   0.49583   0.00000  Uiso   1.00
H1013  H     0.41638   0.52744   0.43444   0.00000  Uiso   1.00
H1014  H     0.36114   0.54171   0.45338   0.00000  Uiso   1.00
O1015  O     0.39078   0.83446   0.50673   0.00000  Uiso   1.00
C1016  C     0.37491   0.85750   0.46208   0.00000  Uiso   1.00
H1017  H     0.34711   0.88079   0.47165   0.00000  Uiso   1.00
H1018  H     0.36021   0.83304   0.43290   0.00000  Uiso   1.00
C1019  C     0.41177   0.88754   0.44036   0.00000  Uiso   1.00
H1020  H     0.42547   0.91283   0.46881   0.00000  Uiso   1.00
H1021  H     0.43958   0.86507   0.42916   0.00000  Uiso   1.00
C1022  C     0.39333   0.91460   0.39455   0.00000  Uiso   1.00
H1023  H     0.38115   0.89008   0.36452   0.00000  Uiso   1.00
H1024  H     0.42042   0.93681   0.38037   0.00000  Uiso   1.00
H1025  H     0.36525   0.93744   0.40432   0.00000  Uiso   1.00
O1026  O     0.10790   0.67103   0.53077   0.00000  Uiso   1.00
C1027  C     0.11574   0.63350   0.49816   0.00000  Uiso   1.00
H1028  H     0.15225   0.62631   0.50218   0.00000  Uiso   1.00
H1029  H     0.10630   0.64069   0.45791   0.00000  Uiso   1.00
C1030  C     0.09120   0.58920   0.51354   0.00000  Uiso   1.00
H1031  H     0.09553   0.58452   0.55469   0.00000  Uiso   1.00
H1032  H     0.05491   0.59209   0.50220   0.00000  Uiso   1.00
C1033  C     0.10890   0.54612   0.48805   0.00000  Uiso   1.00
H1034  H     0.10768   0.55115   0.44693   0.00000  Uiso   1.00
H1035  H     0.08770   0.51541   0.49629   0.00000  Uiso   1.00
H1036  H     0.14408   0.53911   0.50218   0.00000  Uiso   1.00
O1037  O     0.68453   0.78974   0.50000   0.00000  Uiso   1.00
O1038  O     0.81547   0.71026   0.50000   0.00000  Uiso   1.00
O1039  O     0.81547   0.78974   0.50000   0.00000  Uiso   1.00
O1040  O     0.68453   0.71026   0.50000   0.00000  Uiso   1.00
C1041  C     0.66335   0.74979   0.50100   0.00000  Uiso   1.00
C1042  C     0.83599   0.75033   0.49701   0.00000  Uiso   1.00
O1043  O     0.75000   0.78973   0.42845   0.00000  Uiso   1.00
O1044  O     0.75000   0.71027   0.57155   0.00000  Uiso   1.00
O1045  O     0.75000   0.78973   0.57155   0.00000  Uiso   1.00
O1046  O     0.75000   0.71027   0.42845   0.00000  Uiso   1.00
C1047  C     0.72948   0.55229   0.46101   0.00000  Uiso   1.00
C1048  C     0.76699   0.94732   0.54209   0.00000  Uiso   1.00
C1049  C     0.77268   0.55305   0.53915   0.00000  Uiso   1.00
C1050  C     0.73628   0.94762   0.45776   0.00000  Uiso   1.00
C1051  C     0.74993   0.75002   0.40626   0.00000  Uiso   1.00
C1052  C     0.75028   0.74998   0.59375   0.00000  Uiso   1.00
Zn1053 Zn    0.75000   0.80307   0.50000   0.00000  Uiso   1.00
Zn1054 Zn    0.75000   0.69693   0.50000   0.00000  Uiso   1.00
N1055  N     0.75000   0.62623   0.50000   0.00000  Uiso   1.00
N1056  N     0.75000   0.87376   0.50000   0.00000  Uiso   1.00
C1057  C     0.75118   0.52668   0.50021   0.00000  Uiso   1.00
C1058  C     0.75143   0.97346   0.50014   0.00000  Uiso   1.00
C1059  C     0.75015   0.75004   0.35513   0.00000  Uiso   1.00
C1060  C     0.75028   0.74998   0.64490   0.00000  Uiso   1.00
C1061  C     0.54842   0.78395   0.45312   0.00000  Uiso   1.00
C1062  C     0.94424   0.71889   0.44279   0.00000  Uiso   1.00
C1063  C     0.95594   0.78917   0.49298   0.00000  Uiso   1.00
C1064  C     0.54189   0.70825   0.49288   0.00000  Uiso   1.00
C1065  C     0.59163   0.78891   0.47498   0.00000  Uiso   1.00
C1066  C     0.90067   0.71435   0.45847   0.00000  Uiso   1.00
C1067  C     0.90942   0.79207   0.49496   0.00000  Uiso   1.00
C1068  C     0.58862   0.70834   0.50448   0.00000  Uiso   1.00
C1069  C     0.61389   0.74942   0.49578   0.00000  Uiso   1.00
C1070  C     0.88300   0.75149   0.48531   0.00000  Uiso   1.00
C1071  C     0.52200   0.74626   0.46678   0.00000  Uiso   1.00
C1072  C     0.97335   0.75220   0.46591   0.00000  Uiso   1.00
C1073  C     0.72961   0.60134   0.46071   0.00000  Uiso   1.00
C1074  C     0.76847   0.89820   0.54068   0.00000  Uiso   1.00
C1075  C     0.77188   0.60217   0.53874   0.00000  Uiso   1.00
C1076  C     0.73372   0.89859   0.45870   0.00000  Uiso   1.00
H1077  H     0.71089   0.53503   0.43045   0.00000  Uiso   1.00
H1078  H     0.77962   0.96433   0.57604   0.00000  Uiso   1.00
H1079  H     0.79152   0.53636   0.56982   0.00000  Uiso   1.00
H1080  H     0.72493   0.96477   0.42356   0.00000  Uiso   1.00
C1081  C     0.70741   0.62387   0.41608   0.00000  Uiso   1.00
O1082  O     0.68116   0.65586   0.42014   0.00000  Uiso   1.00
O1083  O     0.71471   0.60635   0.36873   0.00000  Uiso   1.00
H1084  H     0.69737   0.62396   0.34097   0.00000  Uiso   1.00
C1085  C     0.79270   0.87501   0.58342   0.00000  Uiso   1.00
O1086  O     0.82191   0.84656   0.57655   0.00000  Uiso   1.00
O1087  O     0.78454   0.88830   0.63202   0.00000  Uiso   1.00
H1088  H     0.80334   0.87022   0.65822   0.00000  Uiso   1.00
C1089  C     0.79637   0.62611   0.58090   0.00000  Uiso   1.00
O1090  O     0.82769   0.65239   0.57365   0.00000  Uiso   1.00
O1091  O     0.78561   0.61597   0.62965   0.00000  Uiso   1.00
H1092  H     0.80513   0.63387   0.65560   0.00000  Uiso   1.00
C1093  C     0.71062   0.87617   0.41459   0.00000  Uiso   1.00
O1094  O     0.68331   0.84502   0.41971   0.00000  Uiso   1.00
O1095  O     0.71735   0.89324   0.36685   0.00000  Uiso   1.00
H1096  H     0.69876   0.87587   0.33971   0.00000  Uiso   1.00
O1097  O     0.53078   0.81835   0.42161   0.00000  Uiso   1.00
C1098  C     0.54073   0.80715   0.37209   0.00000  Uiso   1.00
H1099  H     0.51660   0.82608   0.34649   0.00000  Uiso   1.00
H1100  H     0.53562   0.76935   0.36334   0.00000  Uiso   1.00
C1101  C     0.58895   0.82175   0.36166   0.00000  Uiso   1.00
H1102  H     0.59589   0.85776   0.37563   0.00000  Uiso   1.00
H1103  H     0.61305   0.79735   0.38100   0.00000  Uiso   1.00
C1104  C     0.59698   0.82001   0.63978   0.00000  Uiso   1.00
H1105  H     0.58558   0.78609   0.62319   0.00000  Uiso   1.00
H1106  H     0.63355   0.82430   0.63510   0.00000  Uiso   1.00
H1107  H     0.57896   0.84907   0.62021   0.00000  Uiso   1.00
O1108  O     0.95649   0.69461   0.40140   0.00000  Uiso   1.00
C1109  C     0.94794   0.72323   0.35845   0.00000  Uiso   1.00
H1110  H     0.97072   0.71208   0.66306   0.00000  Uiso   1.00
H1111  H     0.95592   0.76081   0.36560   0.00000  Uiso   1.00
C1112  C     0.89888   0.71867   0.33706   0.00000  Uiso   1.00
H1113  H     0.88985   0.68130   0.66482   0.00000  Uiso   1.00
H1114  H     0.87587   0.73392   0.36337   0.00000  Uiso   1.00
C1115  C     0.89121   0.74494   0.62119   0.00000  Uiso   1.00
H1116  H     0.89747   0.78281   0.62724   0.00000  Uiso   1.00
H1117  H     0.85575   0.74017   0.60655   0.00000  Uiso   1.00
H1118  H     0.91369   0.73170   0.59316   0.00000  Uiso   1.00
O1119  O     0.98380   0.82580   0.50965   0.00000  Uiso   1.00
C1120  C     0.98055   0.83488   0.56118   0.00000  Uiso   1.00
H1121  H     0.51216   0.82321   0.58119   0.00000  Uiso   1.00
H1122  H     0.95277   0.81600   0.57857   0.00000  Uiso   1.00
C1123  C     0.97492   0.88747   0.56863   0.00000  Uiso   1.00
H1124  H     0.50057   0.90688   0.54839   0.00000  Uiso   1.00
H1125  H     0.94109   0.89796   0.55305   0.00000  Uiso   1.00
C1126  C     0.97929   0.90137   0.62355   0.00000  Uiso   1.00
H1127  H     0.95661   0.87969   0.64548   0.00000  Uiso   1.00
H1128  H     0.96983   0.93855   0.62727   0.00000  Uiso   1.00
H1129  H     0.51463   0.89756   0.63871   0.00000  Uiso   1.00
O1130  O     0.51665   0.66883   0.50207   0.00000  Uiso   1.00
C1131  C     0.50170   0.67031   0.55090   0.00000  Uiso   1.00
H1132  H     0.97335   0.69522   0.55182   0.00000  Uiso   1.00
H1133  H     0.52891   0.68120   0.57917   0.00000  Uiso   1.00
C1134  C     0.98546   0.62127   0.56448   0.00000  Uiso   1.00
H1135  H     0.96613   0.60562   0.53183   0.00000  Uiso   1.00
H1136  H     0.51492   0.59875   0.57410   0.00000  Uiso   1.00
C1137  C     0.95579   0.62134   0.60854   0.00000  Uiso   1.00
H1138  H     0.97523   0.63393   0.64264   0.00000  Uiso   1.00
H1139  H     0.94392   0.58525   0.61561   0.00000  Uiso   1.00
H1140  H     0.92592   0.64356   0.60004   0.00000  Uiso   1.00
O1141  O     0.61216   0.83222   0.47266   0.00000  Uiso   1.00
C1142  C     0.60681   0.85555   0.51813   0.00000  Uiso   1.00
H1143  H     0.62810   0.83859   0.54835   0.00000  Uiso   1.00
H1144  H     0.57099   0.85527   0.52772   0.00000  Uiso   1.00
C1145  C     0.62187   0.90636   0.51408   0.00000  Uiso   1.00
H1146  H     0.65695   0.90768   0.50301   0.00000  Uiso   1.00
H1147  H     0.60005   0.92442   0.48502   0.00000  Uiso   1.00
C1148  C     0.61974   0.93164   0.56389   0.00000  Uiso   1.00
H1149  H     0.58449   0.93274   0.57503   0.00000  Uiso   1.00
H1150  H     0.63247   0.96791   0.56044   0.00000  Uiso   1.00
H1151  H     0.64110   0.91373   0.59344   0.00000  Uiso   1.00
O1152  O     0.87257   0.67971   0.43783   0.00000  Uiso   1.00
C1153  C     0.87819   0.63771   0.46526   0.00000  Uiso   1.00
H1154  H     0.84400   0.62411   0.47150   0.00000  Uiso   1.00
H1155  H     0.89582   0.64205   0.50302   0.00000  Uiso   1.00
C1156  C     0.90242   0.60161   0.43497   0.00000  Uiso   1.00
H1157  H     0.88831   0.60197   0.39556   0.00000  Uiso   1.00
H1158  H     0.93879   0.61063   0.43549   0.00000  Uiso   1.00
C1159  C     0.89715   0.55249   0.45611   0.00000  Uiso   1.00
H1160  H     0.91012   0.55115   0.49583   0.00000  Uiso   1.00
H1161  H     0.91638   0.52744   0.43444   0.00000  Uiso   1.00
H1162  H     0.86114   0.54171   0.45338   0.00000  Uiso   1.00
O1163  O     0.89078   0.83446   0.50673   0.00000  Uiso   1.00
C1164  C     0.87491   0.85750   0.46208   0.00000  Uiso   1.00
H1165  H     0.84711   0.88079   0.47165   0.00000  Uiso   1.00
H1166  H     0.86021   0.83304   0.43290   0.00000  Uiso   1.00
C1167  C     0.91177   0.88754   0.44036   0.00000  Uiso   1.00
H1168  H     0.92547   0.91283   0.46881   0.00000  Uiso   1.00
H1169  H     0.93958   0.86507   0.42916   0.00000  Uiso   1.00
C1170  C     0.89333   0.91460   0.39455   0.00000  Uiso   1.00
H1171  H     0.88115   0.89008   0.36452   0.00000  Uiso   1.00
H1172  H     0.92042   0.93681   0.38037   0.00000  Uiso   1.00
H1173  H     0.86525   0.93744   0.40432   0.00000  Uiso   1.00
O1174  O     0.60790   0.67103   0.53077   0.00000  Uiso   1.00
C1175  C     0.61574   0.63350   0.49816   0.00000  Uiso   1.00
H1176  H     0.65225   0.62631   0.50218   0.00000  Uiso   1.00
H1177  H     0.60630   0.64069   0.45791   0.00000  Uiso   1.00
C1178  C     0.59120   0.58920   0.51354   0.00000  Uiso   1.00
H1179  H     0.59553   0.58452   0.55469   0.00000  Uiso   1.00
H1180  H     0.55491   0.59209   0.50220   0.00000  Uiso   1.00
C1181  C     0.60890   0.54612   0.48805   0.00000  Uiso   1.00
H1182  H     0.60768   0.55115   0.44693   0.00000  Uiso   1.00
H1183  H     0.58770   0.51541   0.49629   0.00000  Uiso   1.00
H1184  H     0.64408   0.53911   0.50218   0.00000  Uiso   1.00
O1185  O     0.18453   0.28974   0.83334   0.00000  Uiso   1.00
O1186  O     0.31547   0.21026   0.83333   0.00000  Uiso   1.00
O1187  O     0.31547   0.28974   0.83333   0.00000  Uiso   1.00
O1188  O     0.18453   0.21026   0.83334   0.00000  Uiso   1.00
C1189  C     0.16335   0.24979   0.83434   0.00000  Uiso   1.00
C1190  C     0.33599   0.25033   0.83034   0.00000  Uiso   1.00
O1191  O     0.25000   0.28973   0.76178   0.00000  Uiso   1.00
O1192  O     0.25000   0.21027   0.90489   0.00000  Uiso   1.00
O1193  O     0.25000   0.28973   0.90489   0.00000  Uiso   1.00
O1194  O     0.25000   0.21027   0.76178   0.00000  Uiso   1.00
C1195  C     0.22948   0.05229   0.79435   0.00000  Uiso   1.00
C1196  C     0.26699   0.44732   0.87542   0.00000  Uiso   1.00
C1197  C     0.27268   0.05305   0.87248   0.00000  Uiso   1.00
C1198  C     0.23628   0.44762   0.79110   0.00000  Uiso   1.00
C1199  C     0.24993   0.25002   0.73960   0.00000  Uiso   1.00
C1200  C     0.25028   0.24998   0.92708   0.00000  Uiso   1.00
Zn1201 Zn    0.25000   0.30307   0.83333   0.00000  Uiso   1.00
Zn1202 Zn    0.25000   0.19693   0.83333   0.00000  Uiso   1.00
N1203  N     0.25000   0.12623   0.83333   0.00000  Uiso   1.00
N1204  N     0.25000   0.37376   0.83333   0.00000  Uiso   1.00
C1205  C     0.25118   0.02668   0.83355   0.00000  Uiso   1.00
C1206  C     0.25143   0.47346   0.83347   0.00000  Uiso   1.00
C1207  C     0.25015   0.25004   0.68846   0.00000  Uiso   1.00
C1208  C     0.25028   0.24998   0.97824   0.00000  Uiso   1.00
C1209  C     0.04842   0.28395   0.78645   0.00000  Uiso   1.00
C1210  C     0.44424   0.21889   0.77612   0.00000  Uiso   1.00
C1211  C     0.45594   0.28917   0.82631   0.00000  Uiso   1.00
C1212  C     0.04189   0.20825   0.82621   0.00000  Uiso   1.00
C1213  C     0.09163   0.28891   0.80831   0.00000  Uiso   1.00
C1214  C     0.40067   0.21435   0.79180   0.00000  Uiso   1.00
C1215  C     0.40942   0.29207   0.82829   0.00000  Uiso   1.00
C1216  C     0.08862   0.20834   0.83782   0.00000  Uiso   1.00
C1217  C     0.11389   0.24942   0.82912   0.00000  Uiso   1.00
C1218  C     0.38300   0.25149   0.81864   0.00000  Uiso   1.00
C1219  C     0.02200   0.24626   0.80012   0.00000  Uiso   1.00
C1220  C     0.47335   0.25220   0.79924   0.00000  Uiso   1.00
C1221  C     0.22961   0.10134   0.79404   0.00000  Uiso   1.00
C1222  C     0.26847   0.39820   0.87401   0.00000  Uiso   1.00
C1223  C     0.27188   0.10217   0.87207   0.00000  Uiso   1.00
C1224  C     0.23372   0.39859   0.79203   0.00000  Uiso   1.00
H1225  H     0.21089   0.03503   0.76379   0.00000  Uiso   1.00
H1226  H     0.27962   0.46433   0.90937   0.00000  Uiso   1.00
H1227  H     0.29152   0.03636   0.90315   0.00000  Uiso   1.00
H1228  H     0.22493   0.46477   0.75689   0.00000  Uiso   1.00
C1229  C     0.20741   0.12387   0.74941   0.00000  Uiso   1.00
O1230  O     0.18116   0.15586   0.75347   0.00000  Uiso   1.00
O1231  O     0.21471   0.10635   0.70206   0.00000  Uiso   1.00
H1232  H     0.19737   0.12396   0.67431   0.00000  Uiso   1.00
C1233  C     0.29270   0.37501   0.91676   0.00000  Uiso   1.00
O1234  O     0.32191   0.34656   0.90989   0.00000  Uiso   1.00
O1235  O     0.28454   0.38830   0.96535   0.00000  Uiso   1.00
H1236  H     0.30334   0.37022   0.99156   0.00000  Uiso   1.00
C1237  C     0.29637   0.12611   0.91423   0.00000  Uiso   1.00
O1238  O     0.32769   0.15239   0.90699   0.00000  Uiso   1.00
O1239  O     0.28561   0.11597   0.96298   0.00000  Uiso   1.00
H1240  H     0.30513   0.13387   0.98893   0.00000  Uiso   1.00
C1241  C     0.21062   0.37617   0.74792   0.00000  Uiso   1.00
O1242  O     0.18331   0.34502   0.75305   0.00000  Uiso   1.00
O1243  O     0.21735   0.39324   0.70018   0.00000  Uiso   1.00
H1244  H     0.19876   0.37587   0.67305   0.00000  Uiso   1.00
O1245  O     0.03078   0.31835   0.75494   0.00000  Uiso   1.00
C1246  C     0.04073   0.30715   0.70543   0.00000  Uiso   1.00
H1247  H     0.01660   0.32608   0.67983   0.00000  Uiso   1.00
H1248  H     0.03562   0.26935   0.69667   0.00000  Uiso   1.00
C1249  C     0.08895   0.32175   0.69499   0.00000  Uiso   1.00
H1250  H     0.09589   0.35776   0.70896   0.00000  Uiso   1.00
H1251  H     0.11305   0.29735   0.71434   0.00000  Uiso   1.00
C1252  C     0.09698   0.32001   0.97311   0.00000  Uiso   1.00
H1253  H     0.08558   0.28609   0.95652   0.00000  Uiso   1.00
H1254  H     0.13355   0.32430   0.96843   0.00000  Uiso   1.00
H1255  H     0.07896   0.34907   0.95354   0.00000  Uiso   1.00
O1256  O     0.45649   0.19461   0.73473   0.00000  Uiso   1.00
C1257  C     0.44794   0.22323   0.69178   0.00000  Uiso   1.00
H1258  H     0.47072   0.21208   0.99639   0.00000  Uiso   1.00
H1259  H     0.45592   0.26081   0.69893   0.00000  Uiso   1.00
C1260  C     0.39888   0.21867   0.67039   0.00000  Uiso   1.00
H1261  H     0.38985   0.18130   0.99816   0.00000  Uiso   1.00
H1262  H     0.37587   0.23392   0.69671   0.00000  Uiso   1.00
C1263  C     0.39121   0.24494   0.95452   0.00000  Uiso   1.00
H1264  H     0.39747   0.28281   0.96058   0.00000  Uiso   1.00
H1265  H     0.35575   0.24017   0.93989   0.00000  Uiso   1.00
H1266  H     0.41369   0.23170   0.92649   0.00000  Uiso   1.00
O1267  O     0.48380   0.32580   0.84298   0.00000  Uiso   1.00
C1268  C     0.48055   0.33488   0.89451   0.00000  Uiso   1.00
H1269  H     0.01216   0.32321   0.91453   0.00000  Uiso   1.00
H1270  H     0.45277   0.31600   0.91190   0.00000  Uiso   1.00
C1271  C     0.47492   0.38747   0.90197   0.00000  Uiso   1.00
H1272  H     0.00057   0.40688   0.88172   0.00000  Uiso   1.00
H1273  H     0.44109   0.39796   0.88638   0.00000  Uiso   1.00
C1274  C     0.47929   0.40137   0.95688   0.00000  Uiso   1.00
H1275  H     0.45661   0.37969   0.97882   0.00000  Uiso   1.00
H1276  H     0.46983   0.43855   0.96060   0.00000  Uiso   1.00
H1277  H     0.01463   0.39756   0.97204   0.00000  Uiso   1.00
O1278  O     0.01665   0.16883   0.83541   0.00000  Uiso   1.00
C1279  C     0.00170   0.17031   0.88424   0.00000  Uiso   1.00
H1280  H     0.47335   0.19522   0.88515   0.00000  Uiso   1.00
H1281  H     0.02891   0.18120   0.91250   0.00000  Uiso   1.00
C1282  C     0.48546   0.12127   0.89781   0.00000  Uiso   1.00
H1283  H     0.46613   0.10562   0.86516   0.00000  Uiso   1.00
H1284  H     0.01492   0.09875   0.90743   0.00000  Uiso   1.00
C1285  C     0.45579   0.12134   0.94187   0.00000  Uiso   1.00
H1286  H     0.47523   0.13393   0.97597   0.00000  Uiso   1.00
H1287  H     0.44392   0.08525   0.94894   0.00000  Uiso   1.00
H1288  H     0.42592   0.14356   0.93337   0.00000  Uiso   1.00
O1289  O     0.11216   0.33222   0.80599   0.00000  Uiso   1.00
C1290  C     0.10681   0.35555   0.85146   0.00000  Uiso   1.00
H1291  H     0.12810   0.33859   0.88169   0.00000  Uiso   1.00
H1292  H     0.07099   0.35527   0.86106   0.00000  Uiso   1.00
C1293  C     0.12187   0.40636   0.84741   0.00000  Uiso   1.00
H1294  H     0.15695   0.40768   0.83634   0.00000  Uiso   1.00
H1295  H     0.10005   0.42442   0.81836   0.00000  Uiso   1.00
C1296  C     0.11974   0.43164   0.89722   0.00000  Uiso   1.00
H1297  H     0.08449   0.43274   0.90836   0.00000  Uiso   1.00
H1298  H     0.13247   0.46791   0.89377   0.00000  Uiso   1.00
H1299  H     0.14110   0.41373   0.92678   0.00000  Uiso   1.00
O1300  O     0.37257   0.17971   0.77116   0.00000  Uiso   1.00
C1301  C     0.37819   0.13771   0.79860   0.00000  Uiso   1.00
H1302  H     0.34400   0.12411   0.80483   0.00000  Uiso   1.00
H1303  H     0.39582   0.14205   0.83635   0.00000  Uiso   1.00
C1304  C     0.40242   0.10161   0.76830   0.00000  Uiso   1.00
H1305  H     0.38831   0.10197   0.72890   0.00000  Uiso   1.00
H1306  H     0.43879   0.11063   0.76883   0.00000  Uiso   1.00
C1307  C     0.39715   0.05249   0.78944   0.00000  Uiso   1.00
H1308  H     0.41012   0.05115   0.82916   0.00000  Uiso   1.00
H1309  H     0.41638   0.02744   0.76777   0.00000  Uiso   1.00
H1310  H     0.36114   0.04171   0.78671   0.00000  Uiso   1.00
O1311  O     0.39078   0.33446   0.84006   0.00000  Uiso   1.00
C1312  C     0.37491   0.35750   0.79542   0.00000  Uiso   1.00
H1313  H     0.34711   0.38079   0.80498   0.00000  Uiso   1.00
H1314  H     0.36021   0.33304   0.76623   0.00000  Uiso   1.00
C1315  C     0.41177   0.38754   0.77369   0.00000  Uiso   1.00
H1316  H     0.42547   0.41283   0.80214   0.00000  Uiso   1.00
H1317  H     0.43958   0.36507   0.76250   0.00000  Uiso   1.00
C1318  C     0.39333   0.41460   0.72788   0.00000  Uiso   1.00
H1319  H     0.38115   0.39008   0.69786   0.00000  Uiso   1.00
H1320  H     0.42042   0.43681   0.71370   0.00000  Uiso   1.00
H1321  H     0.36525   0.43744   0.73765   0.00000  Uiso   1.00
O1322  O     0.10790   0.17103   0.86411   0.00000  Uiso   1.00
C1323  C     0.11574   0.13350   0.83150   0.00000  Uiso   1.00
H1324  H     0.15225   0.12631   0.83552   0.00000  Uiso   1.00
H1325  H     0.10630   0.14069   0.79124   0.00000  Uiso   1.00
C1326  C     0.09120   0.08920   0.84687   0.00000  Uiso   1.00
H1327  H     0.09553   0.08452   0.88803   0.00000  Uiso   1.00
H1328  H     0.05491   0.09209   0.83554   0.00000  Uiso   1.00
C1329  C     0.10890   0.04612   0.82138   0.00000  Uiso   1.00
H1330  H     0.10768   0.05115   0.78026   0.00000  Uiso   1.00
H1331  H     0.08770   0.01541   0.82962   0.00000  Uiso   1.00
H1332  H     0.14408   0.03911   0.83552   0.00000  Uiso   1.00
O1333  O     0.68453   0.28974   0.83334   0.00000  Uiso   1.00
O1334  O     0.81547   0.21026   0.83333   0.00000  Uiso   1.00
O1335  O     0.81547   0.28974   0.83333   0.00000  Uiso   1.00
O1336  O     0.68453   0.21026   0.83334   0.00000  Uiso   1.00
C1337  C     0.66335   0.24979   0.83434   0.00000  Uiso   1.00
C1338  C     0.83599   0.25033   0.83034   0.00000  Uiso   1.00
O1339  O     0.75000   0.28973   0.76178   0.00000  Uiso   1.00
O1340  O     0.75000   0.21027   0.90489   0.00000  Uiso   1.00
O1341  O     0.75000   0.28973   0.90489   0.00000  Uiso   1.00
O1342  O     0.75000   0.21027   0.76178   0.00000  Uiso   1.00
C1343  C     0.72948   0.05229   0.79435   0.00000  Uiso   1.00
C1344  C     0.76699   0.44732   0.87542   0.00000  Uiso   1.00
C1345  C     0.77268   0.05305   0.87248   0.00000  Uiso   1.00
C1346  C     0.73628   0.44762   0.79110   0.00000  Uiso   1.00
C1347  C     0.74993   0.25002   0.73960   0.00000  Uiso   1.00
C1348  C     0.75028   0.24998   0.92708   0.00000  Uiso   1.00
Zn1349 Zn    0.75000   0.30307   0.83333   0.00000  Uiso   1.00
Zn1350 Zn    0.75000   0.19693   0.83333   0.00000  Uiso   1.00
N1351  N     0.75000   0.12623   0.83333   0.00000  Uiso   1.00
N1352  N     0.75000   0.37376   0.83333   0.00000  Uiso   1.00
C1353  C     0.75118   0.02668   0.83355   0.00000  Uiso   1.00
C1354  C     0.75143   0.47346   0.83347   0.00000  Uiso   1.00
C1355  C     0.75015   0.25004   0.68846   0.00000  Uiso   1.00
C1356  C     0.75028   0.24998   0.97824   0.00000  Uiso   1.00
C1357  C     0.54842   0.28395   0.78645   0.00000  Uiso   1.00
C1358  C     0.94424   0.21889   0.77612   0.00000  Uiso   1.00
C1359  C     0.95594   0.28917   0.82631   0.00000  Uiso   1.00
C1360  C     0.54189   0.20825   0.82621   0.00000  Uiso   1.00
C1361  C     0.59163   0.28891   0.80831   0.00000  Uiso   1.00
C1362  C     0.90067   0.21435   0.79180   0.00000  Uiso   1.00
C1363  C     0.90942   0.29207   0.82829   0.00000  Uiso   1.00
C1364  C     0.58862   0.20834   0.83782   0.00000  Uiso   1.00
C1365  C     0.61389   0.24942   0.82912   0.00000  Uiso   1.00
C1366  C     0.88300   0.25149   0.81864   0.00000  Uiso   1.00
C1367  C     0.52200   0.24626   0.80012   0.00000  Uiso   1.00
C1368  C     0.97335   0.25220   0.79924   0.00000  Uiso   1.00
C1369  C     0.72961   0.10134   0.79404   0.00000  Uiso   1.00
C1370  C     0.76847   0.39820   0.87401   0.00000  Uiso   1.00
C1371  C     0.77188   0.10217   0.87207   0.00000  Uiso   1.00
C1372  C     0.73372   0.39859   0.79203   0.00000  Uiso   1.00
H1373  H     0.71089   0.03503   0.76379   0.00000  Uiso   1.00
H1374  H     0.77962   0.46433   0.90937   0.00000  Uiso   1.00
H1375  H     0.79152   0.03636   0.90315   0.00000  Uiso   1.00
H1376  H     0.72493   0.46477   0.75689   0.00000  Uiso   1.00
C1377  C     0.70741   0.12387   0.74941   0.00000  Uiso   1.00
O1378  O     0.68116   0.15586   0.75347   0.00000  Uiso   1.00
O1379  O     0.71471   0.10635   0.70206   0.00000  Uiso   1.00
H1380  H     0.69737   0.12396   0.67431   0.00000  Uiso   1.00
C1381  C     0.79270   0.37501   0.91676   0.00000  Uiso   1.00
O1382  O     0.82191   0.34656   0.90989   0.00000  Uiso   1.00
O1383  O     0.78454   0.38830   0.96535   0.00000  Uiso   1.00
H1384  H     0.80334   0.37022   0.99156   0.00000  Uiso   1.00
C1385  C     0.79637   0.12611   0.91423   0.00000  Uiso   1.00
O1386  O     0.82769   0.15239   0.90699   0.00000  Uiso   1.00
O1387  O     0.78561   0.11597   0.96298   0.00000  Uiso   1.00
H1388  H     0.80513   0.13387   0.98893   0.00000  Uiso   1.00
C1389  C     0.71062   0.37617   0.74792   0.00000  Uiso   1.00
O1390  O     0.68331   0.34502   0.75305   0.00000  Uiso   1.00
O1391  O     0.71735   0.39324   0.70018   0.00000  Uiso   1.00
H1392  H     0.69876   0.37587   0.67305   0.00000  Uiso   1.00
O1393  O     0.53078   0.31835   0.75494   0.00000  Uiso   1.00
C1394  C     0.54073   0.30715   0.70543   0.00000  Uiso   1.00
H1395  H     0.51660   0.32608   0.67983   0.00000  Uiso   1.00
H1396  H     0.53562   0.26935   0.69667   0.00000  Uiso   1.00
C1397  C     0.58895   0.32175   0.69499   0.00000  Uiso   1.00
H1398  H     0.59589   0.35776   0.70896   0.00000  Uiso   1.00
H1399  H     0.61305   0.29735   0.71434   0.00000  Uiso   1.00
C1400  C     0.59698   0.32001   0.97311   0.00000  Uiso   1.00
H1401  H     0.58558   0.28609   0.95652   0.00000  Uiso   1.00
H1402  H     0.63355   0.32430   0.96843   0.00000  Uiso   1.00
H1403  H     0.57896   0.34907   0.95354   0.00000  Uiso   1.00
O1404  O     0.95649   0.19461   0.73473   0.00000  Uiso   1.00
C1405  C     0.94794   0.22323   0.69178   0.00000  Uiso   1.00
H1406  H     0.97072   0.21208   0.99639   0.00000  Uiso   1.00
H1407  H     0.95592   0.26081   0.69893   0.00000  Uiso   1.00
C1408  C     0.89888   0.21867   0.67039   0.00000  Uiso   1.00
H1409  H     0.88985   0.18130   0.99816   0.00000  Uiso   1.00
H1410  H     0.87587   0.23392   0.69671   0.00000  Uiso   1.00
C1411  C     0.89121   0.24494   0.95452   0.00000  Uiso   1.00
H1412  H     0.89747   0.28281   0.96058   0.00000  Uiso   1.00
H1413  H     0.85575   0.24017   0.93989   0.00000  Uiso   1.00
H1414  H     0.91369   0.23170   0.92649   0.00000  Uiso   1.00
O1415  O     0.98380   0.32580   0.84298   0.00000  Uiso   1.00
C1416  C     0.98055   0.33488   0.89451   0.00000  Uiso   1.00
H1417  H     0.51216   0.32321   0.91453   0.00000  Uiso   1.00
H1418  H     0.95277   0.31600   0.91190   0.00000  Uiso   1.00
C1419  C     0.97492   0.38747   0.90197   0.00000  Uiso   1.00
H1420  H     0.50057   0.40688   0.88172   0.00000  Uiso   1.00
H1421  H     0.94109   0.39796   0.88638   0.00000  Uiso   1.00
C1422  C     0.97929   0.40137   0.95688   0.00000  Uiso   1.00
H1423  H     0.95661   0.37969   0.97882   0.00000  Uiso   1.00
H1424  H     0.96983   0.43855   0.96060   0.00000  Uiso   1.00
H1425  H     0.51463   0.39756   0.97204   0.00000  Uiso   1.00
O1426  O     0.51665   0.16883   0.83541   0.00000  Uiso   1.00
C1427  C     0.50170   0.17031   0.88424   0.00000  Uiso   1.00
H1428  H     0.97335   0.19522   0.88515   0.00000  Uiso   1.00
H1429  H     0.52891   0.18120   0.91250   0.00000  Uiso   1.00
C1430  C     0.98546   0.12127   0.89781   0.00000  Uiso   1.00
H1431  H     0.96613   0.10562   0.86516   0.00000  Uiso   1.00
H1432  H     0.51492   0.09875   0.90743   0.00000  Uiso   1.00
C1433  C     0.95579   0.12134   0.94187   0.00000  Uiso   1.00
H1434  H     0.97523   0.13393   0.97597   0.00000  Uiso   1.00
H1435  H     0.94392   0.08525   0.94894   0.00000  Uiso   1.00
H1436  H     0.92592   0.14356   0.93337   0.00000  Uiso   1.00
O1437  O     0.61216   0.33222   0.80599   0.00000  Uiso   1.00
C1438  C     0.60681   0.35555   0.85146   0.00000  Uiso   1.00
H1439  H     0.62810   0.33859   0.88169   0.00000  Uiso   1.00
H1440  H     0.57099   0.35527   0.86106   0.00000  Uiso   1.00
C1441  C     0.62187   0.40636   0.84741   0.00000  Uiso   1.00
H1442  H     0.65695   0.40768   0.83634   0.00000  Uiso   1.00
H1443  H     0.60005   0.42442   0.81836   0.00000  Uiso   1.00
C1444  C     0.61974   0.43164   0.89722   0.00000  Uiso   1.00
H1445  H     0.58449   0.43274   0.90836   0.00000  Uiso   1.00
H1446  H     0.63247   0.46791   0.89377   0.00000  Uiso   1.00
H1447  H     0.64110   0.41373   0.92678   0.00000  Uiso   1.00
O1448  O     0.87257   0.17971   0.77116   0.00000  Uiso   1.00
C1449  C     0.87819   0.13771   0.79860   0.00000  Uiso   1.00
H1450  H     0.84400   0.12411   0.80483   0.00000  Uiso   1.00
H1451  H     0.89582   0.14205   0.83635   0.00000  Uiso   1.00
C1452  C     0.90242   0.10161   0.76830   0.00000  Uiso   1.00
H1453  H     0.88831   0.10197   0.72890   0.00000  Uiso   1.00
H1454  H     0.93879   0.11063   0.76883   0.00000  Uiso   1.00
C1455  C     0.89715   0.05249   0.78944   0.00000  Uiso   1.00
H1456  H     0.91012   0.05115   0.82916   0.00000  Uiso   1.00
H1457  H     0.91638   0.02744   0.76777   0.00000  Uiso   1.00
H1458  H     0.86114   0.04171   0.78671   0.00000  Uiso   1.00
O1459  O     0.89078   0.33446   0.84006   0.00000  Uiso   1.00
C1460  C     0.87491   0.35750   0.79542   0.00000  Uiso   1.00
H1461  H     0.84711   0.38079   0.80498   0.00000  Uiso   1.00
H1462  H     0.86021   0.33304   0.76623   0.00000  Uiso   1.00
C1463  C     0.91177   0.38754   0.77369   0.00000  Uiso   1.00
H1464  H     0.92547   0.41283   0.80214   0.00000  Uiso   1.00
H1465  H     0.93958   0.36507   0.76250   0.00000  Uiso   1.00
C1466  C     0.89333   0.41460   0.72788   0.00000  Uiso   1.00
H1467  H     0.88115   0.39008   0.69786   0.00000  Uiso   1.00
H1468  H     0.92042   0.43681   0.71370   0.00000  Uiso   1.00
H1469  H     0.86525   0.43744   0.73765   0.00000  Uiso   1.00
O1470  O     0.60790   0.17103   0.86411   0.00000  Uiso   1.00
C1471  C     0.61574   0.13350   0.83150   0.00000  Uiso   1.00
H1472  H     0.65225   0.12631   0.83552   0.00000  Uiso   1.00
H1473  H     0.60630   0.14069   0.79124   0.00000  Uiso   1.00
C1474  C     0.59120   0.08920   0.84687   0.00000  Uiso   1.00
H1475  H     0.59553   0.08452   0.88803   0.00000  Uiso   1.00
H1476  H     0.55491   0.09209   0.83554   0.00000  Uiso   1.00
C1477  C     0.60890   0.04612   0.82138   0.00000  Uiso   1.00
H1478  H     0.60768   0.05115   0.78026   0.00000  Uiso   1.00
H1479  H     0.58770   0.01541   0.82962   0.00000  Uiso   1.00
H1480  H     0.64408   0.03911   0.83552   0.00000  Uiso   1.00
O1481  O     0.18453   0.78974   0.83334   0.00000  Uiso   1.00
O1482  O     0.31547   0.71026   0.83333   0.00000  Uiso   1.00
O1483  O     0.31547   0.78974   0.83333   0.00000  Uiso   1.00
O1484  O     0.18453   0.71026   0.83334   0.00000  Uiso   1.00
C1485  C     0.16335   0.74979   0.83434   0.00000  Uiso   1.00
C1486  C     0.33599   0.75033   0.83034   0.00000  Uiso   1.00
O1487  O     0.25000   0.78973   0.76178   0.00000  Uiso   1.00
O1488  O     0.25000   0.71027   0.90489   0.00000  Uiso   1.00
O1489  O     0.25000   0.78973   0.90489   0.00000  Uiso   1.00
O1490  O     0.25000   0.71027   0.76178   0.00000  Uiso   1.00
C1491  C     0.22948   0.55229   0.79435   0.00000  Uiso   1.00
C1492  C     0.26699   0.94732   0.87542   0.00000  Uiso   1.00
C1493  C     0.27268   0.55305   0.87248   0.00000  Uiso   1.00
C1494  C     0.23628   0.94762   0.79110   0.00000  Uiso   1.00
C1495  C     0.24993   0.75002   0.73960   0.00000  Uiso   1.00
C1496  C     0.25028   0.74998   0.92708   0.00000  Uiso   1.00
Zn1497 Zn    0.25000   0.80307   0.83333   0.00000  Uiso   1.00
Zn1498 Zn    0.25000   0.69693   0.83333   0.00000  Uiso   1.00
N1499  N     0.25000   0.62623   0.83333   0.00000  Uiso   1.00
N1500  N     0.25000   0.87376   0.83333   0.00000  Uiso   1.00
C1501  C     0.25118   0.52668   0.83355   0.00000  Uiso   1.00
C1502  C     0.25143   0.97346   0.83347   0.00000  Uiso   1.00
C1503  C     0.25015   0.75004   0.68846   0.00000  Uiso   1.00
C1504  C     0.25028   0.74998   0.97824   0.00000  Uiso   1.00
C1505  C     0.04842   0.78395   0.78645   0.00000  Uiso   1.00
C1506  C     0.44424   0.71889   0.77612   0.00000  Uiso   1.00
C1507  C     0.45594   0.78917   0.82631   0.00000  Uiso   1.00
C1508  C     0.04189   0.70825   0.82621   0.00000  Uiso   1.00
C1509  C     0.09163   0.78891   0.80831   0.00000  Uiso   1.00
C1510  C     0.40067   0.71435   0.79180   0.00000  Uiso   1.00
C1511  C     0.40942   0.79207   0.82829   0.00000  Uiso   1.00
C1512  C     0.08862   0.70834   0.83782   0.00000  Uiso   1.00
C1513  C     0.11389   0.74942   0.82912   0.00000  Uiso   1.00
C1514  C     0.38300   0.75149   0.81864   0.00000  Uiso   1.00
C1515  C     0.02200   0.74626   0.80012   0.00000  Uiso   1.00
C1516  C     0.47335   0.75220   0.79924   0.00000  Uiso   1.00
C1517  C     0.22961   0.60134   0.79404   0.00000  Uiso   1.00
C1518  C     0.26847   0.89820   0.87401   0.00000  Uiso   1.00
C1519  C     0.27188   0.60217   0.87207   0.00000  Uiso   1.00
C1520  C     0.23372   0.89859   0.79203   0.00000  Uiso   1.00
H1521  H     0.21089   0.53503   0.76379   0.00000  Uiso   1.00
H1522  H     0.27962   0.96433   0.90937   0.00000  Uiso   1.00
H1523  H     0.29152   0.53636   0.90315   0.00000  Uiso   1.00
H1524  H     0.22493   0.96477   0.75689   0.00000  Uiso   1.00
C1525  C     0.20741   0.62387   0.74941   0.00000  Uiso   1.00
O1526  O     0.18116   0.65586   0.75347   0.00000  Uiso   1.00
O1527  O     0.21471   0.60635   0.70206   0.00000  Uiso   1.00
H1528  H     0.19737   0.62396   0.67431   0.00000  Uiso   1.00
C1529  C     0.29270   0.87501   0.91676   0.00000  Uiso   1.00
O1530  O     0.32191   0.84656   0.90989   0.00000  Uiso   1.00
O1531  O     0.28454   0.88830   0.96535   0.00000  Uiso   1.00
H1532  H     0.30334   0.87022   0.99156   0.00000  Uiso   1.00
C1533  C     0.29637   0.62611   0.91423   0.00000  Uiso   1.00
O1534  O     0.32769   0.65239   0.90699   0.00000  Uiso   1.00
O1535  O     0.28561   0.61597   0.96298   0.00000  Uiso   1.00
H1536  H     0.30513   0.63387   0.98893   0.00000  Uiso   1.00
C1537  C     0.21062   0.87617   0.74792   0.00000  Uiso   1.00
O1538  O     0.18331   0.84502   0.75305   0.00000  Uiso   1.00
O1539  O     0.21735   0.89324   0.70018   0.00000  Uiso   1.00
H1540  H     0.19876   0.87587   0.67305   0.00000  Uiso   1.00
O1541  O     0.03078   0.81835   0.75494   0.00000  Uiso   1.00
C1542  C     0.04073   0.80715   0.70543   0.00000  Uiso   1.00
H1543  H     0.01660   0.82608   0.67983   0.00000  Uiso   1.00
H1544  H     0.03562   0.76935   0.69667   0.00000  Uiso   1.00
C1545  C     0.08895   0.82175   0.69499   0.00000  Uiso   1.00
H1546  H     0.09589   0.85776   0.70896   0.00000  Uiso   1.00
H1547  H     0.11305   0.79735   0.71434   0.00000  Uiso   1.00
C1548  C     0.09698   0.82001   0.97311   0.00000  Uiso   1.00
H1549  H     0.08558   0.78609   0.95652   0.00000  Uiso   1.00
H1550  H     0.13355   0.82430   0.96843   0.00000  Uiso   1.00
H1551  H     0.07896   0.84907   0.95354   0.00000  Uiso   1.00
O1552  O     0.45649   0.69461   0.73473   0.00000  Uiso   1.00
C1553  C     0.44794   0.72323   0.69178   0.00000  Uiso   1.00
H1554  H     0.47072   0.71208   0.99639   0.00000  Uiso   1.00
H1555  H     0.45592   0.76081   0.69893   0.00000  Uiso   1.00
C1556  C     0.39888   0.71867   0.67039   0.00000  Uiso   1.00
H1557  H     0.38985   0.68130   0.99816   0.00000  Uiso   1.00
H1558  H     0.37587   0.73392   0.69671   0.00000  Uiso   1.00
C1559  C     0.39121   0.74494   0.95452   0.00000  Uiso   1.00
H1560  H     0.39747   0.78281   0.96058   0.00000  Uiso   1.00
H1561  H     0.35575   0.74017   0.93989   0.00000  Uiso   1.00
H1562  H     0.41369   0.73170   0.92649   0.00000  Uiso   1.00
O1563  O     0.48380   0.82580   0.84298   0.00000  Uiso   1.00
C1564  C     0.48055   0.83488   0.89451   0.00000  Uiso   1.00
H1565  H     0.01216   0.82321   0.91453   0.00000  Uiso   1.00
H1566  H     0.45277   0.81600   0.91190   0.00000  Uiso   1.00
C1567  C     0.47492   0.88747   0.90197   0.00000  Uiso   1.00
H1568  H     0.00057   0.90688   0.88172   0.00000  Uiso   1.00
H1569  H     0.44109   0.89796   0.88638   0.00000  Uiso   1.00
C1570  C     0.47929   0.90137   0.95688   0.00000  Uiso   1.00
H1571  H     0.45661   0.87969   0.97882   0.00000  Uiso   1.00
H1572  H     0.46983   0.93855   0.96060   0.00000  Uiso   1.00
H1573  H     0.01463   0.89756   0.97204   0.00000  Uiso   1.00
O1574  O     0.01665   0.66883   0.83541   0.00000  Uiso   1.00
C1575  C     0.00170   0.67031   0.88424   0.00000  Uiso   1.00
H1576  H     0.47335   0.69522   0.88515   0.00000  Uiso   1.00
H1577  H     0.02891   0.68120   0.91250   0.00000  Uiso   1.00
C1578  C     0.48546   0.62127   0.89781   0.00000  Uiso   1.00
H1579  H     0.46613   0.60562   0.86516   0.00000  Uiso   1.00
H1580  H     0.01492   0.59875   0.90743   0.00000  Uiso   1.00
C1581  C     0.45579   0.62134   0.94187   0.00000  Uiso   1.00
H1582  H     0.47523   0.63393   0.97597   0.00000  Uiso   1.00
H1583  H     0.44392   0.58525   0.94894   0.00000  Uiso   1.00
H1584  H     0.42592   0.64356   0.93337   0.00000  Uiso   1.00
O1585  O     0.11216   0.83222   0.80599   0.00000  Uiso   1.00
C1586  C     0.10681   0.85555   0.85146   0.00000  Uiso   1.00
H1587  H     0.12810   0.83859   0.88169   0.00000  Uiso   1.00
H1588  H     0.07099   0.85527   0.86106   0.00000  Uiso   1.00
C1589  C     0.12187   0.90636   0.84741   0.00000  Uiso   1.00
H1590  H     0.15695   0.90768   0.83634   0.00000  Uiso   1.00
H1591  H     0.10005   0.92442   0.81836   0.00000  Uiso   1.00
C1592  C     0.11974   0.93164   0.89722   0.00000  Uiso   1.00
H1593  H     0.08449   0.93274   0.90836   0.00000  Uiso   1.00
H1594  H     0.13247   0.96791   0.89377   0.00000  Uiso   1.00
H1595  H     0.14110   0.91373   0.92678   0.00000  Uiso   1.00
O1596  O     0.37257   0.67971   0.77116   0.00000  Uiso   1.00
C1597  C     0.37819   0.63771   0.79860   0.00000  Uiso   1.00
H1598  H     0.34400   0.62411   0.80483   0.00000  Uiso   1.00
H1599  H     0.39582   0.64205   0.83635   0.00000  Uiso   1.00
C1600  C     0.40242   0.60161   0.76830   0.00000  Uiso   1.00
H1601  H     0.38831   0.60197   0.72890   0.00000  Uiso   1.00
H1602  H     0.43879   0.61063   0.76883   0.00000  Uiso   1.00
C1603  C     0.39715   0.55249   0.78944   0.00000  Uiso   1.00
H1604  H     0.41012   0.55115   0.82916   0.00000  Uiso   1.00
H1605  H     0.41638   0.52744   0.76777   0.00000  Uiso   1.00
H1606  H     0.36114   0.54171   0.78671   0.00000  Uiso   1.00
O1607  O     0.39078   0.83446   0.84006   0.00000  Uiso   1.00
C1608  C     0.37491   0.85750   0.79542   0.00000  Uiso   1.00
H1609  H     0.34711   0.88079   0.80498   0.00000  Uiso   1.00
H1610  H     0.36021   0.83304   0.76623   0.00000  Uiso   1.00
C1611  C     0.41177   0.88754   0.77369   0.00000  Uiso   1.00
H1612  H     0.42547   0.91283   0.80214   0.00000  Uiso   1.00
H1613  H     0.43958   0.86507   0.76250   0.00000  Uiso   1.00
C1614  C     0.39333   0.91460   0.72788   0.00000  Uiso   1.00
H1615  H     0.38115   0.89008   0.69786   0.00000  Uiso   1.00
H1616  H     0.42042   0.93681   0.71370   0.00000  Uiso   1.00
H1617  H     0.36525   0.93744   0.73765   0.00000  Uiso   1.00
O1618  O     0.10790   0.67103   0.86411   0.00000  Uiso   1.00
C1619  C     0.11574   0.63350   0.83150   0.00000  Uiso   1.00
H1620  H     0.15225   0.62631   0.83552   0.00000  Uiso   1.00
H1621  H     0.10630   0.64069   0.79124   0.00000  Uiso   1.00
C1622  C     0.09120   0.58920   0.84687   0.00000  Uiso   1.00
H1623  H     0.09553   0.58452   0.88803   0.00000  Uiso   1.00
H1624  H     0.05491   0.59209   0.83554   0.00000  Uiso   1.00
C1625  C     0.10890   0.54612   0.82138   0.00000  Uiso   1.00
H1626  H     0.10768   0.55115   0.78026   0.00000  Uiso   1.00
H1627  H     0.08770   0.51541   0.82962   0.00000  Uiso   1.00
H1628  H     0.14408   0.53911   0.83552   0.00000  Uiso   1.00
O1629  O     0.68453   0.78974   0.83334   0.00000  Uiso   1.00
O1630  O     0.81547   0.71026   0.83333   0.00000  Uiso   1.00
O1631  O     0.81547   0.78974   0.83333   0.00000  Uiso   1.00
O1632  O     0.68453   0.71026   0.83334   0.00000  Uiso   1.00
C1633  C     0.66335   0.74979   0.83434   0.00000  Uiso   1.00
C1634  C     0.83599   0.75033   0.83034   0.00000  Uiso   1.00
O1635  O     0.75000   0.78973   0.76178   0.00000  Uiso   1.00
O1636  O     0.75000   0.71027   0.90489   0.00000  Uiso   1.00
O1637  O     0.75000   0.78973   0.90489   0.00000  Uiso   1.00
O1638  O     0.75000   0.71027   0.76178   0.00000  Uiso   1.00
C1639  C     0.72948   0.55229   0.79435   0.00000  Uiso   1.00
C1640  C     0.76699   0.94732   0.87542   0.00000  Uiso   1.00
C1641  C     0.77268   0.55305   0.87248   0.00000  Uiso   1.00
C1642  C     0.73628   0.94762   0.79110   0.00000  Uiso   1.00
C1643  C     0.74993   0.75002   0.73960   0.00000  Uiso   1.00
C1644  C     0.75028   0.74998   0.92708   0.00000  Uiso   1.00
Zn1645 Zn    0.75000   0.80307   0.83333   0.00000  Uiso   1.00
Zn1646 Zn    0.75000   0.69693   0.83333   0.00000  Uiso   1.00
N1647  N     0.75000   0.62623   0.83333   0.00000  Uiso   1.00
N1648  N     0.75000   0.87376   0.83333   0.00000  Uiso   1.00
C1649  C     0.75118   0.52668   0.83355   0.00000  Uiso   1.00
C1650  C     0.75143   0.97346   0.83347   0.00000  Uiso   1.00
C1651  C     0.75015   0.75004   0.68846   0.00000  Uiso   1.00
C1652  C     0.75028   0.74998   0.97824   0.00000  Uiso   1.00
C1653  C     0.54842   0.78395   0.78645   0.00000  Uiso   1.00
C1654  C     0.94424   0.71889   0.77612   0.00000  Uiso   1.00
C1655  C     0.95594   0.78917   0.82631   0.00000  Uiso   1.00
C1656  C     0.54189   0.70825   0.82621   0.00000  Uiso   1.00
C1657  C     0.59163   0.78891   0.80831   0.00000  Uiso   1.00
C1658  C     0.90067   0.71435   0.79180   0.00000  Uiso   1.00
C1659  C     0.90942   0.79207   0.82829   0.00000  Uiso   1.00
C1660  C     0.58862   0.70834   0.83782   0.00000  Uiso   1.00
C1661  C     0.61389   0.74942   0.82912   0.00000  Uiso   1.00
C1662  C     0.88300   0.75149   0.81864   0.00000  Uiso   1.00
C1663  C     0.52200   0.74626   0.80012   0.00000  Uiso   1.00
C1664  C     0.97335   0.75220   0.79924   0.00000  Uiso   1.00
C1665  C     0.72961   0.60134   0.79404   0.00000  Uiso   1.00
C1666  C     0.76847   0.89820   0.87401   0.00000  Uiso   1.00
C1667  C     0.77188   0.60217   0.87207   0.00000  Uiso   1.00
C1668  C     0.73372   0.89859   0.79203   0.00000  Uiso   1.00
H1669  H     0.71089   0.53503   0.76379   0.00000  Uiso   1.00
H1670  H     0.77962   0.96433   0.90937   0.00000  Uiso   1.00
H1671  H     0.79152   0.53636   0.90315   0.00000  Uiso   1.00
H1672  H     0.72493   0.96477   0.75689   0.00000  Uiso   1.00
C1673  C     0.70741   0.62387   0.74941   0.00000  Uiso   1.00
O1674  O     0.68116   0.65586   0.75347   0.00000  Uiso   1.00
O1675  O     0.71471   0.60635   0.70206   0.00000  Uiso   1.00
H1676  H     0.69737   0.62396   0.67431   0.00000  Uiso   1.00
C1677  C     0.79270   0.87501   0.91676   0.00000  Uiso   1.00
O1678  O     0.82191   0.84656   0.90989   0.00000  Uiso   1.00
O1679  O     0.78454   0.88830   0.96535   0.00000  Uiso   1.00
H1680  H     0.80334   0.87022   0.99156   0.00000  Uiso   1.00
C1681  C     0.79637   0.62611   0.91423   0.00000  Uiso   1.00
O1682  O     0.82769   0.65239   0.90699   0.00000  Uiso   1.00
O1683  O     0.78561   0.61597   0.96298   0.00000  Uiso   1.00
H1684  H     0.80513   0.63387   0.98893   0.00000  Uiso   1.00
C1685  C     0.71062   0.87617   0.74792   0.00000  Uiso   1.00
O1686  O     0.68331   0.84502   0.75305   0.00000  Uiso   1.00
O1687  O     0.71735   0.89324   0.70018   0.00000  Uiso   1.00
H1688  H     0.69876   0.87587   0.67305   0.00000  Uiso   1.00
O1689  O     0.53078   0.81835   0.75494   0.00000  Uiso   1.00
C1690  C     0.54073   0.80715   0.70543   0.00000  Uiso   1.00
H1691  H     0.51660   0.82608   0.67983   0.00000  Uiso   1.00
H1692  H     0.53562   0.76935   0.69667   0.00000  Uiso   1.00
C1693  C     0.58895   0.82175   0.69499   0.00000  Uiso   1.00
H1694  H     0.59589   0.85776   0.70896   0.00000  Uiso   1.00
H1695  H     0.61305   0.79735   0.71434   0.00000  Uiso   1.00
C1696  C     0.59698   0.82001   0.97311   0.00000  Uiso   1.00
H1697  H     0.58558   0.78609   0.95652   0.00000  Uiso   1.00
H1698  H     0.63355   0.82430   0.96843   0.00000  Uiso   1.00
H1699  H     0.57896   0.84907   0.95354   0.00000  Uiso   1.00
O1700  O     0.95649   0.69461   0.73473   0.00000  Uiso   1.00
C1701  C     0.94794   0.72323   0.69178   0.00000  Uiso   1.00
H1702  H     0.97072   0.71208   0.99639   0.00000  Uiso   1.00
H1703  H     0.95592   0.76081   0.69893   0.00000  Uiso   1.00
C1704  C     0.89888   0.71867   0.67039   0.00000  Uiso   1.00
H1705  H     0.88985   0.68130   0.99816   0.00000  Uiso   1.00
H1706  H     0.87587   0.73392   0.69671   0.00000  Uiso   1.00
C1707  C     0.89121   0.74494   0.95452   0.00000  Uiso   1.00
H1708  H     0.89747   0.78281   0.96058   0.00000  Uiso   1.00
H1709  H     0.85575   0.74017   0.93989   0.00000  Uiso   1.00
H1710  H     0.91369   0.73170   0.92649   0.00000  Uiso   1.00
O1711  O     0.98380   0.82580   0.84298   0.00000  Uiso   1.00
C1712  C     0.98055   0.83488   0.89451   0.00000  Uiso   1.00
H1713  H     0.51216   0.82321   0.91453   0.00000  Uiso   1.00
H1714  H     0.95277   0.81600   0.91190   0.00000  Uiso   1.00
C1715  C     0.97492   0.88747   0.90197   0.00000  Uiso   1.00
H1716  H     0.50057   0.90688   0.88172   0.00000  Uiso   1.00
H1717  H     0.94109   0.89796   0.88638   0.00000  Uiso   1.00
C1718  C     0.97929   0.90137   0.95688   0.00000  Uiso   1.00
H1719  H     0.95661   0.87969   0.97882   0.00000  Uiso   1.00
H1720  H     0.96983   0.93855   0.96060   0.00000  Uiso   1.00
H1721  H     0.51463   0.89756   0.97204   0.00000  Uiso   1.00
O1722  O     0.51665   0.66883   0.83541   0.00000  Uiso   1.00
C1723  C     0.50170   0.67031   0.88424   0.00000  Uiso   1.00
H1724  H     0.97335   0.69522   0.88515   0.00000  Uiso   1.00
H1725  H     0.52891   0.68120   0.91250   0.00000  Uiso   1.00
C1726  C     0.98546   0.62127   0.89781   0.00000  Uiso   1.00
H1727  H     0.96613   0.60562   0.86516   0.00000  Uiso   1.00
H1728  H     0.51492   0.59875   0.90743   0.00000  Uiso   1.00
C1729  C     0.95579   0.62134   0.94187   0.00000  Uiso   1.00
H1730  H     0.97523   0.63393   0.97597   0.00000  Uiso   1.00
H1731  H     0.94392   0.58525   0.94894   0.00000  Uiso   1.00
H1732  H     0.92592   0.64356   0.93337   0.00000  Uiso   1.00
O1733  O     0.61216   0.83222   0.80599   0.00000  Uiso   1.00
C1734  C     0.60681   0.85555   0.85146   0.00000  Uiso   1.00
H1735  H     0.62810   0.83859   0.88169   0.00000  Uiso   1.00
H1736  H     0.57099   0.85527   0.86106   0.00000  Uiso   1.00
C1737  C     0.62187   0.90636   0.84741   0.00000  Uiso   1.00
H1738  H     0.65695   0.90768   0.83634   0.00000  Uiso   1.00
H1739  H     0.60005   0.92442   0.81836   0.00000  Uiso   1.00
C1740  C     0.61974   0.93164   0.89722   0.00000  Uiso   1.00
H1741  H     0.58449   0.93274   0.90836   0.00000  Uiso   1.00
H1742  H     0.63247   0.96791   0.89377   0.00000  Uiso   1.00
H1743  H     0.64110   0.91373   0.92678   0.00000  Uiso   1.00
O1744  O     0.87257   0.67971   0.77116   0.00000  Uiso   1.00
C1745  C     0.87819   0.63771   0.79860   0.00000  Uiso   1.00
H1746  H     0.84400   0.62411   0.80483   0.00000  Uiso   1.00
H1747  H     0.89582   0.64205   0.83635   0.00000  Uiso   1.00
C1748  C     0.90242   0.60161   0.76830   0.00000  Uiso   1.00
H1749  H     0.88831   0.60197   0.72890   0.00000  Uiso   1.00
H1750  H     0.93879   0.61063   0.76883   0.00000  Uiso   1.00
C1751  C     0.89715   0.55249   0.78944   0.00000  Uiso   1.00
H1752  H     0.91012   0.55115   0.82916   0.00000  Uiso   1.00
H1753  H     0.91638   0.52744   0.76777   0.00000  Uiso   1.00
H1754  H     0.86114   0.54171   0.78671   0.00000  Uiso   1.00
O1755  O     0.89078   0.83446   0.84006   0.00000  Uiso   1.00
C1756  C     0.87491   0.85750   0.79542   0.00000  Uiso   1.00
H1757  H     0.84711   0.88079   0.80498   0.00000  Uiso   1.00
H1758  H     0.86021   0.83304   0.76623   0.00000  Uiso   1.00
C1759  C     0.91177   0.88754   0.77369   0.00000  Uiso   1.00
H1760  H     0.92547   0.91283   0.80214   0.00000  Uiso   1.00
H1761  H     0.93958   0.86507   0.76250   0.00000  Uiso   1.00
C1762  C     0.89333   0.91460   0.72788   0.00000  Uiso   1.00
H1763  H     0.88115   0.89008   0.69786   0.00000  Uiso   1.00
H1764  H     0.92042   0.93681   0.71370   0.00000  Uiso   1.00
H1765  H     0.86525   0.93744   0.73765   0.00000  Uiso   1.00
O1766  O     0.60790   0.67103   0.86411   0.00000  Uiso   1.00
C1767  C     0.61574   0.63350   0.83150   0.00000  Uiso   1.00
H1768  H     0.65225   0.62631   0.83552   0.00000  Uiso   1.00
H1769  H     0.60630   0.64069   0.79124   0.00000  Uiso   1.00
C1770  C     0.59120   0.58920   0.84687   0.00000  Uiso   1.00
H1771  H     0.59553   0.58452   0.88803   0.00000  Uiso   1.00
H1772  H     0.55491   0.59209   0.83554   0.00000  Uiso   1.00
C1773  C     0.60890   0.54612   0.82138   0.00000  Uiso   1.00
H1774  H     0.60768   0.55115   0.78026   0.00000  Uiso   1.00
H1775  H     0.58770   0.51541   0.82962   0.00000  Uiso   1.00
H1776  H     0.64408   0.53911   0.83552   0.00000  Uiso   1.00
loop_
_geom_bond_atom_site_label_1
_geom_bond_atom_site_label_2
_geom_bond_distance
_geom_bond_site_symmetry_2
_ccdc_geom_bond_type
O1     C5      1.304   .     A
O1     Zn17    1.984   .     S
O2     Zn18    1.984   .     S
O2     C6      1.301   .     A
O3     C6      1.294   .     A
O3     Zn17    1.990   .     S
O4     Zn18    1.990   .     S
O4     C5      1.302   .     A
C5     C33     1.470   .     S
C6     C34     1.455   .     S
O7     C15     1.285   .     A
O7     Zn17    1.959   .     S
O8     Zn18    1.959   .     S
O8     C16     1.285   .     A
O9     C16     1.285   .     A
O9     Zn17    1.958   .     S
O10    C15     1.285   .     A
O10    Zn18    1.958   .     S
C11    C37     1.406   .     A
C11    H41     1.077   .     S
C11    C21     1.407   .     A
C12    C22     1.406   .     A
C12    H42     1.078   .     S
C12    C38     1.409   .     A
C13    C21     1.407   .     A
C13    H43     1.078   .     S
C13    C39     1.408   .     A
C14    H44     1.077   .     S
C14    C22     1.405   .     A
C14    C40     1.407   .     A
C15    C23     1.373   .     S
C16    C24     1.373   .     S
Zn17   N20     2.026   .     S
Zn18   N19     2.026   .     S
N19    C37     1.379   .     A
N19    C39     1.377   .     A
N20    C40     1.379   .     A
N20    C38     1.379   .     A
C21    C318    1.525   1_545 S
C22    C317    1.525   .     S
C23    C1208   1.169   1_554 S
C24    C615    1.169   .     S
C25    C29     1.385   .     A
C25    O61     1.382   .     S
C25    C35     1.394   .     A
C26    O72     1.383   .     S
C26    C36     1.402   .     A
C26    C30     1.395   .     A
C27    C31     1.393   .     A
C27    C36     1.407   .     A
C27    O83     1.389   .     S
C28    O94     1.383   .     S
C28    C35     1.407   .     A
C28    C32     1.406   .     A
C29    C33     1.412   .     A
C29    O105    1.382   .     S
C30    O116    1.385   .     S
C30    C34     1.411   .     A
C31    O127    1.385   .     S
C31    C34     1.413   .     A
C32    O138    1.387   .     S
C32    C33     1.420   .     A
C35    C184    1.459   1_455 S
C36    C183    1.459   .     S
C37    C45     1.479   .     S
C38    C49     1.475   .     S
C39    C53     1.473   .     S
C40    C57     1.475   .     S
C45    O46     1.219   .     D
C45    O47     1.398   .     S
O47    H48     1.014   .     S
C49    O51     1.396   .     S
C49    O50     1.220   .     D
O51    H52     1.014   .     S
C53    O55     1.397   .     S
C53    O54     1.219   .     D
O55    H56     1.014   .     S
C57    O58     1.217   .     D
C57    O59     1.397   .     S
O59    H60     1.014   .     S
O61    C62     1.418   .     S
C62    H64     1.116   .     S
C62    H63     1.106   .     S
C62    C65     1.536   .     S
C65    H67     1.109   .     S
C65    H66     1.112   .     S
C65    C1252   1.518   1_554 S
C68    H69     1.111   .     S
C68    H71     1.107   .     S
C68    H70     1.110   .     S
C68    C657    1.518   .     S
O72    C73     1.424   .     S
C73    H75     1.115   .     S
C73    C76     1.538   .     S
C73    H1258   1.109   1_554 S
H74    C665    1.109   .     S
C76    H78     1.109   .     S
C76    H1261   1.110   1_554 S
C76    C1263   1.524   1_554 S
H77    C668    1.110   .     S
C79    H81     1.110   .     S
C79    H82     1.109   .     S
C79    H80     1.110   .     S
C79    C668    1.524   .     S
O83    C84     1.417   .     S
C84    C87     1.533   .     S
C84    H86     1.113   .     S
C84    H233    1.106   .     S
H85    C232    1.106   1_455 S
C87    H89     1.108   .     S
C87    C90     1.524   .     S
C87    H236    1.112   .     S
H88    C235    1.112   1_455 S
C90    H92     1.110   .     S
C90    H91     1.111   .     S
C90    H241    1.109   .     S
H93    C238    1.109   1_455 S
O94    C95     1.413   .     S
C95    H97     1.116   .     S
C95    H244    1.111   1_455 S
C95    C246    1.534   1_455 S
H96    C243    1.111   .     S
C98    H99     1.109   .     S
C98    C101    1.522   .     S
C98    C243    1.534   .     S
C98    H248    1.110   .     S
H100   C246    1.110   1_455 S
C101   H102    1.109   .     S
C101   H104    1.109   .     S
C101   H103    1.111   .     S
O105   C106    1.411   .     S
C106   H107    1.110   .     S
C106   H108    1.114   .     S
C106   C109    1.526   .     S
C109   H111    1.111   .     S
C109   C112    1.527   .     S
C109   H110    1.105   .     S
C112   H114    1.109   .     S
C112   H113    1.111   .     S
C112   H115    1.111   .     S
O116   C117    1.415   .     S
C117   C120    1.531   .     S
C117   H119    1.117   .     S
C117   H118    1.110   .     S
C120   C123    1.528   .     S
C120   H122    1.111   .     S
C120   H121    1.112   .     S
C123   H124    1.110   .     S
C123   H125    1.110   .     S
C123   H126    1.111   .     S
O127   C128    1.422   .     S
C128   H129    1.111   .     S
C128   H130    1.117   .     S
C128   C131    1.535   .     S
C131   C134    1.526   .     S
C131   H132    1.109   .     S
C131   H133    1.110   .     S
C134   H137    1.111   .     S
C134   H136    1.110   .     S
C134   H135    1.111   .     S
O138   C139    1.418   .     S
C139   C142    1.530   .     S
C139   H140    1.106   .     S
C139   H141    1.117   .     S
C142   C145    1.527   .     S
C142   H144    1.107   .     S
C142   H143    1.112   .     S
C145   H146    1.111   .     S
C145   H147    1.110   .     S
C145   H148    1.110   .     S
O149   C153    1.304   .     A
O149   Zn165   1.984   .     S
O150   Zn166   1.984   .     S
O150   C154    1.301   .     A
O151   C154    1.294   .     A
O151   Zn165   1.990   .     S
O152   Zn166   1.990   .     S
O152   C153    1.302   .     A
C153   C181    1.470   .     S
C154   C182    1.455   .     S
O155   C163    1.285   .     A
O155   Zn165   1.959   .     S
O156   Zn166   1.959   .     S
O156   C164    1.285   .     A
O157   C164    1.285   .     A
O157   Zn165   1.958   .     S
O158   C163    1.285   .     A
O158   Zn166   1.958   .     S
C159   C185    1.406   .     A
C159   H189    1.077   .     S
C159   C169    1.407   .     A
C160   C170    1.406   .     A
C160   H190    1.078   .     S
C160   C186    1.409   .     A
C161   C169    1.407   .     A
C161   H191    1.078   .     S
C161   C187    1.408   .     A
C162   H192    1.077   .     S
C162   C170    1.405   .     A
C162   C188    1.407   .     A
C163   C171    1.373   .     S
C164   C172    1.373   .     S
Zn165  N168    2.026   .     S
Zn166  N167    2.026   .     S
N167   C185    1.379   .     A
N167   C187    1.377   .     A
N168   C188    1.379   .     A
N168   C186    1.379   .     A
C169   C466    1.525   1_545 S
C170   C465    1.525   .     S
C171   C1356   1.169   1_554 S
C172   C763    1.169   .     S
C173   C177    1.385   .     A
C173   O209    1.382   .     S
C173   C183    1.394   .     A
C174   O220    1.383   .     S
C174   C184    1.402   .     A
C174   C178    1.395   .     A
C175   C179    1.393   .     A
C175   C184    1.407   .     A
C175   O231    1.389   .     S
C176   O242    1.383   .     S
C176   C183    1.407   .     A
C176   C180    1.406   .     A
C177   C181    1.412   .     A
C177   O253    1.382   .     S
C178   O264    1.385   .     S
C178   C182    1.411   .     A
C179   O275    1.385   .     S
C179   C182    1.413   .     A
C180   O286    1.387   .     S
C180   C181    1.420   .     A
C184   C35     1.459   1_655 S
C185   C193    1.479   .     S
C186   C197    1.475   .     S
C187   C201    1.473   .     S
C188   C205    1.475   .     S
C193   O194    1.219   .     D
C193   O195    1.398   .     S
O195   H196    1.014   .     S
C197   O199    1.396   .     S
C197   O198    1.220   .     D
O199   H200    1.014   .     S
C201   O203    1.397   .     S
C201   O202    1.219   .     D
O203   H204    1.014   .     S
C205   O206    1.217   .     D
C205   O207    1.397   .     S
O207   H208    1.014   .     S
O209   C210    1.418   .     S
C210   H212    1.116   .     S
C210   H211    1.106   .     S
C210   C213    1.536   .     S
C213   H215    1.109   .     S
C213   H214    1.112   .     S
C213   C1400   1.518   1_554 S
C216   H217    1.111   .     S
C216   H219    1.107   .     S
C216   H218    1.110   .     S
C216   C805    1.518   .     S
O220   C221    1.424   .     S
C221   H223    1.115   .     S
C221   C224    1.538   .     S
C221   H1406   1.109   1_554 S
H222   C813    1.109   .     S
C224   H226    1.109   .     S
C224   H1409   1.110   1_554 S
C224   C1411   1.524   1_554 S
H225   C816    1.110   .     S
C227   H229    1.110   .     S
C227   H230    1.109   .     S
C227   H228    1.110   .     S
C227   C816    1.524   .     S
O231   C232    1.417   .     S
C232   C235    1.533   .     S
C232   H234    1.113   .     S
C232   H85     1.106   1_655 S
C235   H237    1.108   .     S
C235   C238    1.524   .     S
C235   H88     1.112   1_655 S
C238   H240    1.110   .     S
C238   H239    1.111   .     S
C238   H93     1.109   1_655 S
O242   C243    1.413   .     S
C243   H245    1.116   .     S
H244   C95     1.111   1_655 S
C246   H247    1.109   .     S
C246   C249    1.522   .     S
C246   C95     1.534   1_655 S
C246   H100    1.110   1_655 S
C249   H250    1.109   .     S
C249   H252    1.109   .     S
C249   H251    1.111   .     S
O253   C254    1.411   .     S
C254   H255    1.110   .     S
C254   H256    1.114   .     S
C254   C257    1.526   .     S
C257   H259    1.111   .     S
C257   C260    1.527   .     S
C257   H258    1.105   .     S
C260   H262    1.109   .     S
C260   H261    1.111   .     S
C260   H263    1.111   .     S
O264   C265    1.415   .     S
C265   C268    1.531   .     S
C265   H267    1.117   .     S
C265   H266    1.110   .     S
C268   C271    1.528   .     S
C268   H270    1.111   .     S
C268   H269    1.112   .     S
C271   H272    1.110   .     S
C271   H273    1.110   .     S
C271   H274    1.111   .     S
O275   C276    1.422   .     S
C276   H277    1.111   .     S
C276   H278    1.117   .     S
C276   C279    1.535   .     S
C279   C282    1.526   .     S
C279   H280    1.109   .     S
C279   H281    1.110   .     S
C282   H285    1.111   .     S
C282   H284    1.110   .     S
C282   H283    1.111   .     S
O286   C287    1.418   .     S
C287   C290    1.530   .     S
C287   H288    1.106   .     S
C287   H289    1.117   .     S
C290   C293    1.527   .     S
C290   H292    1.107   .     S
C290   H291    1.112   .     S
C293   H294    1.111   .     S
C293   H295    1.110   .     S
C293   H296    1.110   .     S
O297   C301    1.304   .     A
O297   Zn313   1.984   .     S
O298   Zn314   1.984   .     S
O298   C302    1.301   .     A
O299   C302    1.294   .     A
O299   Zn313   1.990   .     S
O300   Zn314   1.990   .     S
O300   C301    1.302   .     A
C301   C329    1.470   .     S
C302   C330    1.455   .     S
O303   C311    1.285   .     A
O303   Zn313   1.959   .     S
O304   Zn314   1.959   .     S
O304   C312    1.285   .     A
O305   C312    1.285   .     A
O305   Zn313   1.958   .     S
O306   C311    1.285   .     A
O306   Zn314   1.958   .     S
C307   C333    1.406   .     A
C307   H337    1.077   .     S
C307   C317    1.407   .     A
C308   C318    1.406   .     A
C308   H338    1.078   .     S
C308   C334    1.409   .     A
C309   C317    1.407   .     A
C309   H339    1.078   .     S
C309   C335    1.408   .     A
C310   H340    1.077   .     S
C310   C318    1.405   .     A
C310   C336    1.407   .     A
C311   C319    1.373   .     S
C312   C320    1.373   .     S
Zn313  N316    2.026   .     S
Zn314  N315    2.026   .     S
N315   C333    1.379   .     A
N315   C335    1.377   .     A
N316   C336    1.379   .     A
N316   C334    1.379   .     A
C318   C21     1.525   1_565 S
C319   C1504   1.169   1_554 S
C320   C911    1.169   .     S
C321   C325    1.385   .     A
C321   O357    1.382   .     S
C321   C331    1.394   .     A
C322   O368    1.383   .     S
C322   C332    1.402   .     A
C322   C326    1.395   .     A
C323   C327    1.393   .     A
C323   C332    1.407   .     A
C323   O379    1.389   .     S
C324   O390    1.383   .     S
C324   C331    1.407   .     A
C324   C328    1.406   .     A
C325   C329    1.412   .     A
C325   O401    1.382   .     S
C326   O412    1.385   .     S
C326   C330    1.411   .     A
C327   O423    1.385   .     S
C327   C330    1.413   .     A
C328   O434    1.387   .     S
C328   C329    1.420   .     A
C331   C480    1.459   1_455 S
C332   C479    1.459   .     S
C333   C341    1.479   .     S
C334   C345    1.475   .     S
C335   C349    1.473   .     S
C336   C353    1.475   .     S
C341   O342    1.219   .     D
C341   O343    1.398   .     S
O343   H344    1.014   .     S
C345   O347    1.396   .     S
C345   O346    1.220   .     D
O347   H348    1.014   .     S
C349   O351    1.397   .     S
C349   O350    1.219   .     D
O351   H352    1.014   .     S
C353   O354    1.217   .     D
C353   O355    1.397   .     S
O355   H356    1.014   .     S
O357   C358    1.418   .     S
C358   H360    1.116   .     S
C358   H359    1.106   .     S
C358   C361    1.536   .     S
C361   H363    1.109   .     S
C361   H362    1.112   .     S
C361   C1548   1.518   1_554 S
C364   H365    1.111   .     S
C364   H367    1.107   .     S
C364   H366    1.110   .     S
C364   C953    1.518   .     S
O368   C369    1.424   .     S
C369   H371    1.115   .     S
C369   C372    1.538   .     S
C369   H1554   1.109   1_554 S
H370   C961    1.109   .     S
C372   H374    1.109   .     S
C372   H1557   1.110   1_554 S
C372   C1559   1.524   1_554 S
H373   C964    1.110   .     S
C375   H377    1.110   .     S
C375   H378    1.109   .     S
C375   H376    1.110   .     S
C375   C964    1.524   .     S
O379   C380    1.417   .     S
C380   C383    1.533   .     S
C380   H382    1.113   .     S
C380   H529    1.106   .     S
H381   C528    1.106   1_455 S
C383   H385    1.108   .     S
C383   C386    1.524   .     S
C383   H532    1.112   .     S
H384   C531    1.112   1_455 S
C386   H388    1.110   .     S
C386   H387    1.111   .     S
C386   H537    1.109   .     S
H389   C534    1.109   1_455 S
O390   C391    1.413   .     S
C391   H393    1.116   .     S
C391   H540    1.111   1_455 S
C391   C542    1.534   1_455 S
H392   C539    1.111   .     S
C394   H395    1.109   .     S
C394   C397    1.522   .     S
C394   C539    1.534   .     S
C394   H544    1.110   .     S
H396   C542    1.110   1_455 S
C397   H398    1.109   .     S
C397   H400    1.109   .     S
C397   H399    1.111   .     S
O401   C402    1.411   .     S
C402   H403    1.110   .     S
C402   H404    1.114   .     S
C402   C405    1.526   .     S
C405   H407    1.111   .     S
C405   C408    1.527   .     S
C405   H406    1.105   .     S
C408   H410    1.109   .     S
C408   H409    1.111   .     S
C408   H411    1.111   .     S
O412   C413    1.415   .     S
C413   C416    1.531   .     S
C413   H415    1.117   .     S
C413   H414    1.110   .     S
C416   C419    1.528   .     S
C416   H418    1.111   .     S
C416   H417    1.112   .     S
C419   H420    1.110   .     S
C419   H421    1.110   .     S
C419   H422    1.111   .     S
O423   C424    1.422   .     S
C424   H425    1.111   .     S
C424   H426    1.117   .     S
C424   C427    1.535   .     S
C427   C430    1.526   .     S
C427   H428    1.109   .     S
C427   H429    1.110   .     S
C430   H433    1.111   .     S
C430   H432    1.110   .     S
C430   H431    1.111   .     S
O434   C435    1.418   .     S
C435   C438    1.530   .     S
C435   H436    1.106   .     S
C435   H437    1.117   .     S
C438   C441    1.527   .     S
C438   H440    1.107   .     S
C438   H439    1.112   .     S
C441   H442    1.111   .     S
C441   H443    1.110   .     S
C441   H444    1.110   .     S
O445   C449    1.304   .     A
O445   Zn461   1.984   .     S
O446   Zn462   1.984   .     S
O446   C450    1.301   .     A
O447   C450    1.294   .     A
O447   Zn461   1.990   .     S
O448   Zn462   1.990   .     S
O448   C449    1.302   .     A
C449   C477    1.470   .     S
C450   C478    1.455   .     S
O451   C459    1.285   .     A
O451   Zn461   1.959   .     S
O452   Zn462   1.959   .     S
O452   C460    1.285   .     A
O453   C460    1.285   .     A
O453   Zn461   1.958   .     S
O454   C459    1.285   .     A
O454   Zn462   1.958   .     S
C455   C481    1.406   .     A
C455   H485    1.077   .     S
C455   C465    1.407   .     A
C456   C466    1.406   .     A
C456   H486    1.078   .     S
C456   C482    1.409   .     A
C457   C465    1.407   .     A
C457   H487    1.078   .     S
C457   C483    1.408   .     A
C458   H488    1.077   .     S
C458   C466    1.405   .     A
C458   C484    1.407   .     A
C459   C467    1.373   .     S
C460   C468    1.373   .     S
Zn461  N464    2.026   .     S
Zn462  N463    2.026   .     S
N463   C481    1.379   .     A
N463   C483    1.377   .     A
N464   C484    1.379   .     A
N464   C482    1.379   .     A
C466   C169    1.525   1_565 S
C467   C1652   1.169   1_554 S
C468   C1059   1.169   .     S
C469   C473    1.385   .     A
C469   O505    1.382   .     S
C469   C479    1.394   .     A
C470   O516    1.383   .     S
C470   C480    1.402   .     A
C470   C474    1.395   .     A
C471   C475    1.393   .     A
C471   C480    1.407   .     A
C471   O527    1.389   .     S
C472   O538    1.383   .     S
C472   C479    1.407   .     A
C472   C476    1.406   .     A
C473   C477    1.412   .     A
C473   O549    1.382   .     S
C474   O560    1.385   .     S
C474   C478    1.411   .     A
C475   O571    1.385   .     S
C475   C478    1.413   .     A
C476   O582    1.387   .     S
C476   C477    1.420   .     A
C480   C331    1.459   1_655 S
C481   C489    1.479   .     S
C482   C493    1.475   .     S
C483   C497    1.473   .     S
C484   C501    1.475   .     S
C489   O490    1.219   .     D
C489   O491    1.398   .     S
O491   H492    1.014   .     S
C493   O495    1.396   .     S
C493   O494    1.220   .     D
O495   H496    1.014   .     S
C497   O499    1.397   .     S
C497   O498    1.219   .     D
O499   H500    1.014   .     S
C501   O502    1.217   .     D
C501   O503    1.397   .     S
O503   H504    1.014   .     S
O505   C506    1.418   .     S
C506   H508    1.116   .     S
C506   H507    1.106   .     S
C506   C509    1.536   .     S
C509   H511    1.109   .     S
C509   H510    1.112   .     S
C509   C1696   1.518   1_554 S
C512   H513    1.111   .     S
C512   H515    1.107   .     S
C512   H514    1.110   .     S
C512   C1101   1.518   .     S
O516   C517    1.424   .     S
C517   H519    1.115   .     S
C517   C520    1.538   .     S
C517   H1702   1.109   1_554 S
H518   C1109   1.109   .     S
C520   H522    1.109   .     S
C520   H1705   1.110   1_554 S
C520   C1707   1.524   1_554 S
H521   C1112   1.110   .     S
C523   H525    1.110   .     S
C523   H526    1.109   .     S
C523   H524    1.110   .     S
C523   C1112   1.524   .     S
O527   C528    1.417   .     S
C528   C531    1.533   .     S
C528   H530    1.113   .     S
C528   H381    1.106   1_655 S
C531   H533    1.108   .     S
C531   C534    1.524   .     S
C531   H384    1.112   1_655 S
C534   H536    1.110   .     S
C534   H535    1.111   .     S
C534   H389    1.109   1_655 S
O538   C539    1.413   .     S
C539   H541    1.116   .     S
H540   C391    1.111   1_655 S
C542   H543    1.109   .     S
C542   C545    1.522   .     S
C542   C391    1.534   1_655 S
C542   H396    1.110   1_655 S
C545   H546    1.109   .     S
C545   H548    1.109   .     S
C545   H547    1.111   .     S
O549   C550    1.411   .     S
C550   H551    1.110   .     S
C550   H552    1.114   .     S
C550   C553    1.526   .     S
C553   H555    1.111   .     S
C553   C556    1.527   .     S
C553   H554    1.105   .     S
C556   H558    1.109   .     S
C556   H557    1.111   .     S
C556   H559    1.111   .     S
O560   C561    1.415   .     S
C561   C564    1.531   .     S
C561   H563    1.117   .     S
C561   H562    1.110   .     S
C564   C567    1.528   .     S
C564   H566    1.111   .     S
C564   H565    1.112   .     S
C567   H568    1.110   .     S
C567   H569    1.110   .     S
C567   H570    1.111   .     S
O571   C572    1.422   .     S
C572   H573    1.111   .     S
C572   H574    1.117   .     S
C572   C575    1.535   .     S
C575   C578    1.526   .     S
C575   H576    1.109   .     S
C575   H577    1.110   .     S
C578   H581    1.111   .     S
C578   H580    1.110   .     S
C578   H579    1.111   .     S
O582   C583    1.418   .     S
C583   C586    1.530   .     S
C583   H584    1.106   .     S
C583   H585    1.117   .     S
C586   C589    1.527   .     S
C586   H588    1.107   .     S
C586   H587    1.112   .     S
C589   H590    1.111   .     S
C589   H591    1.110   .     S
C589   H592    1.110   .     S
O593   C597    1.304   .     A
O593   Zn609   1.984   .     S
O594   Zn610   1.984   .     S
O594   C598    1.301   .     A
O595   C598    1.294   .     A
O595   Zn609   1.990   .     S
O596   Zn610   1.990   .     S
O596   C597    1.302   .     A
C597   C625    1.470   .     S
C598   C626    1.455   .     S
O599   C607    1.285   .     A
O599   Zn609   1.959   .     S
O600   Zn610   1.959   .     S
O600   C608    1.285   .     A
O601   C608    1.285   .     A
O601   Zn609   1.958   .     S
O602   C607    1.285   .     A
O602   Zn610   1.958   .     S
C603   C629    1.406   .     A
C603   H633    1.077   .     S
C603   C613    1.407   .     A
C604   C614    1.406   .     A
C604   H634    1.078   .     S
C604   C630    1.409   .     A
C605   C613    1.407   .     A
C605   H635    1.078   .     S
C605   C631    1.408   .     A
C606   H636    1.077   .     S
C606   C614    1.405   .     A
C606   C632    1.407   .     A
C607   C615    1.373   .     S
C608   C616    1.373   .     S
Zn609  N612    2.026   .     S
Zn610  N611    2.026   .     S
N611   C629    1.379   .     A
N611   C631    1.377   .     A
N612   C632    1.379   .     A
N612   C630    1.379   .     A
C613   C910    1.525   1_545 S
C614   C909    1.525   .     S
C616   C1207   1.169   .     S
C617   C621    1.385   .     A
C617   O653    1.382   .     S
C617   C627    1.394   .     A
C618   O664    1.383   .     S
C618   C628    1.402   .     A
C618   C622    1.395   .     A
C619   C623    1.393   .     A
C619   C628    1.407   .     A
C619   O675    1.389   .     S
C620   O686    1.383   .     S
C620   C627    1.407   .     A
C620   C624    1.406   .     A
C621   C625    1.412   .     A
C621   O697    1.382   .     S
C622   O708    1.385   .     S
C622   C626    1.411   .     A
C623   O719    1.385   .     S
C623   C626    1.413   .     A
C624   O730    1.387   .     S
C624   C625    1.420   .     A
C627   C776    1.459   1_455 S
C628   C775    1.459   .     S
C629   C637    1.479   .     S
C630   C641    1.475   .     S
C631   C645    1.473   .     S
C632   C649    1.475   .     S
C637   O638    1.219   .     D
C637   O639    1.398   .     S
O639   H640    1.014   .     S
C641   O643    1.396   .     S
C641   O642    1.220   .     D
O643   H644    1.014   .     S
C645   O647    1.397   .     S
C645   O646    1.219   .     D
O647   H648    1.014   .     S
C649   O650    1.217   .     D
C649   O651    1.397   .     S
O651   H652    1.014   .     S
O653   C654    1.418   .     S
C654   H656    1.116   .     S
C654   H655    1.106   .     S
C654   C657    1.536   .     S
C657   H659    1.109   .     S
C657   H658    1.112   .     S
C660   H661    1.111   .     S
C660   H663    1.107   .     S
C660   H662    1.110   .     S
C660   C1249   1.518   .     S
O664   C665    1.424   .     S
C665   H667    1.115   .     S
C665   C668    1.538   .     S
H666   C1257   1.109   .     S
C668   H670    1.109   .     S
H669   C1260   1.110   .     S
C671   H673    1.110   .     S
C671   H674    1.109   .     S
C671   H672    1.110   .     S
C671   C1260   1.524   .     S
O675   C676    1.417   .     S
C676   C679    1.533   .     S
C676   H678    1.113   .     S
C676   H825    1.106   .     S
H677   C824    1.106   1_455 S
C679   H681    1.108   .     S
C679   C682    1.524   .     S
C679   H828    1.112   .     S
H680   C827    1.112   1_455 S
C682   H684    1.110   .     S
C682   H683    1.111   .     S
C682   H833    1.109   .     S
H685   C830    1.109   1_455 S
O686   C687    1.413   .     S
C687   H689    1.116   .     S
C687   H836    1.111   1_455 S
C687   C838    1.534   1_455 S
H688   C835    1.111   .     S
C690   H691    1.109   .     S
C690   C693    1.522   .     S
C690   C835    1.534   .     S
C690   H840    1.110   .     S
H692   C838    1.110   1_455 S
C693   H694    1.109   .     S
C693   H696    1.109   .     S
C693   H695    1.111   .     S
O697   C698    1.411   .     S
C698   H699    1.110   .     S
C698   H700    1.114   .     S
C698   C701    1.526   .     S
C701   H703    1.111   .     S
C701   C704    1.527   .     S
C701   H702    1.105   .     S
C704   H706    1.109   .     S
C704   H705    1.111   .     S
C704   H707    1.111   .     S
O708   C709    1.415   .     S
C709   C712    1.531   .     S
C709   H711    1.117   .     S
C709   H710    1.110   .     S
C712   C715    1.528   .     S
C712   H714    1.111   .     S
C712   H713    1.112   .     S
C715   H716    1.110   .     S
C715   H717    1.110   .     S
C715   H718    1.111   .     S
O719   C720    1.422   .     S
C720   H721    1.111   .     S
C720   H722    1.117   .     S
C720   C723    1.535   .     S
C723   C726    1.526   .     S
C723   H724    1.109   .     S
C723   H725    1.110   .     S
C726   H729    1.111   .     S
C726   H728    1.110   .     S
C726   H727    1.111   .     S
O730   C731    1.418   .     S
C731   C734    1.530   .     S
C731   H732    1.106   .     S
C731   H733    1.117   .     S
C734   C737    1.527   .     S
C734   H736    1.107   .     S
C734   H735    1.112   .     S
C737   H738    1.111   .     S
C737   H739    1.110   .     S
C737   H740    1.110   .     S
O741   C745    1.304   .     A
O741   Zn757   1.984   .     S
O742   Zn758   1.984   .     S
O742   C746    1.301   .     A
O743   C746    1.294   .     A
O743   Zn757   1.990   .     S
O744   Zn758   1.990   .     S
O744   C745    1.302   .     A
C745   C773    1.470   .     S
C746   C774    1.455   .     S
O747   C755    1.285   .     A
O747   Zn757   1.959   .     S
O748   Zn758   1.959   .     S
O748   C756    1.285   .     A
O749   C756    1.285   .     A
O749   Zn757   1.958   .     S
O750   C755    1.285   .     A
O750   Zn758   1.958   .     S
C751   C777    1.406   .     A
C751   H781    1.077   .     S
C751   C761    1.407   .     A
C752   C762    1.406   .     A
C752   H782    1.078   .     S
C752   C778    1.409   .     A
C753   C761    1.407   .     A
C753   H783    1.078   .     S
C753   C779    1.408   .     A
C754   H784    1.077   .     S
C754   C762    1.405   .     A
C754   C780    1.407   .     A
C755   C763    1.373   .     S
C756   C764    1.373   .     S
Zn757  N760    2.026   .     S
Zn758  N759    2.026   .     S
N759   C777    1.379   .     A
N759   C779    1.377   .     A
N760   C780    1.379   .     A
N760   C778    1.379   .     A
C761   C1058   1.525   1_545 S
C762   C1057   1.525   .     S
C764   C1355   1.169   .     S
C765   C769    1.385   .     A
C765   O801    1.382   .     S
C765   C775    1.394   .     A
C766   O812    1.383   .     S
C766   C776    1.402   .     A
C766   C770    1.395   .     A
C767   C771    1.393   .     A
C767   C776    1.407   .     A
C767   O823    1.389   .     S
C768   O834    1.383   .     S
C768   C775    1.407   .     A
C768   C772    1.406   .     A
C769   C773    1.412   .     A
C769   O845    1.382   .     S
C770   O856    1.385   .     S
C770   C774    1.411   .     A
C771   O867    1.385   .     S
C771   C774    1.413   .     A
C772   O878    1.387   .     S
C772   C773    1.420   .     A
C776   C627    1.459   1_655 S
C777   C785    1.479   .     S
C778   C789    1.475   .     S
C779   C793    1.473   .     S
C780   C797    1.475   .     S
C785   O786    1.219   .     D
C785   O787    1.398   .     S
O787   H788    1.014   .     S
C789   O791    1.396   .     S
C789   O790    1.220   .     D
O791   H792    1.014   .     S
C793   O795    1.397   .     S
C793   O794    1.219   .     D
O795   H796    1.014   .     S
C797   O798    1.217   .     D
C797   O799    1.397   .     S
O799   H800    1.014   .     S
O801   C802    1.418   .     S
C802   H804    1.116   .     S
C802   H803    1.106   .     S
C802   C805    1.536   .     S
C805   H807    1.109   .     S
C805   H806    1.112   .     S
C808   H809    1.111   .     S
C808   H811    1.107   .     S
C808   H810    1.110   .     S
C808   C1397   1.518   .     S
O812   C813    1.424   .     S
C813   H815    1.115   .     S
C813   C816    1.538   .     S
H814   C1405   1.109   .     S
C816   H818    1.109   .     S
H817   C1408   1.110   .     S
C819   H821    1.110   .     S
C819   H822    1.109   .     S
C819   H820    1.110   .     S
C819   C1408   1.524   .     S
O823   C824    1.417   .     S
C824   C827    1.533   .     S
C824   H826    1.113   .     S
C824   H677    1.106   1_655 S
C827   H829    1.108   .     S
C827   C830    1.524   .     S
C827   H680    1.112   1_655 S
C830   H832    1.110   .     S
C830   H831    1.111   .     S
C830   H685    1.109   1_655 S
O834   C835    1.413   .     S
C835   H837    1.116   .     S
H836   C687    1.111   1_655 S
C838   H839    1.109   .     S
C838   C841    1.522   .     S
C838   C687    1.534   1_655 S
C838   H692    1.110   1_655 S
C841   H842    1.109   .     S
C841   H844    1.109   .     S
C841   H843    1.111   .     S
O845   C846    1.411   .     S
C846   H847    1.110   .     S
C846   H848    1.114   .     S
C846   C849    1.526   .     S
C849   H851    1.111   .     S
C849   C852    1.527   .     S
C849   H850    1.105   .     S
C852   H854    1.109   .     S
C852   H853    1.111   .     S
C852   H855    1.111   .     S
O856   C857    1.415   .     S
C857   C860    1.531   .     S
C857   H859    1.117   .     S
C857   H858    1.110   .     S
C860   C863    1.528   .     S
C860   H862    1.111   .     S
C860   H861    1.112   .     S
C863   H864    1.110   .     S
C863   H865    1.110   .     S
C863   H866    1.111   .     S
O867   C868    1.422   .     S
C868   H869    1.111   .     S
C868   H870    1.117   .     S
C868   C871    1.535   .     S
C871   C874    1.526   .     S
C871   H872    1.109   .     S
C871   H873    1.110   .     S
C874   H877    1.111   .     S
C874   H876    1.110   .     S
C874   H875    1.111   .     S
O878   C879    1.418   .     S
C879   C882    1.530   .     S
C879   H880    1.106   .     S
C879   H881    1.117   .     S
C882   C885    1.527   .     S
C882   H884    1.107   .     S
C882   H883    1.112   .     S
C885   H886    1.111   .     S
C885   H887    1.110   .     S
C885   H888    1.110   .     S
O889   C893    1.304   .     A
O889   Zn905   1.984   .     S
O890   Zn906   1.984   .     S
O890   C894    1.301   .     A
O891   C894    1.294   .     A
O891   Zn905   1.990   .     S
O892   Zn906   1.990   .     S
O892   C893    1.302   .     A
C893   C921    1.470   .     S
C894   C922    1.455   .     S
O895   C903    1.285   .     A
O895   Zn905   1.959   .     S
O896   Zn906   1.959   .     S
O896   C904    1.285   .     A
O897   C904    1.285   .     A
O897   Zn905   1.958   .     S
O898   C903    1.285   .     A
O898   Zn906   1.958   .     S
C899   C925    1.406   .     A
C899   H929    1.077   .     S
C899   C909    1.407   .     A
C900   C910    1.406   .     A
C900   H930    1.078   .     S
C900   C926    1.409   .     A
C901   C909    1.407   .     A
C901   H931    1.078   .     S
C901   C927    1.408   .     A
C902   H932    1.077   .     S
C902   C910    1.405   .     A
C902   C928    1.407   .     A
C903   C911    1.373   .     S
C904   C912    1.373   .     S
Zn905  N908    2.026   .     S
Zn906  N907    2.026   .     S
N907   C925    1.379   .     A
N907   C927    1.377   .     A
N908   C928    1.379   .     A
N908   C926    1.379   .     A
C910   C613    1.525   1_565 S
C912   C1503   1.169   .     S
C913   C917    1.385   .     A
C913   O949    1.382   .     S
C913   C923    1.394   .     A
C914   O960    1.383   .     S
C914   C924    1.402   .     A
C914   C918    1.395   .     A
C915   C919    1.393   .     A
C915   C924    1.407   .     A
C915   O971    1.389   .     S
C916   O982    1.383   .     S
C916   C923    1.407   .     A
C916   C920    1.406   .     A
C917   C921    1.412   .     A
C917   O993    1.382   .     S
C918   O1004   1.385   .     S
C918   C922    1.411   .     A
C919   O1015   1.385   .     S
C919   C922    1.413   .     A
C920   O1026   1.387   .     S
C920   C921    1.420   .     A
C923   C1072   1.459   1_455 S
C924   C1071   1.459   .     S
C925   C933    1.479   .     S
C926   C937    1.475   .     S
C927   C941    1.473   .     S
C928   C945    1.475   .     S
C933   O934    1.219   .     D
C933   O935    1.398   .     S
O935   H936    1.014   .     S
C937   O939    1.396   .     S
C937   O938    1.220   .     D
O939   H940    1.014   .     S
C941   O943    1.397   .     S
C941   O942    1.219   .     D
O943   H944    1.014   .     S
C945   O946    1.217   .     D
C945   O947    1.397   .     S
O947   H948    1.014   .     S
O949   C950    1.418   .     S
C950   H952    1.116   .     S
C950   H951    1.106   .     S
C950   C953    1.536   .     S
C953   H955    1.109   .     S
C953   H954    1.112   .     S
C956   H957    1.111   .     S
C956   H959    1.107   .     S
C956   H958    1.110   .     S
C956   C1545   1.518   .     S
O960   C961    1.424   .     S
C961   H963    1.115   .     S
C961   C964    1.538   .     S
H962   C1553   1.109   .     S
C964   H966    1.109   .     S
H965   C1556   1.110   .     S
C967   H969    1.110   .     S
C967   H970    1.109   .     S
C967   H968    1.110   .     S
C967   C1556   1.524   .     S
O971   C972    1.417   .     S
C972   C975    1.533   .     S
C972   H974    1.113   .     S
C972   H1121   1.106   .     S
H973   C1120   1.106   1_455 S
C975   H977    1.108   .     S
C975   C978    1.524   .     S
C975   H1124   1.112   .     S
H976   C1123   1.112   1_455 S
C978   H980    1.110   .     S
C978   H979    1.111   .     S
C978   H1129   1.109   .     S
H981   C1126   1.109   1_455 S
O982   C983    1.413   .     S
C983   H985    1.116   .     S
C983   H1132   1.111   1_455 S
C983   C1134   1.534   1_455 S
H984   C1131   1.111   .     S
C986   H987    1.109   .     S
C986   C989    1.522   .     S
C986   C1131   1.534   .     S
C986   H1136   1.110   .     S
H988   C1134   1.110   1_455 S
C989   H990    1.109   .     S
C989   H992    1.109   .     S
C989   H991    1.111   .     S
O993   C994    1.411   .     S
C994   H995    1.110   .     S
C994   H996    1.114   .     S
C994   C997    1.526   .     S
C997   H999    1.111   .     S
C997   C1000   1.527   .     S
C997   H998    1.105   .     S
C1000  H1002   1.109   .     S
C1000  H1001   1.111   .     S
C1000  H1003   1.111   .     S
O1004  C1005   1.415   .     S
C1005  C1008   1.531   .     S
C1005  H1007   1.117   .     S
C1005  H1006   1.110   .     S
C1008  C1011   1.528   .     S
C1008  H1010   1.111   .     S
C1008  H1009   1.112   .     S
C1011  H1012   1.110   .     S
C1011  H1013   1.110   .     S
C1011  H1014   1.111   .     S
O1015  C1016   1.422   .     S
C1016  H1017   1.111   .     S
C1016  H1018   1.117   .     S
C1016  C1019   1.535   .     S
C1019  C1022   1.526   .     S
C1019  H1020   1.109   .     S
C1019  H1021   1.110   .     S
C1022  H1025   1.111   .     S
C1022  H1024   1.110   .     S
C1022  H1023   1.111   .     S
O1026  C1027   1.418   .     S
C1027  C1030   1.530   .     S
C1027  H1028   1.106   .     S
C1027  H1029   1.117   .     S
C1030  C1033   1.527   .     S
C1030  H1032   1.107   .     S
C1030  H1031   1.112   .     S
C1033  H1034   1.111   .     S
C1033  H1035   1.110   .     S
C1033  H1036   1.110   .     S
O1037  C1041   1.304   .     A
O1037  Zn1053  1.984   .     S
O1038  Zn1054  1.984   .     S
O1038  C1042   1.301   .     A
O1039  C1042   1.294   .     A
O1039  Zn1053  1.990   .     S
O1040  Zn1054  1.990   .     S
O1040  C1041   1.302   .     A
C1041  C1069   1.470   .     S
C1042  C1070   1.455   .     S
O1043  C1051   1.285   .     A
O1043  Zn1053  1.959   .     S
O1044  Zn1054  1.959   .     S
O1044  C1052   1.285   .     A
O1045  C1052   1.285   .     A
O1045  Zn1053  1.958   .     S
O1046  C1051   1.285   .     A
O1046  Zn1054  1.958   .     S
C1047  C1073   1.406   .     A
C1047  H1077   1.077   .     S
C1047  C1057   1.407   .     A
C1048  C1058   1.406   .     A
C1048  H1078   1.078   .     S
C1048  C1074   1.409   .     A
C1049  C1057   1.407   .     A
C1049  H1079   1.078   .     S
C1049  C1075   1.408   .     A
C1050  H1080   1.077   .     S
C1050  C1058   1.405   .     A
C1050  C1076   1.407   .     A
C1051  C1059   1.373   .     S
C1052  C1060   1.373   .     S
Zn1053 N1056   2.026   .     S
Zn1054 N1055   2.026   .     S
N1055  C1073   1.379   .     A
N1055  C1075   1.377   .     A
N1056  C1076   1.379   .     A
N1056  C1074   1.379   .     A
C1058  C761    1.525   1_565 S
C1060  C1651   1.169   .     S
C1061  C1065   1.385   .     A
C1061  O1097   1.382   .     S
C1061  C1071   1.394   .     A
C1062  O1108   1.383   .     S
C1062  C1072   1.402   .     A
C1062  C1066   1.395   .     A
C1063  C1067   1.393   .     A
C1063  C1072   1.407   .     A
C1063  O1119   1.389   .     S
C1064  O1130   1.383   .     S
C1064  C1071   1.407   .     A
C1064  C1068   1.406   .     A
C1065  C1069   1.412   .     A
C1065  O1141   1.382   .     S
C1066  O1152   1.385   .     S
C1066  C1070   1.411   .     A
C1067  O1163   1.385   .     S
C1067  C1070   1.413   .     A
C1068  O1174   1.387   .     S
C1068  C1069   1.420   .     A
C1072  C923    1.459   1_655 S
C1073  C1081   1.479   .     S
C1074  C1085   1.475   .     S
C1075  C1089   1.473   .     S
C1076  C1093   1.475   .     S
C1081  O1082   1.219   .     D
C1081  O1083   1.398   .     S
O1083  H1084   1.014   .     S
C1085  O1087   1.396   .     S
C1085  O1086   1.220   .     D
O1087  H1088   1.014   .     S
C1089  O1091   1.397   .     S
C1089  O1090   1.219   .     D
O1091  H1092   1.014   .     S
C1093  O1094   1.217   .     D
C1093  O1095   1.397   .     S
O1095  H1096   1.014   .     S
O1097  C1098   1.418   .     S
C1098  H1100   1.116   .     S
C1098  H1099   1.106   .     S
C1098  C1101   1.536   .     S
C1101  H1103   1.109   .     S
C1101  H1102   1.112   .     S
C1104  H1105   1.111   .     S
C1104  H1107   1.107   .     S
C1104  H1106   1.110   .     S
C1104  C1693   1.518   .     S
O1108  C1109   1.424   .     S
C1109  H1111   1.115   .     S
C1109  C1112   1.538   .     S
H1110  C1701   1.109   .     S
C1112  H1114   1.109   .     S
H1113  C1704   1.110   .     S
C1115  H1117   1.110   .     S
C1115  H1118   1.109   .     S
C1115  H1116   1.110   .     S
C1115  C1704   1.524   .     S
O1119  C1120   1.417   .     S
C1120  C1123   1.533   .     S
C1120  H1122   1.113   .     S
C1120  H973    1.106   1_655 S
C1123  H1125   1.108   .     S
C1123  C1126   1.524   .     S
C1123  H976    1.112   1_655 S
C1126  H1128   1.110   .     S
C1126  H1127   1.111   .     S
C1126  H981    1.109   1_655 S
O1130  C1131   1.413   .     S
C1131  H1133   1.116   .     S
H1132  C983    1.111   1_655 S
C1134  H1135   1.109   .     S
C1134  C1137   1.522   .     S
C1134  C983    1.534   1_655 S
C1134  H988    1.110   1_655 S
C1137  H1138   1.109   .     S
C1137  H1140   1.109   .     S
C1137  H1139   1.111   .     S
O1141  C1142   1.411   .     S
C1142  H1143   1.110   .     S
C1142  H1144   1.114   .     S
C1142  C1145   1.526   .     S
C1145  H1147   1.111   .     S
C1145  C1148   1.527   .     S
C1145  H1146   1.105   .     S
C1148  H1150   1.109   .     S
C1148  H1149   1.111   .     S
C1148  H1151   1.111   .     S
O1152  C1153   1.415   .     S
C1153  C1156   1.531   .     S
C1153  H1155   1.117   .     S
C1153  H1154   1.110   .     S
C1156  C1159   1.528   .     S
C1156  H1158   1.111   .     S
C1156  H1157   1.112   .     S
C1159  H1160   1.110   .     S
C1159  H1161   1.110   .     S
C1159  H1162   1.111   .     S
O1163  C1164   1.422   .     S
C1164  H1165   1.111   .     S
C1164  H1166   1.117   .     S
C1164  C1167   1.535   .     S
C1167  C1170   1.526   .     S
C1167  H1168   1.109   .     S
C1167  H1169   1.110   .     S
C1170  H1173   1.111   .     S
C1170  H1172   1.110   .     S
C1170  H1171   1.111   .     S
O1174  C1175   1.418   .     S
C1175  C1178   1.530   .     S
C1175  H1176   1.106   .     S
C1175  H1177   1.117   .     S
C1178  C1181   1.527   .     S
C1178  H1180   1.107   .     S
C1178  H1179   1.112   .     S
C1181  H1182   1.111   .     S
C1181  H1183   1.110   .     S
C1181  H1184   1.110   .     S
O1185  C1189   1.304   .     A
O1185  Zn1201  1.984   .     S
O1186  Zn1202  1.984   .     S
O1186  C1190   1.301   .     A
O1187  C1190   1.294   .     A
O1187  Zn1201  1.990   .     S
O1188  Zn1202  1.990   .     S
O1188  C1189   1.302   .     A
C1189  C1217   1.470   .     S
C1190  C1218   1.455   .     S
O1191  C1199   1.285   .     A
O1191  Zn1201  1.959   .     S
O1192  Zn1202  1.959   .     S
O1192  C1200   1.285   .     A
O1193  C1200   1.285   .     A
O1193  Zn1201  1.958   .     S
O1194  C1199   1.285   .     A
O1194  Zn1202  1.958   .     S
C1195  C1221   1.406   .     A
C1195  H1225   1.077   .     S
C1195  C1205   1.407   .     A
C1196  C1206   1.406   .     A
C1196  H1226   1.078   .     S
C1196  C1222   1.409   .     A
C1197  C1205   1.407   .     A
C1197  H1227   1.078   .     S
C1197  C1223   1.408   .     A
C1198  H1228   1.077   .     S
C1198  C1206   1.405   .     A
C1198  C1224   1.407   .     A
C1199  C1207   1.373   .     S
C1200  C1208   1.373   .     S
Zn1201 N1204   2.026   .     S
Zn1202 N1203   2.026   .     S
N1203  C1221   1.379   .     A
N1203  C1223   1.377   .     A
N1204  C1224   1.379   .     A
N1204  C1222   1.379   .     A
C1205  C1502   1.525   1_545 S
C1206  C1501   1.525   .     S
C1208  C23     1.169   1_556 S
C1209  C1213   1.385   .     A
C1209  O1245   1.382   .     S
C1209  C1219   1.394   .     A
C1210  O1256   1.383   .     S
C1210  C1220   1.402   .     A
C1210  C1214   1.395   .     A
C1211  C1215   1.393   .     A
C1211  C1220   1.407   .     A
C1211  O1267   1.389   .     S
C1212  O1278   1.383   .     S
C1212  C1219   1.407   .     A
C1212  C1216   1.406   .     A
C1213  C1217   1.412   .     A
C1213  O1289   1.382   .     S
C1214  O1300   1.385   .     S
C1214  C1218   1.411   .     A
C1215  O1311   1.385   .     S
C1215  C1218   1.413   .     A
C1216  O1322   1.387   .     S
C1216  C1217   1.420   .     A
C1219  C1368   1.459   1_455 S
C1220  C1367   1.459   .     S
C1221  C1229   1.479   .     S
C1222  C1233   1.475   .     S
C1223  C1237   1.473   .     S
C1224  C1241   1.475   .     S
C1229  O1230   1.219   .     D
C1229  O1231   1.398   .     S
O1231  H1232   1.014   .     S
C1233  O1235   1.396   .     S
C1233  O1234   1.220   .     D
O1235  H1236   1.014   .     S
C1237  O1239   1.397   .     S
C1237  O1238   1.219   .     D
O1239  H1240   1.014   .     S
C1241  O1242   1.217   .     D
C1241  O1243   1.397   .     S
O1243  H1244   1.014   .     S
O1245  C1246   1.418   .     S
C1246  H1248   1.116   .     S
C1246  H1247   1.106   .     S
C1246  C1249   1.536   .     S
C1249  H1251   1.109   .     S
C1249  H1250   1.112   .     S
C1252  H1253   1.111   .     S
C1252  H1255   1.107   .     S
C1252  H1254   1.110   .     S
C1252  C65     1.518   1_556 S
O1256  C1257   1.424   .     S
C1257  H1259   1.115   .     S
C1257  C1260   1.538   .     S
H1258  C73     1.109   1_556 S
C1260  H1262   1.109   .     S
H1261  C76     1.110   1_556 S
C1263  H1265   1.110   .     S
C1263  H1266   1.109   .     S
C1263  H1264   1.110   .     S
C1263  C76     1.524   1_556 S
O1267  C1268   1.417   .     S
C1268  C1271   1.533   .     S
C1268  H1270   1.113   .     S
C1268  H1417   1.106   .     S
H1269  C1416   1.106   1_455 S
C1271  H1273   1.108   .     S
C1271  C1274   1.524   .     S
C1271  H1420   1.112   .     S
H1272  C1419   1.112   1_455 S
C1274  H1276   1.110   .     S
C1274  H1275   1.111   .     S
C1274  H1425   1.109   .     S
H1277  C1422   1.109   1_455 S
O1278  C1279   1.413   .     S
C1279  H1281   1.116   .     S
C1279  H1428   1.111   1_455 S
C1279  C1430   1.534   1_455 S
H1280  C1427   1.111   .     S
C1282  H1283   1.109   .     S
C1282  C1285   1.522   .     S
C1282  C1427   1.534   .     S
C1282  H1432   1.110   .     S
H1284  C1430   1.110   1_455 S
C1285  H1286   1.109   .     S
C1285  H1288   1.109   .     S
C1285  H1287   1.111   .     S
O1289  C1290   1.411   .     S
C1290  H1291   1.110   .     S
C1290  H1292   1.114   .     S
C1290  C1293   1.526   .     S
C1293  H1295   1.111   .     S
C1293  C1296   1.527   .     S
C1293  H1294   1.105   .     S
C1296  H1298   1.109   .     S
C1296  H1297   1.111   .     S
C1296  H1299   1.111   .     S
O1300  C1301   1.415   .     S
C1301  C1304   1.531   .     S
C1301  H1303   1.117   .     S
C1301  H1302   1.110   .     S
C1304  C1307   1.528   .     S
C1304  H1306   1.111   .     S
C1304  H1305   1.112   .     S
C1307  H1308   1.110   .     S
C1307  H1309   1.110   .     S
C1307  H1310   1.111   .     S
O1311  C1312   1.422   .     S
C1312  H1313   1.111   .     S
C1312  H1314   1.117   .     S
C1312  C1315   1.535   .     S
C1315  C1318   1.526   .     S
C1315  H1316   1.109   .     S
C1315  H1317   1.110   .     S
C1318  H1321   1.111   .     S
C1318  H1320   1.110   .     S
C1318  H1319   1.111   .     S
O1322  C1323   1.418   .     S
C1323  C1326   1.530   .     S
C1323  H1324   1.106   .     S
C1323  H1325   1.117   .     S
C1326  C1329   1.527   .     S
C1326  H1328   1.107   .     S
C1326  H1327   1.112   .     S
C1329  H1330   1.111   .     S
C1329  H1331   1.110   .     S
C1329  H1332   1.110   .     S
O1333  C1337   1.304   .     A
O1333  Zn1349  1.984   .     S
O1334  Zn1350  1.984   .     S
O1334  C1338   1.301   .     A
O1335  C1338   1.294   .     A
O1335  Zn1349  1.990   .     S
O1336  Zn1350  1.990   .     S
O1336  C1337   1.302   .     A
C1337  C1365   1.470   .     S
C1338  C1366   1.455   .     S
O1339  C1347   1.285   .     A
O1339  Zn1349  1.959   .     S
O1340  Zn1350  1.959   .     S
O1340  C1348   1.285   .     A
O1341  C1348   1.285   .     A
O1341  Zn1349  1.958   .     S
O1342  C1347   1.285   .     A
O1342  Zn1350  1.958   .     S
C1343  C1369   1.406   .     A
C1343  H1373   1.077   .     S
C1343  C1353   1.407   .     A
C1344  C1354   1.406   .     A
C1344  H1374   1.078   .     S
C1344  C1370   1.409   .     A
C1345  C1353   1.407   .     A
C1345  H1375   1.078   .     S
C1345  C1371   1.408   .     A
C1346  H1376   1.077   .     S
C1346  C1354   1.405   .     A
C1346  C1372   1.407   .     A
C1347  C1355   1.373   .     S
C1348  C1356   1.373   .     S
Zn1349 N1352   2.026   .     S
Zn1350 N1351   2.026   .     S
N1351  C1369   1.379   .     A
N1351  C1371   1.377   .     A
N1352  C1372   1.379   .     A
N1352  C1370   1.379   .     A
C1353  C1650   1.525   1_545 S
C1354  C1649   1.525   .     S
C1356  C171    1.169   1_556 S
C1357  C1361   1.385   .     A
C1357  O1393   1.382   .     S
C1357  C1367   1.394   .     A
C1358  O1404   1.383   .     S
C1358  C1368   1.402   .     A
C1358  C1362   1.395   .     A
C1359  C1363   1.393   .     A
C1359  C1368   1.407   .     A
C1359  O1415   1.389   .     S
C1360  O1426   1.383   .     S
C1360  C1367   1.407   .     A
C1360  C1364   1.406   .     A
C1361  C1365   1.412   .     A
C1361  O1437   1.382   .     S
C1362  O1448   1.385   .     S
C1362  C1366   1.411   .     A
C1363  O1459   1.385   .     S
C1363  C1366   1.413   .     A
C1364  O1470   1.387   .     S
C1364  C1365   1.420   .     A
C1368  C1219   1.459   1_655 S
C1369  C1377   1.479   .     S
C1370  C1381   1.475   .     S
C1371  C1385   1.473   .     S
C1372  C1389   1.475   .     S
C1377  O1378   1.219   .     D
C1377  O1379   1.398   .     S
O1379  H1380   1.014   .     S
C1381  O1383   1.396   .     S
C1381  O1382   1.220   .     D
O1383  H1384   1.014   .     S
C1385  O1387   1.397   .     S
C1385  O1386   1.219   .     D
O1387  H1388   1.014   .     S
C1389  O1390   1.217   .     D
C1389  O1391   1.397   .     S
O1391  H1392   1.014   .     S
O1393  C1394   1.418   .     S
C1394  H1396   1.116   .     S
C1394  H1395   1.106   .     S
C1394  C1397   1.536   .     S
C1397  H1399   1.109   .     S
C1397  H1398   1.112   .     S
C1400  H1401   1.111   .     S
C1400  H1403   1.107   .     S
C1400  H1402   1.110   .     S
C1400  C213    1.518   1_556 S
O1404  C1405   1.424   .     S
C1405  H1407   1.115   .     S
C1405  C1408   1.538   .     S
H1406  C221    1.109   1_556 S
C1408  H1410   1.109   .     S
H1409  C224    1.110   1_556 S
C1411  H1413   1.110   .     S
C1411  H1414   1.109   .     S
C1411  H1412   1.110   .     S
C1411  C224    1.524   1_556 S
O1415  C1416   1.417   .     S
C1416  C1419   1.533   .     S
C1416  H1418   1.113   .     S
C1416  H1269   1.106   1_655 S
C1419  H1421   1.108   .     S
C1419  C1422   1.524   .     S
C1419  H1272   1.112   1_655 S
C1422  H1424   1.110   .     S
C1422  H1423   1.111   .     S
C1422  H1277   1.109   1_655 S
O1426  C1427   1.413   .     S
C1427  H1429   1.116   .     S
H1428  C1279   1.111   1_655 S
C1430  H1431   1.109   .     S
C1430  C1433   1.522   .     S
C1430  C1279   1.534   1_655 S
C1430  H1284   1.110   1_655 S
C1433  H1434   1.109   .     S
C1433  H1436   1.109   .     S
C1433  H1435   1.111   .     S
O1437  C1438   1.411   .     S
C1438  H1439   1.110   .     S
C1438  H1440   1.114   .     S
C1438  C1441   1.526   .     S
C1441  H1443   1.111   .     S
C1441  C1444   1.527   .     S
C1441  H1442   1.105   .     S
C1444  H1446   1.109   .     S
C1444  H1445   1.111   .     S
C1444  H1447   1.111   .     S
O1448  C1449   1.415   .     S
C1449  C1452   1.531   .     S
C1449  H1451   1.117   .     S
C1449  H1450   1.110   .     S
C1452  C1455   1.528   .     S
C1452  H1454   1.111   .     S
C1452  H1453   1.112   .     S
C1455  H1456   1.110   .     S
C1455  H1457   1.110   .     S
C1455  H1458   1.111   .     S
O1459  C1460   1.422   .     S
C1460  H1461   1.111   .     S
C1460  H1462   1.117   .     S
C1460  C1463   1.535   .     S
C1463  C1466   1.526   .     S
C1463  H1464   1.109   .     S
C1463  H1465   1.110   .     S
C1466  H1469   1.111   .     S
C1466  H1468   1.110   .     S
C1466  H1467   1.111   .     S
O1470  C1471   1.418   .     S
C1471  C1474   1.530   .     S
C1471  H1472   1.106   .     S
C1471  H1473   1.117   .     S
C1474  C1477   1.527   .     S
C1474  H1476   1.107   .     S
C1474  H1475   1.112   .     S
C1477  H1478   1.111   .     S
C1477  H1479   1.110   .     S
C1477  H1480   1.110   .     S
O1481  C1485   1.304   .     A
O1481  Zn1497  1.984   .     S
O1482  Zn1498  1.984   .     S
O1482  C1486   1.301   .     A
O1483  C1486   1.294   .     A
O1483  Zn1497  1.990   .     S
O1484  Zn1498  1.990   .     S
O1484  C1485   1.302   .     A
C1485  C1513   1.470   .     S
C1486  C1514   1.455   .     S
O1487  C1495   1.285   .     A
O1487  Zn1497  1.959   .     S
O1488  Zn1498  1.959   .     S
O1488  C1496   1.285   .     A
O1489  C1496   1.285   .     A
O1489  Zn1497  1.958   .     S
O1490  C1495   1.285   .     A
O1490  Zn1498  1.958   .     S
C1491  C1517   1.406   .     A
C1491  H1521   1.077   .     S
C1491  C1501   1.407   .     A
C1492  C1502   1.406   .     A
C1492  H1522   1.078   .     S
C1492  C1518   1.409   .     A
C1493  C1501   1.407   .     A
C1493  H1523   1.078   .     S
C1493  C1519   1.408   .     A
C1494  H1524   1.077   .     S
C1494  C1502   1.405   .     A
C1494  C1520   1.407   .     A
C1495  C1503   1.373   .     S
C1496  C1504   1.373   .     S
Zn1497 N1500   2.026   .     S
Zn1498 N1499   2.026   .     S
N1499  C1517   1.379   .     A
N1499  C1519   1.377   .     A
N1500  C1520   1.379   .     A
N1500  C1518   1.379   .     A
C1502  C1205   1.525   1_565 S
C1504  C319    1.169   1_556 S
C1505  C1509   1.385   .     A
C1505  O1541   1.382   .     S
C1505  C1515   1.394   .     A
C1506  O1552   1.383   .     S
C1506  C1516   1.402   .     A
C1506  C1510   1.395   .     A
C1507  C1511   1.393   .     A
C1507  C1516   1.407   .     A
C1507  O1563   1.389   .     S
C1508  O1574   1.383   .     S
C1508  C1515   1.407   .     A
C1508  C1512   1.406   .     A
C1509  C1513   1.412   .     A
C1509  O1585   1.382   .     S
C1510  O1596   1.385   .     S
C1510  C1514   1.411   .     A
C1511  O1607   1.385   .     S
C1511  C1514   1.413   .     A
C1512  O1618   1.387   .     S
C1512  C1513   1.420   .     A
C1515  C1664   1.459   1_455 S
C1516  C1663   1.459   .     S
C1517  C1525   1.479   .     S
C1518  C1529   1.475   .     S
C1519  C1533   1.473   .     S
C1520  C1537   1.475   .     S
C1525  O1526   1.219   .     D
C1525  O1527   1.398   .     S
O1527  H1528   1.014   .     S
C1529  O1531   1.396   .     S
C1529  O1530   1.220   .     D
O1531  H1532   1.014   .     S
C1533  O1535   1.397   .     S
C1533  O1534   1.219   .     D
O1535  H1536   1.014   .     S
C1537  O1538   1.217   .     D
C1537  O1539   1.397   .     S
O1539  H1540   1.014   .     S
O1541  C1542   1.418   .     S
C1542  H1544   1.116   .     S
C1542  H1543   1.106   .     S
C1542  C1545   1.536   .     S
C1545  H1547   1.109   .     S
C1545  H1546   1.112   .     S
C1548  H1549   1.111   .     S
C1548  H1551   1.107   .     S
C1548  H1550   1.110   .     S
C1548  C361    1.518   1_556 S
O1552  C1553   1.424   .     S
C1553  H1555   1.115   .     S
C1553  C1556   1.538   .     S
H1554  C369    1.109   1_556 S
C1556  H1558   1.109   .     S
H1557  C372    1.110   1_556 S
C1559  H1561   1.110   .     S
C1559  H1562   1.109   .     S
C1559  H1560   1.110   .     S
C1559  C372    1.524   1_556 S
O1563  C1564   1.417   .     S
C1564  C1567   1.533   .     S
C1564  H1566   1.113   .     S
C1564  H1713   1.106   .     S
H1565  C1712   1.106   1_455 S
C1567  H1569   1.108   .     S
C1567  C1570   1.524   .     S
C1567  H1716   1.112   .     S
H1568  C1715   1.112   1_455 S
C1570  H1572   1.110   .     S
C1570  H1571   1.111   .     S
C1570  H1721   1.109   .     S
H1573  C1718   1.109   1_455 S
O1574  C1575   1.413   .     S
C1575  H1577   1.116   .     S
C1575  H1724   1.111   1_455 S
C1575  C1726   1.534   1_455 S
H1576  C1723   1.111   .     S
C1578  H1579   1.109   .     S
C1578  C1581   1.522   .     S
C1578  C1723   1.534   .     S
C1578  H1728   1.110   .     S
H1580  C1726   1.110   1_455 S
C1581  H1582   1.109   .     S
C1581  H1584   1.109   .     S
C1581  H1583   1.111   .     S
O1585  C1586   1.411   .     S
C1586  H1587   1.110   .     S
C1586  H1588   1.114   .     S
C1586  C1589   1.526   .     S
C1589  H1591   1.111   .     S
C1589  C1592   1.527   .     S
C1589  H1590   1.105   .     S
C1592  H1594   1.109   .     S
C1592  H1593   1.111   .     S
C1592  H1595   1.111   .     S
O1596  C1597   1.415   .     S
C1597  C1600   1.531   .     S
C1597  H1599   1.117   .     S
C1597  H1598   1.110   .     S
C1600  C1603   1.528   .     S
C1600  H1602   1.111   .     S
C1600  H1601   1.112   .     S
C1603  H1604   1.110   .     S
C1603  H1605   1.110   .     S
C1603  H1606   1.111   .     S
O1607  C1608   1.422   .     S
C1608  H1609   1.111   .     S
C1608  H1610   1.117   .     S
C1608  C1611   1.535   .     S
C1611  C1614   1.526   .     S
C1611  H1612   1.109   .     S
C1611  H1613   1.110   .     S
C1614  H1617   1.111   .     S
C1614  H1616   1.110   .     S
C1614  H1615   1.111   .     S
O1618  C1619   1.418   .     S
C1619  C1622   1.530   .     S
C1619  H1620   1.106   .     S
C1619  H1621   1.117   .     S
C1622  C1625   1.527   .     S
C1622  H1624   1.107   .     S
C1622  H1623   1.112   .     S
C1625  H1626   1.111   .     S
C1625  H1627   1.110   .     S
C1625  H1628   1.110   .     S
O1629  C1633   1.304   .     A
O1629  Zn1645  1.984   .     S
O1630  Zn1646  1.984   .     S
O1630  C1634   1.301   .     A
O1631  C1634   1.294   .     A
O1631  Zn1645  1.990   .     S
O1632  Zn1646  1.990   .     S
O1632  C1633   1.302   .     A
C1633  C1661   1.470   .     S
C1634  C1662   1.455   .     S
O1635  C1643   1.285   .     A
O1635  Zn1645  1.959   .     S
O1636  Zn1646  1.959   .     S
O1636  C1644   1.285   .     A
O1637  C1644   1.285   .     A
O1637  Zn1645  1.958   .     S
O1638  C1643   1.285   .     A
O1638  Zn1646  1.958   .     S
C1639  C1665   1.406   .     A
C1639  H1669   1.077   .     S
C1639  C1649   1.407   .     A
C1640  C1650   1.406   .     A
C1640  H1670   1.078   .     S
C1640  C1666   1.409   .     A
C1641  C1649   1.407   .     A
C1641  H1671   1.078   .     S
C1641  C1667   1.408   .     A
C1642  H1672   1.077   .     S
C1642  C1650   1.405   .     A
C1642  C1668   1.407   .     A
C1643  C1651   1.373   .     S
C1644  C1652   1.373   .     S
Zn1645 N1648   2.026   .     S
Zn1646 N1647   2.026   .     S
N1647  C1665   1.379   .     A
N1647  C1667   1.377   .     A
N1648  C1668   1.379   .     A
N1648  C1666   1.379   .     A
C1650  C1353   1.525   1_565 S
C1652  C467    1.169   1_556 S
C1653  C1657   1.385   .     A
C1653  O1689   1.382   .     S
C1653  C1663   1.394   .     A
C1654  O1700   1.383   .     S
C1654  C1664   1.402   .     A
C1654  C1658   1.395   .     A
C1655  C1659   1.393   .     A
C1655  C1664   1.407   .     A
C1655  O1711   1.389   .     S
C1656  O1722   1.383   .     S
C1656  C1663   1.407   .     A
C1656  C1660   1.406   .     A
C1657  C1661   1.412   .     A
C1657  O1733   1.382   .     S
C1658  O1744   1.385   .     S
C1658  C1662   1.411   .     A
C1659  O1755   1.385   .     S
C1659  C1662   1.413   .     A
C1660  O1766   1.387   .     S
C1660  C1661   1.420   .     A
C1664  C1515   1.459   1_655 S
C1665  C1673   1.479   .     S
C1666  C1677   1.475   .     S
C1667  C1681   1.473   .     S
C1668  C1685   1.475   .     S
C1673  O1674   1.219   .     D
C1673  O1675   1.398   .     S
O1675  H1676   1.014   .     S
C1677  O1679   1.396   .     S
C1677  O1678   1.220   .     D
O1679  H1680   1.014   .     S
C1681  O1683   1.397   .     S
C1681  O1682   1.219   .     D
O1683  H1684   1.014   .     S
C1685  O1686   1.217   .     D
C1685  O1687   1.397   .     S
O1687  H1688   1.014   .     S
O1689  C1690   1.418   .     S
C1690  H1692   1.116   .     S
C1690  H1691   1.106   .     S
C1690  C1693   1.536   .     S
C1693  H1695   1.109   .     S
C1693  H1694   1.112   .     S
C1696  H1697   1.111   .     S
C1696  H1699   1.107   .     S
C1696  H1698   1.110   .     S
C1696  C509    1.518   1_556 S
O1700  C1701   1.424   .     S
C1701  H1703   1.115   .     S
C1701  C1704   1.538   .     S
H1702  C517    1.109   1_556 S
C1704  H1706   1.109   .     S
H1705  C520    1.110   1_556 S
C1707  H1709   1.110   .     S
C1707  H1710   1.109   .     S
C1707  H1708   1.110   .     S
C1707  C520    1.524   1_556 S
O1711  C1712   1.417   .     S
C1712  C1715   1.533   .     S
C1712  H1714   1.113   .     S
C1712  H1565   1.106   1_655 S
C1715  H1717   1.108   .     S
C1715  C1718   1.524   .     S
C1715  H1568   1.112   1_655 S
C1718  H1720   1.110   .     S
C1718  H1719   1.111   .     S
C1718  H1573   1.109   1_655 S
O1722  C1723   1.413   .     S
C1723  H1725   1.116   .     S
H1724  C1575   1.111   1_655 S
C1726  H1727   1.109   .     S
C1726  C1729   1.522   .     S
C1726  C1575   1.534   1_655 S
C1726  H1580   1.110   1_655 S
C1729  H1730   1.109   .     S
C1729  H1732   1.109   .     S
C1729  H1731   1.111   .     S
O1733  C1734   1.411   .     S
C1734  H1735   1.110   .     S
C1734  H1736   1.114   .     S
C1734  C1737   1.526   .     S
C1737  H1739   1.111   .     S
C1737  C1740   1.527   .     S
C1737  H1738   1.105   .     S
C1740  H1742   1.109   .     S
C1740  H1741   1.111   .     S
C1740  H1743   1.111   .     S
O1744  C1745   1.415   .     S
C1745  C1748   1.531   .     S
C1745  H1747   1.117   .     S
C1745  H1746   1.110   .     S
C1748  C1751   1.528   .     S
C1748  H1750   1.111   .     S
C1748  H1749   1.112   .     S
C1751  H1752   1.110   .     S
C1751  H1753   1.110   .     S
C1751  H1754   1.111   .     S
O1755  C1756   1.422   .     S
C1756  H1757   1.111   .     S
C1756  H1758   1.117   .     S
C1756  C1759   1.535   .     S
C1759  C1762   1.526   .     S
C1759  H1760   1.109   .     S
C1759  H1761   1.110   .     S
C1762  H1765   1.111   .     S
C1762  H1764   1.110   .     S
C1762  H1763   1.111   .     S
O1766  C1767   1.418   .     S
C1767  C1770   1.530   .     S
C1767  H1768   1.106   .     S
C1767  H1769   1.117   .     S
C1770  C1773   1.527   .     S
C1770  H1772   1.107   .     S
C1770  H1771   1.112   .     S
C1773  H1774   1.111   .     S
C1773  H1775   1.110   .     S
C1773  H1776   1.110   .     S
