data_str_m1_o2_o5_pcu_sym.4
_audit_creation_date              2020-01-03
_audit_creation_method            'Materials Studio'
_symmetry_space_group_name_H-M    'P1'
_symmetry_Int_Tables_number       1
_symmetry_cell_setting            triclinic
loop_
_symmetry_equiv_pos_as_xyz
  x,y,z
_cell_length_a                    24.4321
_cell_length_b                    24.3998
_cell_length_c                    22.4357
_cell_angle_alpha                 89.9580
_cell_angle_beta                  90.1009
_cell_angle_gamma                 90.0018
loop_
_atom_site_label
_atom_site_type_symbol
_atom_site_fract_x
_atom_site_fract_y
_atom_site_fract_z
_atom_site_U_iso_or_equiv
_atom_site_adp_type
_atom_site_occupancy
C1     C     0.23072   0.27363   0.25089   0.00000  Uiso   1.00
C2     C     0.77289   0.73043   0.75051   0.00000  Uiso   1.00
C3     C     0.27403   0.76888   0.24877   0.00000  Uiso   1.00
C4     C     0.73092   0.22657   0.74834   0.00000  Uiso   1.00
C5     C     0.77114   0.72846   0.25263   0.00000  Uiso   1.00
C6     C     0.22882   0.27145   0.75382   0.00000  Uiso   1.00
C7     C     0.72632   0.23091   0.24981   0.00000  Uiso   1.00
C8     C     0.26944   0.77317   0.74924   0.00000  Uiso   1.00
C9     C     0.77406   0.26885   0.74871   0.00000  Uiso   1.00
C10    C     0.23089   0.72660   0.24839   0.00000  Uiso   1.00
C11    C     0.73073   0.77364   0.75088   0.00000  Uiso   1.00
C12    C     0.27289   0.23043   0.25052   0.00000  Uiso   1.00
C13    C     0.22630   0.73093   0.74978   0.00000  Uiso   1.00
C14    C     0.76946   0.27316   0.24928   0.00000  Uiso   1.00
C15    C     0.27114   0.22846   0.75263   0.00000  Uiso   1.00
C16    C     0.72882   0.77145   0.25383   0.00000  Uiso   1.00
C17    C     0.00004   0.50001   0.47332   0.00000  Uiso   1.00
C18    C     0.99996   0.50001   0.52668   0.00000  Uiso   1.00
C19    C     0.50000   0.99998   0.47332   0.00000  Uiso   1.00
C20    C     0.50001   0.00002   0.52668   0.00000  Uiso   1.00
C21    C     0.50004   0.00002   0.97332   0.00000  Uiso   1.00
C22    C     0.49996   0.00001   0.02668   0.00000  Uiso   1.00
C23    C     0.00000   0.49998   0.97332   0.00000  Uiso   1.00
C24    C     0.00001   0.50002   0.02668   0.00000  Uiso   1.00
C25    C     0.00001   0.50001   0.08999   0.00000  Uiso   1.00
C26    C     0.00000   0.49999   0.91001   0.00000  Uiso   1.00
C27    C     0.49997   0.00001   0.09000   0.00000  Uiso   1.00
C28    C     0.50003   0.00001   0.91000   0.00000  Uiso   1.00
C29    C     0.50000   0.00001   0.58999   0.00000  Uiso   1.00
C30    C     0.50000   0.99999   0.41001   0.00000  Uiso   1.00
C31    C     0.99997   0.50001   0.59000   0.00000  Uiso   1.00
C32    C     0.00003   0.50001   0.41000   0.00000  Uiso   1.00
C33    C     0.10531   0.60514   0.24987   0.00000  Uiso   1.00
C34    C     0.89487   0.39471   0.74993   0.00000  Uiso   1.00
C35    C     0.60515   0.89474   0.25006   0.00000  Uiso   1.00
C36    C     0.39474   0.10514   0.74988   0.00000  Uiso   1.00
C37    C     0.89478   0.39481   0.24995   0.00000  Uiso   1.00
C38    C     0.10522   0.60521   0.75013   0.00000  Uiso   1.00
C39    C     0.39492   0.10539   0.24979   0.00000  Uiso   1.00
C40    C     0.60516   0.89474   0.75018   0.00000  Uiso   1.00
C41    C     0.89492   0.60539   0.74979   0.00000  Uiso   1.00
C42    C     0.10516   0.39474   0.25018   0.00000  Uiso   1.00
C43    C     0.39478   0.89481   0.74994   0.00000  Uiso   1.00
C44    C     0.60522   0.10521   0.25013   0.00000  Uiso   1.00
C45    C     0.10515   0.39474   0.75006   0.00000  Uiso   1.00
C46    C     0.89474   0.60513   0.24988   0.00000  Uiso   1.00
C47    C     0.60531   0.10514   0.74987   0.00000  Uiso   1.00
C48    C     0.39487   0.89471   0.24994   0.00000  Uiso   1.00
C49    C     0.20321   0.28676   0.19756   0.00000  Uiso   1.00
C50    C     0.82785   0.74402   0.76206   0.00000  Uiso   1.00
C51    C     0.28558   0.79844   0.19610   0.00000  Uiso   1.00
C52    C     0.74353   0.17188   0.76367   0.00000  Uiso   1.00
C53    C     0.80020   0.71781   0.19949   0.00000  Uiso   1.00
C54    C     0.17416   0.25773   0.76737   0.00000  Uiso   1.00
C55    C     0.71472   0.20165   0.19721   0.00000  Uiso   1.00
C56    C     0.25572   0.82842   0.75923   0.00000  Uiso   1.00
C57    C     0.80255   0.28014   0.80220   0.00000  Uiso   1.00
C58    C     0.17662   0.74100   0.23351   0.00000  Uiso   1.00
C59    C     0.71848   0.80152   0.80433   0.00000  Uiso   1.00
C60    C     0.25828   0.17573   0.23761   0.00000  Uiso   1.00
C61    C     0.19732   0.72009   0.80288   0.00000  Uiso   1.00
C62    C     0.82422   0.25811   0.23827   0.00000  Uiso   1.00
C63    C     0.28361   0.19916   0.80505   0.00000  Uiso   1.00
C64    C     0.74270   0.82624   0.24012   0.00000  Uiso   1.00
C65    C     0.70320   0.78675   0.69756   0.00000  Uiso   1.00
C66    C     0.32784   0.24402   0.26209   0.00000  Uiso   1.00
C67    C     0.78557   0.29846   0.69607   0.00000  Uiso   1.00
C68    C     0.24350   0.67193   0.26380   0.00000  Uiso   1.00
C69    C     0.30018   0.21779   0.69948   0.00000  Uiso   1.00
C70    C     0.67416   0.75773   0.26736   0.00000  Uiso   1.00
C71    C     0.21462   0.70172   0.69716   0.00000  Uiso   1.00
C72    C     0.75572   0.32842   0.25911   0.00000  Uiso   1.00
C73    C     0.30247   0.78023   0.30226   0.00000  Uiso   1.00
C74    C     0.67663   0.24099   0.73354   0.00000  Uiso   1.00
C75    C     0.21846   0.30150   0.30433   0.00000  Uiso   1.00
C76    C     0.75828   0.67573   0.73764   0.00000  Uiso   1.00
C77    C     0.69726   0.22015   0.30287   0.00000  Uiso   1.00
C78    C     0.32419   0.75814   0.73811   0.00000  Uiso   1.00
C79    C     0.78360   0.69914   0.30505   0.00000  Uiso   1.00
C80    C     0.24270   0.32623   0.74009   0.00000  Uiso   1.00
C81    C     0.16105   0.32516   0.19800   0.00000  Uiso   1.00
C82    C     0.86736   0.70242   0.76352   0.00000  Uiso   1.00
C83    C     0.32403   0.84050   0.19738   0.00000  Uiso   1.00
C84    C     0.70184   0.13286   0.76553   0.00000  Uiso   1.00
C85    C     0.84189   0.67873   0.19945   0.00000  Uiso   1.00
C86    C     0.13430   0.29880   0.76772   0.00000  Uiso   1.00
C87    C     0.67625   0.15952   0.19811   0.00000  Uiso   1.00
C88    C     0.29763   0.86773   0.76157   0.00000  Uiso   1.00
C89    C     0.84263   0.32187   0.80153   0.00000  Uiso   1.00
C90    C     0.13609   0.70071   0.23218   0.00000  Uiso   1.00
C91    C     0.67622   0.84105   0.80336   0.00000  Uiso   1.00
C92    C     0.29889   0.13560   0.23468   0.00000  Uiso   1.00
C93    C     0.15758   0.67800   0.80223   0.00000  Uiso   1.00
C94    C     0.86478   0.29838   0.23647   0.00000  Uiso   1.00
C95    C     0.32257   0.15698   0.80260   0.00000  Uiso   1.00
C96    C     0.70154   0.86567   0.23605   0.00000  Uiso   1.00
C97    C     0.66104   0.82514   0.69801   0.00000  Uiso   1.00
C98    C     0.36735   0.20242   0.26355   0.00000  Uiso   1.00
C99    C     0.82401   0.34053   0.69737   0.00000  Uiso   1.00
C100   C     0.20181   0.63289   0.26563   0.00000  Uiso   1.00
C101   C     0.34188   0.17872   0.69944   0.00000  Uiso   1.00
C102   C     0.63429   0.79880   0.26770   0.00000  Uiso   1.00
C103   C     0.17617   0.65958   0.69807   0.00000  Uiso   1.00
C104   C     0.79762   0.36774   0.26145   0.00000  Uiso   1.00
C105   C     0.34257   0.82195   0.30158   0.00000  Uiso   1.00
C106   C     0.63609   0.20071   0.73223   0.00000  Uiso   1.00
C107   C     0.17620   0.34104   0.30337   0.00000  Uiso   1.00
C108   C     0.79888   0.63559   0.73470   0.00000  Uiso   1.00
C109   C     0.65752   0.17806   0.30221   0.00000  Uiso   1.00
C110   C     0.36475   0.79840   0.73632   0.00000  Uiso   1.00
C111   C     0.82256   0.65696   0.30259   0.00000  Uiso   1.00
C112   C     0.20153   0.36567   0.73603   0.00000  Uiso   1.00
C113   C     0.14782   0.35268   0.25054   0.00000  Uiso   1.00
C114   C     0.85314   0.64839   0.74916   0.00000  Uiso   1.00
C115   C     0.35311   0.85178   0.24956   0.00000  Uiso   1.00
C116   C     0.64831   0.14684   0.74910   0.00000  Uiso   1.00
C117   C     0.85249   0.64758   0.25051   0.00000  Uiso   1.00
C118   C     0.14752   0.35241   0.75077   0.00000  Uiso   1.00
C119   C     0.64715   0.14808   0.25016   0.00000  Uiso   1.00
C120   C     0.35184   0.85299   0.74926   0.00000  Uiso   1.00
C121   C     0.85312   0.35176   0.74954   0.00000  Uiso   1.00
C122   C     0.14831   0.64685   0.24911   0.00000  Uiso   1.00
C123   C     0.64782   0.85268   0.75054   0.00000  Uiso   1.00
C124   C     0.35314   0.14839   0.24916   0.00000  Uiso   1.00
C125   C     0.14714   0.64808   0.75015   0.00000  Uiso   1.00
C126   C     0.85185   0.35299   0.24927   0.00000  Uiso   1.00
C127   C     0.35249   0.14758   0.75051   0.00000  Uiso   1.00
C128   C     0.64752   0.85241   0.25077   0.00000  Uiso   1.00
H1     H     0.13984   0.33463   0.15681   0.00000  Uiso   1.00
H2     H     0.90926   0.71246   0.77498   0.00000  Uiso   1.00
H3     H     0.33183   0.86369   0.15707   0.00000  Uiso   1.00
H4     H     0.71170   0.09130   0.77881   0.00000  Uiso   1.00
H5     H     0.86481   0.67167   0.15887   0.00000  Uiso   1.00
H6     H     0.09274   0.28840   0.78016   0.00000  Uiso   1.00
H7     H     0.66830   0.13664   0.15763   0.00000  Uiso   1.00
H8     H     0.28789   0.90991   0.77205   0.00000  Uiso   1.00
H9     H     0.86536   0.33281   0.84102   0.00000  Uiso   1.00
H10    H     0.09477   0.71200   0.21959   0.00000  Uiso   1.00
H11    H     0.66391   0.86246   0.84319   0.00000  Uiso   1.00
H12    H     0.28756   0.09396   0.22328   0.00000  Uiso   1.00
H13    H     0.13516   0.66690   0.84181   0.00000  Uiso   1.00
H14    H     0.90661   0.28661   0.22684   0.00000  Uiso   1.00
H15    H     0.33070   0.13254   0.84189   0.00000  Uiso   1.00
H16    H     0.71230   0.90724   0.22373   0.00000  Uiso   1.00
H17    H     0.63981   0.83460   0.65682   0.00000  Uiso   1.00
H18    H     0.40925   0.21245   0.27503   0.00000  Uiso   1.00
H19    H     0.83177   0.36376   0.65708   0.00000  Uiso   1.00
H20    H     0.21167   0.59135   0.27897   0.00000  Uiso   1.00
H21    H     0.36479   0.17165   0.65886   0.00000  Uiso   1.00
H22    H     0.59273   0.78839   0.28013   0.00000  Uiso   1.00
H23    H     0.16816   0.63675   0.65757   0.00000  Uiso   1.00
H24    H     0.78786   0.40994   0.27181   0.00000  Uiso   1.00
H25    H     0.36528   0.83291   0.34107   0.00000  Uiso   1.00
H26    H     0.59476   0.21202   0.71970   0.00000  Uiso   1.00
H27    H     0.16388   0.36243   0.34320   0.00000  Uiso   1.00
H28    H     0.78755   0.59396   0.72332   0.00000  Uiso   1.00
H29    H     0.63506   0.16701   0.34178   0.00000  Uiso   1.00
H30    H     0.40655   0.78665   0.72659   0.00000  Uiso   1.00
H31    H     0.83068   0.63251   0.34188   0.00000  Uiso   1.00
H32    H     0.21230   0.40724   0.72369   0.00000  Uiso   1.00
O1     O     0.00000   0.50000   0.25000   0.00000  Uiso   1.00
O2     O     0.00000   0.50000   0.75000   0.00000  Uiso   1.00
O3     O     0.50000  -0.00000   0.25000   0.00000  Uiso   1.00
O4     O     0.50000  -0.00000   0.75000   0.00000  Uiso   1.00
O5     O     0.00000   0.45454   0.11798   0.00000  Uiso   1.00
O6     O     0.00000   0.54546   0.88202   0.00000  Uiso   1.00
O7     O     0.45454  -0.00000   0.11798   0.00000  Uiso   1.00
O8     O     0.54546   0.00000   0.88202   0.00000  Uiso   1.00
O9     O     0.00000   0.54546   0.11798   0.00000  Uiso   1.00
O10    O     0.00000   0.45454   0.88202   0.00000  Uiso   1.00
O11    O     0.54546  -0.00000   0.11798   0.00000  Uiso   1.00
O12    O     0.45454   0.00000   0.88202   0.00000  Uiso   1.00
O13    O     0.50000   0.95454   0.61798   0.00000  Uiso   1.00
O14    O     0.50000   0.04546   0.38202   0.00000  Uiso   1.00
O15    O     0.95454   0.50000   0.61798   0.00000  Uiso   1.00
O16    O     0.04546   0.50000   0.38202   0.00000  Uiso   1.00
O17    O     0.50000   0.04546   0.61798   0.00000  Uiso   1.00
O18    O     0.50000   0.95454   0.38202   0.00000  Uiso   1.00
O19    O     0.04546   0.50000   0.61798   0.00000  Uiso   1.00
O20    O     0.95454   0.50000   0.38202   0.00000  Uiso   1.00
O21    O     0.06399   0.60947   0.21539   0.00000  Uiso   1.00
O22    O     0.93601   0.39053   0.78461   0.00000  Uiso   1.00
O23    O     0.60947   0.93601   0.21539   0.00000  Uiso   1.00
O24    O     0.39053   0.06399   0.78461   0.00000  Uiso   1.00
O25    O     0.93601   0.39053   0.21539   0.00000  Uiso   1.00
O26    O     0.06399   0.60947   0.78461   0.00000  Uiso   1.00
O27    O     0.39053   0.06399   0.21539   0.00000  Uiso   1.00
O28    O     0.60947   0.93601   0.78461   0.00000  Uiso   1.00
O29    O     0.93601   0.60947   0.78461   0.00000  Uiso   1.00
O30    O     0.06399   0.39053   0.21539   0.00000  Uiso   1.00
O31    O     0.39053   0.93601   0.78461   0.00000  Uiso   1.00
O32    O     0.60947   0.06399   0.21539   0.00000  Uiso   1.00
O33    O     0.06399   0.39053   0.78461   0.00000  Uiso   1.00
O34    O     0.93601   0.60947   0.21539   0.00000  Uiso   1.00
O35    O     0.60947   0.06399   0.78461   0.00000  Uiso   1.00
O36    O     0.39053   0.93601   0.21539   0.00000  Uiso   1.00
O37    O     0.56399   0.10947   0.71539   0.00000  Uiso   1.00
O38    O     0.43601   0.89053   0.28461   0.00000  Uiso   1.00
O39    O     0.10947   0.43601   0.71539   0.00000  Uiso   1.00
O40    O     0.89053   0.56399   0.28461   0.00000  Uiso   1.00
O41    O     0.43601   0.89053   0.71539   0.00000  Uiso   1.00
O42    O     0.56399   0.10947   0.28461   0.00000  Uiso   1.00
O43    O     0.89053   0.56399   0.71539   0.00000  Uiso   1.00
O44    O     0.10947   0.43601   0.28461   0.00000  Uiso   1.00
O45    O     0.43601   0.10947   0.28461   0.00000  Uiso   1.00
O46    O     0.56399   0.89053   0.71539   0.00000  Uiso   1.00
O47    O     0.89053   0.43601   0.28461   0.00000  Uiso   1.00
O48    O     0.10947   0.56399   0.71539   0.00000  Uiso   1.00
O49    O     0.56399   0.89053   0.28461   0.00000  Uiso   1.00
O50    O     0.43601   0.10947   0.71539   0.00000  Uiso   1.00
O51    O     0.10947   0.56399   0.28461   0.00000  Uiso   1.00
O52    O     0.89053   0.43601   0.71539   0.00000  Uiso   1.00
Zn1    Zn    0.06497   0.50000   0.29947   0.00000  Uiso   1.00
Zn2    Zn    0.93503   0.50000   0.70053   0.00000  Uiso   1.00
Zn3    Zn    0.50000   0.93503   0.29947   0.00000  Uiso   1.00
Zn4    Zn    0.50000   0.06497   0.70053   0.00000  Uiso   1.00
Zn5    Zn    0.93503   0.50000   0.29947   0.00000  Uiso   1.00
Zn6    Zn    0.06497   0.50000   0.70053   0.00000  Uiso   1.00
Zn7    Zn    0.50000   0.06497   0.29947   0.00000  Uiso   1.00
Zn8    Zn    0.50000   0.93503   0.70053   0.00000  Uiso   1.00
Zn9    Zn    0.56497  -0.00000   0.79947   0.00000  Uiso   1.00
Zn10   Zn    0.43503  -0.00000   0.20053   0.00000  Uiso   1.00
Zn11   Zn    0.00000   0.43503   0.79947   0.00000  Uiso   1.00
Zn12   Zn    0.00000   0.56497   0.20053   0.00000  Uiso   1.00
Zn13   Zn    0.43503  -0.00000   0.79947   0.00000  Uiso   1.00
Zn14   Zn    0.56497  -0.00000   0.20053   0.00000  Uiso   1.00
Zn15   Zn    0.00000   0.56497   0.79947   0.00000  Uiso   1.00
Zn16   Zn    0.00000   0.43503   0.20053   0.00000  Uiso   1.00
O53    O     0.21784   0.26233   0.14438   0.00000  Uiso   1.00
C129   C     0.25850   0.29442   0.11587   0.00000  Uiso   1.00
H33    H     0.29554   0.26858   0.11044   0.00000  Uiso   1.00
H34    H     0.27153   0.33175   0.14120   0.00000  Uiso   1.00
C130   C     0.23783   0.31208   0.05444   0.00000  Uiso   1.00
H35    H     0.22813   0.27518   0.02744   0.00000  Uiso   1.00
H36    H     0.19974   0.33648   0.05964   0.00000  Uiso   1.00
C131   C     0.28028   0.34670   0.02168   0.00000  Uiso   1.00
H37    H     0.28924   0.38469   0.04715   0.00000  Uiso   1.00
H38    H     0.26415   0.35835   0.97713   0.00000  Uiso   1.00
H39    H     0.31879   0.32322   0.01555   0.00000  Uiso   1.00
O54    O     0.84157   0.79771   0.77526   0.00000  Uiso   1.00
C132   C     0.87736   0.81865   0.73142   0.00000  Uiso   1.00
H40    H     0.86521   0.80556   0.68561   0.00000  Uiso   1.00
H41    H     0.91988   0.80465   0.74062   0.00000  Uiso   1.00
C133   C     0.87581   0.88121   0.73389   0.00000  Uiso   1.00
H42    H     0.83314   0.89552   0.72633   0.00000  Uiso   1.00
H43    H     0.88915   0.89520   0.77876   0.00000  Uiso   1.00
C134   C     0.91304   0.90662   0.68685   0.00000  Uiso   1.00
H44    H     0.95597   0.89302   0.69373   0.00000  Uiso   1.00
H45    H     0.91150   0.95199   0.69039   0.00000  Uiso   1.00
H46    H     0.89934   0.89456   0.64147   0.00000  Uiso   1.00
O55    O     0.25649   0.78953   0.14404   0.00000  Uiso   1.00
C135   C     0.28172   0.74692   0.11164   0.00000  Uiso   1.00
H47    H     0.27376   0.70694   0.13377   0.00000  Uiso   1.00
H48    H     0.32678   0.75352   0.10757   0.00000  Uiso   1.00
C136   C     0.25707   0.74491   0.04904   0.00000  Uiso   1.00
H49    H     0.21214   0.73832   0.05222   0.00000  Uiso   1.00
H50    H     0.26440   0.78467   0.02618   0.00000  Uiso   1.00
C137   C     0.28224   0.69882   0.01216   0.00000  Uiso   1.00
H51    H     0.32707   0.70509   0.00752   0.00000  Uiso   1.00
H52    H     0.26363   0.69842   0.96699   0.00000  Uiso   1.00
H53    H     0.27452   0.65855   0.03369   0.00000  Uiso   1.00
O56    O     0.79567   0.15693   0.78142   0.00000  Uiso   1.00
C138   C     0.82554   0.13930   0.73118   0.00000  Uiso   1.00
H54    H     0.83754   0.17535   0.70382   0.00000  Uiso   1.00
H55    H     0.80148   0.11001   0.70329   0.00000  Uiso   1.00
C139   C     0.87758   0.11041   0.75229   0.00000  Uiso   1.00
H56    H     0.90282   0.13937   0.77890   0.00000  Uiso   1.00
H57    H     0.86637   0.07512   0.78116   0.00000  Uiso   1.00
C140   C     0.91142   0.08968   0.69982   0.00000  Uiso   1.00
H58    H     0.88722   0.06024   0.67274   0.00000  Uiso   1.00
H59    H     0.94851   0.06843   0.71675   0.00000  Uiso   1.00
H60    H     0.92440   0.12451   0.67123   0.00000  Uiso   1.00
O57    O     0.79028   0.74738   0.14796   0.00000  Uiso   1.00
C141   C     0.74725   0.72201   0.11620   0.00000  Uiso   1.00
H61    H     0.70771   0.72977   0.13912   0.00000  Uiso   1.00
H62    H     0.75388   0.67691   0.11186   0.00000  Uiso   1.00
C142   C     0.74396   0.74665   0.05369   0.00000  Uiso   1.00
H63    H     0.73702   0.79158   0.05701   0.00000  Uiso   1.00
H64    H     0.78332   0.73962   0.03013   0.00000  Uiso   1.00
C143   C     0.69750   0.72092   0.01769   0.00000  Uiso   1.00
H65    H     0.70416   0.67611   0.01287   0.00000  Uiso   1.00
H66    H     0.69597   0.73950   0.97256   0.00000  Uiso   1.00
H67    H     0.65762   0.72819   0.04004   0.00000  Uiso   1.00
O58    O     0.16048   0.20516   0.78511   0.00000  Uiso   1.00
C144   C     0.13394   0.17787   0.73770   0.00000  Uiso   1.00
H68    H     0.16431   0.16730   0.70268   0.00000  Uiso   1.00
H69    H     0.10061   0.20323   0.71774   0.00000  Uiso   1.00
C145   C     0.10868   0.12486   0.76130   0.00000  Uiso   1.00
H70    H     0.14141   0.09840   0.78027   0.00000  Uiso   1.00
H71    H     0.07912   0.13477   0.79733   0.00000  Uiso   1.00
C146   C     0.07890   0.09358   0.71208   0.00000  Uiso   1.00
H72    H     0.04576   0.11920   0.69268   0.00000  Uiso   1.00
H73    H     0.06035   0.05583   0.73092   0.00000  Uiso   1.00
H74    H     0.10801   0.08176   0.67635   0.00000  Uiso   1.00
O59    O     0.74267   0.21278   0.14511   0.00000  Uiso   1.00
C147   C     0.71168   0.25059   0.11142   0.00000  Uiso   1.00
H75    H     0.70468   0.28899   0.13716   0.00000  Uiso   1.00
H76    H     0.67144   0.23249   0.09861   0.00000  Uiso   1.00
C148   C     0.74314   0.26480   0.05476   0.00000  Uiso   1.00
H77    H     0.78373   0.28219   0.06685   0.00000  Uiso   1.00
H78    H     0.74975   0.22678   0.02853   0.00000  Uiso   1.00
C149   C     0.71199   0.30622   0.01662   0.00000  Uiso   1.00
H79    H     0.67172   0.28917   0.00295   0.00000  Uiso   1.00
H80    H     0.73597   0.31571   0.97591   0.00000  Uiso   1.00
H81    H     0.70546   0.34481   0.04187   0.00000  Uiso   1.00
O60    O     0.20147   0.84217   0.76976   0.00000  Uiso   1.00
C150   C     0.18426   0.88479   0.73133   0.00000  Uiso   1.00
H82    H     0.20209   0.88067   0.68575   0.00000  Uiso   1.00
H83    H     0.19621   0.92507   0.75052   0.00000  Uiso   1.00
C151   C     0.12196   0.88289   0.72584   0.00000  Uiso   1.00
H84    H     0.10933   0.84234   0.70792   0.00000  Uiso   1.00
H85    H     0.10333   0.88808   0.77065   0.00000  Uiso   1.00
C152   C     0.10083   0.92795   0.68458   0.00000  Uiso   1.00
H86    H     0.11325   0.96884   0.70160   0.00000  Uiso   1.00
H87    H     0.05547   0.92627   0.68246   0.00000  Uiso   1.00
H88    H     0.11735   0.92231   0.63890   0.00000  Uiso   1.00
O61    O     0.78618   0.25162   0.85336   0.00000  Uiso   1.00
C153   C     0.82416   0.25119   0.90107   0.00000  Uiso   1.00
H89    H     0.80346   0.23102   0.93918   0.00000  Uiso   1.00
H90    H     0.83377   0.29301   0.91742   0.00000  Uiso   1.00
C154   C     0.87532   0.21699   0.88683   0.00000  Uiso   1.00
H91    H     0.86284   0.17406   0.87751   0.00000  Uiso   1.00
H92    H     0.89658   0.23319   0.84686   0.00000  Uiso   1.00
C155   C     0.91538   0.21717   0.93905   0.00000  Uiso   1.00
H93    H     0.92930   0.25963   0.94851   0.00000  Uiso   1.00
H94    H     0.95163   0.19178   0.92781   0.00000  Uiso   1.00
H95    H     0.89570   0.19987   0.97950   0.00000  Uiso   1.00
O62    O     0.16331   0.79417   0.21796   0.00000  Uiso   1.00
C156   C     0.14888   0.82318   0.27003   0.00000  Uiso   1.00
H96    H     0.18130   0.81973   0.30493   0.00000  Uiso   1.00
H97    H     0.10954   0.80719   0.28812   0.00000  Uiso   1.00
C157   C     0.14188   0.88370   0.25428   0.00000  Uiso   1.00
H98    H     0.18074   0.89961   0.23520   0.00000  Uiso   1.00
H99    H     0.10912   0.88810   0.22016   0.00000  Uiso   1.00
C158   C     0.12688   0.91768   0.30894   0.00000  Uiso   1.00
H100   H     0.08788   0.90280   0.32854   0.00000  Uiso   1.00
H101   H     0.12165   0.96122   0.29571   0.00000  Uiso   1.00
H102   H     0.15985   0.91513   0.34300   0.00000  Uiso   1.00
O63    O     0.74667   0.78549   0.85581   0.00000  Uiso   1.00
C159   C     0.75147   0.82637   0.90035   0.00000  Uiso   1.00
H103   H     0.77267   0.80710   0.93883   0.00000  Uiso   1.00
H104   H     0.71113   0.83907   0.91825   0.00000  Uiso   1.00
C160   C     0.78684   0.87516   0.88032   0.00000  Uiso   1.00
H105   H     0.82867   0.86040   0.86964   0.00000  Uiso   1.00
H106   H     0.76943   0.89472   0.83982   0.00000  Uiso   1.00
C161   C     0.79086   0.91830   0.92930   0.00000  Uiso   1.00
H107   H     0.74958   0.93457   0.94005   0.00000  Uiso   1.00
H108   H     0.81700   0.95273   0.91391   0.00000  Uiso   1.00
H109   H     0.80940   0.90035   0.97014   0.00000  Uiso   1.00
O64    O     0.20468   0.16146   0.22495   0.00000  Uiso   1.00
C162   C     0.17518   0.15433   0.27870   0.00000  Uiso   1.00
H110   H     0.13179   0.16508   0.26952   0.00000  Uiso   1.00
H111   H     0.18894   0.18204   0.31536   0.00000  Uiso   1.00
C163   C     0.17774   0.09448   0.29930   0.00000  Uiso   1.00
H112   H     0.16350   0.06725   0.26272   0.00000  Uiso   1.00
H113   H     0.22064   0.08344   0.31055   0.00000  Uiso   1.00
C164   C     0.14214   0.08510   0.35419   0.00000  Uiso   1.00
H114   H     0.15590   0.11178   0.39143   0.00000  Uiso   1.00
H115   H     0.14549   0.04168   0.36858   0.00000  Uiso   1.00
H116   H     0.09860   0.09412   0.34376   0.00000  Uiso   1.00
O65    O     0.21276   0.74929   0.85389   0.00000  Uiso   1.00
C165   C     0.17175   0.75446   0.89809   0.00000  Uiso   1.00
H117   H     0.19083   0.77604   0.93642   0.00000  Uiso   1.00
H118   H     0.15902   0.71424   0.91648   0.00000  Uiso   1.00
C166   C     0.12318   0.78967   0.87712   0.00000  Uiso   1.00
H119   H     0.13808   0.83130   0.86542   0.00000  Uiso   1.00
H120   H     0.10365   0.77157   0.83699   0.00000  Uiso   1.00
C167   C     0.08005   0.79471   0.92588   0.00000  Uiso   1.00
H121   H     0.06370   0.75362   0.93762   0.00000  Uiso   1.00
H122   H     0.04574   0.82066   0.90976   0.00000  Uiso   1.00
H123   H     0.09797   0.81399   0.96629   0.00000  Uiso   1.00
O66    O     0.83783   0.20428   0.22626   0.00000  Uiso   1.00
C168   C     0.85079   0.17780   0.28045   0.00000  Uiso   1.00
H124   H     0.81752   0.18308   0.31398   0.00000  Uiso   1.00
H125   H     0.88974   0.19449   0.29889   0.00000  Uiso   1.00
C169   C     0.85784   0.11656   0.26857   0.00000  Uiso   1.00
H126   H     0.81939   0.09990   0.24913   0.00000  Uiso   1.00
H127   H     0.89144   0.11035   0.23591   0.00000  Uiso   1.00
C170   C     0.87122   0.08526   0.32567   0.00000  Uiso   1.00
H128   H     0.90980   0.10089   0.34567   0.00000  Uiso   1.00
H129   H     0.87648   0.04110   0.31526   0.00000  Uiso   1.00
H130   H     0.83742   0.08967   0.35838   0.00000  Uiso   1.00
O67    O     0.25508   0.21060   0.85713   0.00000  Uiso   1.00
C171   C     0.29082   0.22002   0.90592   0.00000  Uiso   1.00
H131   H     0.28050   0.26063   0.92514   0.00000  Uiso   1.00
H132   H     0.33508   0.22232   0.89375   0.00000  Uiso   1.00
C172   C     0.28150   0.17620   0.95374   0.00000  Uiso   1.00
H133   H     0.24019   0.18180   0.97350   0.00000  Uiso   1.00
H134   H     0.28304   0.13474   0.93343   0.00000  Uiso   1.00
C173   C     0.32458   0.17949   0.00292   0.00000  Uiso   1.00
H135   H     0.36566   0.16965   0.98468   0.00000  Uiso   1.00
H136   H     0.31473   0.14954   0.03861   0.00000  Uiso   1.00
H137   H     0.32554   0.22116   0.02251   0.00000  Uiso   1.00
O68    O     0.79614   0.84146   0.22807   0.00000  Uiso   1.00
C174   C     0.82561   0.84749   0.28213   0.00000  Uiso   1.00
H138   H     0.86951   0.84006   0.27220   0.00000  Uiso   1.00
H139   H     0.81390   0.81692   0.31683   0.00000  Uiso   1.00
C175   C     0.81948   0.90575   0.30682   0.00000  Uiso   1.00
H140   H     0.83187   0.93593   0.27224   0.00000  Uiso   1.00
H141   H     0.77605   0.91345   0.31872   0.00000  Uiso   1.00
C176   C     0.85468   0.91394   0.36236   0.00000  Uiso   1.00
H142   H     0.84292   0.88411   0.39752   0.00000  Uiso   1.00
H143   H     0.84856   0.95603   0.37992   0.00000  Uiso   1.00
H144   H     0.89866   0.90850   0.35139   0.00000  Uiso   1.00
O69    O     0.71782   0.76231   0.64439   0.00000  Uiso   1.00
C177   C     0.75843   0.79442   0.61583   0.00000  Uiso   1.00
H145   H     0.79549   0.76861   0.61037   0.00000  Uiso   1.00
H146   H     0.77145   0.83176   0.64113   0.00000  Uiso   1.00
C178   C     0.73771   0.81204   0.55440   0.00000  Uiso   1.00
H147   H     0.72802   0.77512   0.52742   0.00000  Uiso   1.00
H148   H     0.69959   0.83640   0.55963   0.00000  Uiso   1.00
C179   C     0.78010   0.84669   0.52160   0.00000  Uiso   1.00
H149   H     0.78904   0.88470   0.54705   0.00000  Uiso   1.00
H150   H     0.76393   0.85831   0.47706   0.00000  Uiso   1.00
H151   H     0.81863   0.82324   0.51545   0.00000  Uiso   1.00
O70    O     0.34156   0.29771   0.27532   0.00000  Uiso   1.00
C180   C     0.37740   0.31865   0.23154   0.00000  Uiso   1.00
H152   H     0.36532   0.30556   0.18571   0.00000  Uiso   1.00
H153   H     0.41991   0.30465   0.24081   0.00000  Uiso   1.00
C181   C     0.37585   0.38121   0.23401   0.00000  Uiso   1.00
H154   H     0.33320   0.39552   0.22635   0.00000  Uiso   1.00
H155   H     0.38910   0.39519   0.27892   0.00000  Uiso   1.00
C182   C     0.41318   0.40663   0.18707   0.00000  Uiso   1.00
H156   H     0.45610   0.39303   0.19407   0.00000  Uiso   1.00
H157   H     0.41162   0.45199   0.19060   0.00000  Uiso   1.00
H158   H     0.39959   0.39455   0.14166   0.00000  Uiso   1.00
O71    O     0.75643   0.28961   0.64403   0.00000  Uiso   1.00
C183   C     0.78164   0.24703   0.61155   0.00000  Uiso   1.00
H159   H     0.77372   0.20703   0.63364   0.00000  Uiso   1.00
H160   H     0.82670   0.25365   0.60743   0.00000  Uiso   1.00
C184   C     0.75693   0.24509   0.54897   0.00000  Uiso   1.00
H161   H     0.71201   0.23847   0.55220   0.00000  Uiso   1.00
H162   H     0.76423   0.28487   0.52615   0.00000  Uiso   1.00
C185   C     0.78209   0.19905   0.51200   0.00000  Uiso   1.00
H163   H     0.82690   0.20533   0.50732   0.00000  Uiso   1.00
H164   H     0.76343   0.19868   0.46685   0.00000  Uiso   1.00
H165   H     0.77441   0.15875   0.53350   0.00000  Uiso   1.00
O72    O     0.29562   0.65701   0.28164   0.00000  Uiso   1.00
C186   C     0.32557   0.63936   0.23147   0.00000  Uiso   1.00
H166   H     0.33754   0.67539   0.20406   0.00000  Uiso   1.00
H167   H     0.30158   0.61000   0.20360   0.00000  Uiso   1.00
C187   C     0.37764   0.61058   0.25268   0.00000  Uiso   1.00
H168   H     0.40280   0.63960   0.27929   0.00000  Uiso   1.00
H169   H     0.36645   0.57530   0.28159   0.00000  Uiso   1.00
C188   C     0.41156   0.58984   0.20029   0.00000  Uiso   1.00
H170   H     0.38745   0.56032   0.17323   0.00000  Uiso   1.00
H171   H     0.44868   0.56868   0.21729   0.00000  Uiso   1.00
H172   H     0.42451   0.62465   0.17166   0.00000  Uiso   1.00
O73    O     0.29025   0.24734   0.64794   0.00000  Uiso   1.00
C189   C     0.24722   0.22195   0.61620   0.00000  Uiso   1.00
H173   H     0.20769   0.22965   0.63914   0.00000  Uiso   1.00
H174   H     0.25390   0.17685   0.61184   0.00000  Uiso   1.00
C190   C     0.24388   0.24661   0.55370   0.00000  Uiso   1.00
H175   H     0.23690   0.29153   0.55704   0.00000  Uiso   1.00
H176   H     0.28324   0.23963   0.53011   0.00000  Uiso   1.00
C191   C     0.19743   0.22086   0.51772   0.00000  Uiso   1.00
H177   H     0.20412   0.17605   0.51287   0.00000  Uiso   1.00
H178   H     0.19586   0.23945   0.47259   0.00000  Uiso   1.00
H179   H     0.15755   0.22808   0.54010   0.00000  Uiso   1.00
O74    O     0.66047   0.70516   0.28510   0.00000  Uiso   1.00
C192   C     0.63405   0.67784   0.23764   0.00000  Uiso   1.00
H180   H     0.66447   0.66734   0.20266   0.00000  Uiso   1.00
H181   H     0.60069   0.70315   0.21765   0.00000  Uiso   1.00
C193   C     0.60885   0.62478   0.26118   0.00000  Uiso   1.00
H182   H     0.64160   0.59838   0.28021   0.00000  Uiso   1.00
H183   H     0.57921   0.63462   0.29716   0.00000  Uiso   1.00
C194   C     0.57920   0.59346   0.21190   0.00000  Uiso   1.00
H184   H     0.54604   0.61900   0.19245   0.00000  Uiso   1.00
H185   H     0.56070   0.55566   0.23070   0.00000  Uiso   1.00
H186   H     0.60839   0.58171   0.17622   0.00000  Uiso   1.00
O75    O     0.24250   0.71291   0.64503   0.00000  Uiso   1.00
C195   C     0.21152   0.75084   0.61150   0.00000  Uiso   1.00
H187   H     0.20485   0.78929   0.63727   0.00000  Uiso   1.00
H188   H     0.17112   0.73295   0.59894   0.00000  Uiso   1.00
C196   C     0.24275   0.76487   0.55463   0.00000  Uiso   1.00
H189   H     0.28351   0.78202   0.56646   0.00000  Uiso   1.00
H190   H     0.24898   0.72682   0.52836   0.00000  Uiso   1.00
C197   C     0.21163   0.80648   0.51670   0.00000  Uiso   1.00
H191   H     0.17119   0.78968   0.50330   0.00000  Uiso   1.00
H192   H     0.23544   0.81582   0.47582   0.00000  Uiso   1.00
H193   H     0.20549   0.84512   0.54199   0.00000  Uiso   1.00
O76    O     0.70145   0.34220   0.26950   0.00000  Uiso   1.00
C198   C     0.68430   0.38469   0.23089   0.00000  Uiso   1.00
H194   H     0.70226   0.38049   0.18538   0.00000  Uiso   1.00
H195   H     0.69615   0.42504   0.25000   0.00000  Uiso   1.00
C199   C     0.62202   0.38270   0.22519   0.00000  Uiso   1.00
H196   H     0.60949   0.34207   0.20737   0.00000  Uiso   1.00
H197   H     0.60325   0.38800   0.26992   0.00000  Uiso   1.00
C200   C     0.60095   0.42760   0.18370   0.00000  Uiso   1.00
H198   H     0.61322   0.46856   0.20062   0.00000  Uiso   1.00
H199   H     0.55560   0.42582   0.18139   0.00000  Uiso   1.00
H200   H     0.61764   0.42186   0.13810   0.00000  Uiso   1.00
O77    O     0.28605   0.75176   0.35345   0.00000  Uiso   1.00
C201   C     0.32396   0.75144   0.40123   0.00000  Uiso   1.00
H201   H     0.30321   0.73134   0.43934   0.00000  Uiso   1.00
H202   H     0.33353   0.79329   0.41750   0.00000  Uiso   1.00
C202   C     0.37515   0.71722   0.38716   0.00000  Uiso   1.00
H203   H     0.36269   0.67428   0.37789   0.00000  Uiso   1.00
H204   H     0.39647   0.73336   0.34720   0.00000  Uiso   1.00
C203   C     0.41512   0.71749   0.43946   0.00000  Uiso   1.00
H205   H     0.42901   0.75997   0.44887   0.00000  Uiso   1.00
H206   H     0.45139   0.69209   0.42834   0.00000  Uiso   1.00
H207   H     0.39537   0.70025   0.47990   0.00000  Uiso   1.00
O78    O     0.66332   0.29418   0.71805   0.00000  Uiso   1.00
C204   C     0.64894   0.32315   0.77017   0.00000  Uiso   1.00
H208   H     0.68139   0.31965   0.80503   0.00000  Uiso   1.00
H209   H     0.60961   0.30716   0.78828   0.00000  Uiso   1.00
C205   C     0.64194   0.38369   0.75449   0.00000  Uiso   1.00
H210   H     0.68079   0.39960   0.73539   0.00000  Uiso   1.00
H211   H     0.60916   0.38812   0.72040   0.00000  Uiso   1.00
C206   C     0.62700   0.41762   0.80920   0.00000  Uiso   1.00
H212   H     0.58802   0.40274   0.82881   0.00000  Uiso   1.00
H213   H     0.62178   0.46118   0.79602   0.00000  Uiso   1.00
H214   H     0.66000   0.41503   0.84322   0.00000  Uiso   1.00
O79    O     0.24663   0.28545   0.35583   0.00000  Uiso   1.00
C207   C     0.25141   0.32631   0.40039   0.00000  Uiso   1.00
H215   H     0.27259   0.30703   0.43887   0.00000  Uiso   1.00
H216   H     0.21106   0.33900   0.41827   0.00000  Uiso   1.00
C208   C     0.28678   0.37511   0.38040   0.00000  Uiso   1.00
H217   H     0.32862   0.36035   0.36973   0.00000  Uiso   1.00
H218   H     0.26940   0.39468   0.33990   0.00000  Uiso   1.00
C209   C     0.29079   0.41823   0.42941   0.00000  Uiso   1.00
H219   H     0.24950   0.43450   0.44014   0.00000  Uiso   1.00
H220   H     0.31694   0.45266   0.41405   0.00000  Uiso   1.00
H221   H     0.30931   0.40026   0.47024   0.00000  Uiso   1.00
O80    O     0.70468   0.66145   0.72500   0.00000  Uiso   1.00
C210   C     0.67519   0.65435   0.77877   0.00000  Uiso   1.00
H222   H     0.63180   0.66510   0.76960   0.00000  Uiso   1.00
H223   H     0.68897   0.68208   0.81541   0.00000  Uiso   1.00
C211   C     0.67776   0.59451   0.79941   0.00000  Uiso   1.00
H224   H     0.66351   0.56726   0.76285   0.00000  Uiso   1.00
H225   H     0.72066   0.58348   0.81064   0.00000  Uiso   1.00
C212   C     0.64218   0.58516   0.85432   0.00000  Uiso   1.00
H226   H     0.65595   0.61186   0.89154   0.00000  Uiso   1.00
H227   H     0.64554   0.54175   0.86873   0.00000  Uiso   1.00
H228   H     0.59864   0.59417   0.84390   0.00000  Uiso   1.00
O81    O     0.71263   0.24941   0.35386   0.00000  Uiso   1.00
C213   C     0.67154   0.25467   0.39796   0.00000  Uiso   1.00
H229   H     0.69055   0.27630   0.43629   0.00000  Uiso   1.00
H230   H     0.65874   0.21448   0.41640   0.00000  Uiso   1.00
C214   C     0.62301   0.28987   0.37682   0.00000  Uiso   1.00
H231   H     0.63796   0.33148   0.36507   0.00000  Uiso   1.00
H232   H     0.60356   0.27171   0.33668   0.00000  Uiso   1.00
C215   C     0.57979   0.29500   0.42547   0.00000  Uiso   1.00
H233   H     0.56340   0.25394   0.43725   0.00000  Uiso   1.00
H234   H     0.54552   0.32094   0.40922   0.00000  Uiso   1.00
H235   H     0.59764   0.31435   0.46588   0.00000  Uiso   1.00
O82    O     0.33777   0.70433   0.72596   0.00000  Uiso   1.00
C216   C     0.35080   0.67774   0.78006   0.00000  Uiso   1.00
H236   H     0.31759   0.68298   0.81366   0.00000  Uiso   1.00
H237   H     0.38979   0.69438   0.79846   0.00000  Uiso   1.00
C217   C     0.35782   0.61652   0.76803   0.00000  Uiso   1.00
H238   H     0.31933   0.59991   0.74863   0.00000  Uiso   1.00
H239   H     0.39136   0.61036   0.73530   0.00000  Uiso   1.00
C218   C     0.37127   0.58512   0.82504   0.00000  Uiso   1.00
H240   H     0.40989   0.60069   0.84500   0.00000  Uiso   1.00
H241   H     0.37650   0.54097   0.81453   0.00000  Uiso   1.00
H242   H     0.33753   0.58947   0.85783   0.00000  Uiso   1.00
O83    O     0.75506   0.71058   0.35713   0.00000  Uiso   1.00
C219   C     0.79080   0.72001   0.40591   0.00000  Uiso   1.00
H243   H     0.78047   0.76062   0.42512   0.00000  Uiso   1.00
H244   H     0.83505   0.72232   0.39375   0.00000  Uiso   1.00
C220   C     0.78149   0.67620   0.45374   0.00000  Uiso   1.00
H245   H     0.74017   0.68178   0.47350   0.00000  Uiso   1.00
H246   H     0.78305   0.63473   0.43344   0.00000  Uiso   1.00
C221   C     0.82457   0.67950   0.50292   0.00000  Uiso   1.00
H247   H     0.86565   0.66967   0.48469   0.00000  Uiso   1.00
H248   H     0.81472   0.64957   0.53863   0.00000  Uiso   1.00
H249   H     0.82552   0.72119   0.52249   0.00000  Uiso   1.00
O84    O     0.29614   0.34145   0.72801   0.00000  Uiso   1.00
C222   C     0.32561   0.34751   0.78206   0.00000  Uiso   1.00
H250   H     0.36951   0.34003   0.77213   0.00000  Uiso   1.00
H251   H     0.31389   0.31697   0.81680   0.00000  Uiso   1.00
C223   C     0.31953   0.40580   0.80668   0.00000  Uiso   1.00
H252   H     0.33193   0.43593   0.77207   0.00000  Uiso   1.00
H253   H     0.27611   0.41353   0.81859   0.00000  Uiso   1.00
C224   C     0.35474   0.41402   0.86221   0.00000  Uiso   1.00
H254   H     0.34297   0.38424   0.89740   0.00000  Uiso   1.00
H255   H     0.34866   0.45613   0.87970   0.00000  Uiso   1.00
H256   H     0.39872   0.40853   0.85124   0.00000  Uiso   1.00
loop_
_geom_bond_atom_site_label_1
_geom_bond_atom_site_label_2
_geom_bond_distance
_geom_bond_site_symmetry_2
_ccdc_geom_bond_type
C1     C12     1.474   .     S
C1     C75     1.412   .     A
C1     C49     1.408   .     A
C2     C50     1.407   .     A
C2     C11     1.474   .     S
C2     C76     1.412   .     A
C3     C73     1.413   .     A
C3     C51     1.413   .     A
C3     C10     1.475   .     S
C4     C9      1.475   .     S
C4     C52     1.412   .     A
C4     C74     1.411   .     A
C5     C79     1.409   .     A
C5     C53     1.413   .     A
C5     C16     1.473   .     S
C6     C54     1.410   .     A
C6     C80     1.413   .     A
C6     C15     1.473   .     S
C7     C55     1.408   .     A
C7     C77     1.412   .     A
C7     C14     1.474   .     S
C8     C78     1.410   .     A
C8     C56     1.407   .     A
C8     C13     1.474   .     S
C9     C57     1.413   .     A
C9     C67     1.413   .     A
C10    C68     1.412   .     A
C10    C58     1.411   .     A
C11    C59     1.412   .     A
C11    C65     1.408   .     A
C12    C66     1.407   .     A
C12    C60     1.412   .     A
C13    C71     1.408   .     A
C13    C61     1.412   .     A
C14    C62     1.410   .     A
C14    C72     1.407   .     A
C15    C69     1.413   .     A
C15    C63     1.409   .     A
C16    C70     1.410   .     A
C16    C64     1.413   .     A
C17    C32     1.421   .     S
C17    C18     1.197   1_455 S
C18    C31     1.421   .     S
C18    C17     1.197   1_655 S
C19    C30     1.420   .     S
C19    C20     1.197   1_565 S
C20    C29     1.420   .     S
C20    C19     1.197   1_545 S
C21    C28     1.421   .     S
C21    C22     1.197   1_556 S
C22    C27     1.421   .     S
C22    C21     1.197   1_554 S
C23    C26     1.420   .     S
C23    C24     1.197   1_556 S
C24    C25     1.420   .     S
C24    C23     1.197   1_554 S
C25    O5      1.275   .     A
C25    O9      1.275   .     A
C26    O10     1.275   .     A
C26    O6      1.275   .     S
C27    O7      1.276   .     S
C27    O11     1.275   .     S
C28    O8      1.276   .     A
C28    O12     1.275   .     A
C29    O17     1.275   .     A
C29    O13     1.275   1_545 S
C30    O18     1.275   .     A
C30    O14     1.275   1_565 S
C31    O15     1.276   .     A
C31    O19     1.275   1_655 S
C32    O16     1.276   .     A
C32    O20     1.275   1_455 S
C33    C122    1.463   .     S
C33    O21     1.275   .     A
C33    O51     1.274   .     A
C34    O52     1.275   .     A
C34    C121    1.462   .     S
C34    O22     1.274   .     A
C35    O23     1.276   .     A
C35    C128    1.462   .     S
C35    O49     1.275   .     A
C36    C127    1.462   .     S
C36    O24     1.275   .     A
C36    O50     1.276   .     A
C37    O25     1.277   .     A
C37    C126    1.463   .     S
C37    O47     1.276   .     A
C38    O26     1.275   .     A
C38    O48     1.277   .     A
C38    C125    1.464   .     S
C39    C124    1.464   .     S
C39    O27     1.276   .     A
C39    O45     1.275   .     A
C40    O28     1.274   .     A
C40    C123    1.463   .     S
C40    O46     1.276   .     A
C41    O29     1.275   .     A
C41    C114    1.464   .     S
C41    O43     1.276   .     A
C42    O30     1.276   .     A
C42    O44     1.274   .     A
C42    C113    1.463   .     S
C43    O41     1.277   .     A
C43    C120    1.463   .     S
C43    O31     1.276   .     A
C44    C119    1.464   .     S
C44    O32     1.277   .     A
C44    O42     1.275   .     A
C45    C118    1.462   .     S
C45    O39     1.276   .     A
C45    O33     1.275   .     A
C46    C117    1.462   .     S
C46    O34     1.276   .     A
C46    O40     1.275   .     A
C47    O35     1.274   .     A
C47    C116    1.463   .     S
C47    O37     1.275   .     A
C48    O38     1.274   .     A
C48    O36     1.275   .     A
C48    C115    1.462   .     S
C49    C81     1.392   .     A
C49    O53     1.382   .     S
C50    O54     1.384   .     S
C50    C82     1.401   .     A
C51    C83     1.392   .     A
C51    O55     1.384   .     S
C52    C84     1.395   .     A
C52    O56     1.383   .     S
C53    C85     1.395   .     A
C53    O57     1.383   .     S
C54    C86     1.398   .     A
C54    O58     1.384   .     S
C55    O59     1.382   .     S
C55    C87     1.393   .     A
C56    O60     1.388   .     S
C56    C88     1.404   .     A
C57    C89     1.413   .     A
C57    O61     1.401   .     S
C58    O62     1.382   .     S
C58    C90     1.396   .     A
C59    C91     1.413   .     A
C59    O63     1.399   .     S
C60    C92     1.396   .     A
C60    O64     1.384   .     S
C61    O65     1.400   .     S
C61    C93     1.413   .     A
C62    O66     1.382   .     S
C62    C94     1.396   .     A
C63    C95     1.403   .     A
C63    O67     1.390   .     S
C64    C96     1.395   .     A
C64    O68     1.385   .     S
C65    O69     1.382   .     S
C65    C97     1.392   .     A
C66    O70     1.384   .     S
C66    C98     1.401   .     A
C67    O71     1.384   .     S
C67    C99     1.392   .     A
C68    C100    1.395   .     A
C68    O72     1.383   .     S
C69    O73     1.383   .     S
C69    C101    1.395   .     A
C70    O74     1.384   .     S
C70    C102    1.398   .     A
C71    O75     1.382   .     S
C71    C103    1.393   .     A
C72    O76     1.388   .     S
C72    C104    1.404   .     A
C73    C105    1.413   .     A
C73    O77     1.401   .     S
C74    O78     1.382   .     S
C74    C106    1.396   .     A
C75    C107    1.413   .     A
C75    O79     1.399   .     S
C76    O80     1.384   .     S
C76    C108    1.396   .     A
C77    C109    1.413   .     A
C77    O81     1.400   .     S
C78    O82     1.382   .     S
C78    C110    1.396   .     A
C79    O83     1.390   .     S
C79    C111    1.403   .     A
C80    C112    1.395   .     A
C80    O84     1.385   .     S
C81    C113    1.395   .     A
C81    H1      1.084   .     S
C82    H2      1.083   .     S
C82    C114    1.401   .     A
C83    H3      1.084   .     S
C83    C115    1.396   .     A
C84    C116    1.400   .     A
C84    H4      1.084   .     S
C85    H5      1.084   .     S
C85    C117    1.398   .     A
C86    H6      1.084   .     S
C86    C118    1.400   .     A
C87    C119    1.396   .     A
C87    H7      1.084   .     S
C88    C120    1.400   .     A
C88    H8      1.083   .     S
C89    C121    1.399   .     A
C89    H9      1.079   .     S
C90    H10     1.084   .     S
C90    C122    1.400   .     A
C91    C123    1.401   .     A
C91    H11     1.079   .     S
C92    C124    1.399   .     A
C92    H12     1.084   .     S
C93    H13     1.079   .     S
C93    C125    1.401   .     A
C94    C126    1.400   .     A
C94    H14     1.084   .     S
C95    H15     1.082   .     S
C95    C127    1.399   .     A
C96    C128    1.399   .     A
C96    H16     1.084   .     S
C97    H17     1.084   .     S
C97    C123    1.395   .     A
C98    C124    1.401   .     A
C98    H18     1.083   .     S
C99    H19     1.084   .     S
C99    C121    1.396   .     A
C100   H20     1.084   .     S
C100   C122    1.400   .     A
C101   C127    1.398   .     A
C101   H21     1.084   .     S
C102   C128    1.400   .     A
C102   H22     1.084   .     S
C103   H23     1.084   .     S
C103   C125    1.396   .     A
C104   H24     1.083   .     S
C104   C126    1.400   .     A
C105   H25     1.079   .     S
C105   C115    1.399   .     A
C106   H26     1.084   .     S
C106   C116    1.400   .     A
C107   C113    1.401   .     A
C107   H27     1.079   .     S
C108   C114    1.399   .     A
C108   H28     1.084   .     S
C109   C119    1.401   .     A
C109   H29     1.079   .     S
C110   H30     1.084   .     S
C110   C120    1.400   .     A
C111   C117    1.399   .     A
C111   H31     1.082   .     S
C112   H32     1.084   .     S
C112   C118    1.399   .     A
O1     Zn12    1.935   .     S
O1     Zn16    1.936   .     S
O1     Zn1     1.935   .     S
O1     Zn5     1.938   1_455 S
O2     Zn11    1.935   .     S
O2     Zn6     1.938   .     S
O2     Zn15    1.936   .     S
O2     Zn2     1.935   1_455 S
O3     Zn3     1.935   1_545 S
O3     Zn10    1.935   .     S
O3     Zn14    1.938   .     S
O3     Zn7     1.936   .     S
O4     Zn13    1.938   .     S
O4     Zn9     1.935   .     S
O4     Zn8     1.936   1_545 S
O4     Zn4     1.935   .     S
O5     Zn16    1.912   .     S
O6     Zn15    1.912   .     S
O7     Zn10    1.913   .     S
O8     Zn9     1.913   .     S
O9     Zn12    1.913   .     S
O10    Zn11    1.913   .     S
O11    Zn14    1.912   .     S
O12    Zn13    1.912   .     S
O13    Zn8     1.912   .     S
O13    C29     1.275   1_565 S
O14    Zn7     1.912   .     S
O14    C30     1.275   1_545 S
O15    Zn2     1.913   .     S
O16    Zn1     1.913   .     S
O17    Zn4     1.913   .     S
O18    Zn3     1.913   .     S
O19    Zn6     1.912   .     S
O19    C31     1.275   1_455 S
O20    Zn5     1.912   .     S
O20    C32     1.275   1_655 S
O21    Zn12    1.932   .     S
O22    Zn11    1.932   1_655 S
O23    Zn14    1.931   1_565 S
O24    Zn13    1.931   .     S
O25    Zn16    1.933   1_655 S
O26    Zn15    1.933   .     S
O27    Zn10    1.932   .     S
O28    Zn9     1.932   1_565 S
O29    Zn15    1.932   1_655 S
O30    Zn16    1.932   .     S
O31    Zn13    1.931   1_565 S
O32    Zn14    1.931   .     S
O33    Zn11    1.933   .     S
O34    Zn12    1.933   1_655 S
O35    Zn9     1.932   .     S
O36    Zn10    1.932   1_565 S
O37    Zn4     1.932   .     S
O38    Zn3     1.932   .     S
O39    Zn6     1.931   .     S
O40    Zn5     1.931   .     S
O41    Zn8     1.933   .     S
O42    Zn7     1.933   .     S
O43    Zn2     1.932   .     S
O44    Zn1     1.932   .     S
O45    Zn7     1.932   .     S
O46    Zn8     1.932   .     S
O47    Zn5     1.931   .     S
O48    Zn6     1.931   .     S
O49    Zn3     1.933   .     S
O50    Zn4     1.933   .     S
O51    Zn1     1.932   .     S
O52    Zn2     1.932   .     S
Zn2    O2      1.935   1_655 S
Zn3    O3      1.935   1_565 S
Zn5    O1      1.938   1_655 S
Zn8    O4      1.936   1_565 S
Zn9    O28     1.932   1_545 S
Zn10   O36     1.932   1_545 S
Zn11   O22     1.932   1_455 S
Zn12   O34     1.933   1_455 S
Zn13   O31     1.931   1_545 S
Zn14   O23     1.931   1_545 S
Zn15   O29     1.932   1_455 S
Zn16   O25     1.933   1_455 S
O53    C129    1.418   .     S
C129   H34     1.120   .     S
C129   H33     1.110   .     S
C129   C130    1.529   .     S
C130   H36     1.111   .     S
C130   H35     1.111   .     S
C130   C131    1.527   .     S
C131   H37     1.111   .     S
C131   H39     1.110   .     S
C131   H38     1.110   1_554 S
H38    C131    1.110   1_556 S
O54    C132    1.413   .     S
C132   H40     1.116   .     S
C132   C133    1.528   .     S
C132   H41     1.112   .     S
C133   H42     1.112   .     S
C133   C134    1.526   .     S
C133   H43     1.112   .     S
C134   H46     1.111   .     S
C134   H45     1.110   .     S
C134   H44     1.111   .     S
O55    C135    1.412   .     S
C135   H47     1.111   .     S
C135   C136    1.528   .     S
C135   H48     1.117   .     S
C136   H50     1.112   .     S
C136   C137    1.527   .     S
C136   H49     1.112   .     S
C137   H51     1.111   .     S
C137   H53     1.111   .     S
C137   H52     1.110   1_554 S
H52    C137    1.110   1_556 S
O56    C138    1.411   .     S
C138   H54     1.112   .     S
C138   H55     1.117   .     S
C138   C139    1.528   .     S
C139   H57     1.112   .     S
C139   C140    1.526   .     S
C139   H56     1.111   .     S
C140   H60     1.111   .     S
C140   H58     1.111   .     S
C140   H59     1.110   .     S
O57    C141    1.412   .     S
C141   C142    1.528   .     S
C141   H61     1.111   .     S
C141   H62     1.117   .     S
C142   H63     1.112   .     S
C142   C143    1.527   .     S
C142   H64     1.112   .     S
C143   H65     1.111   .     S
C143   H67     1.111   .     S
C143   H66     1.110   1_554 S
H66    C143    1.110   1_556 S
O58    C144    1.412   .     S
C144   H69     1.116   .     S
C144   H68     1.112   .     S
C144   C145    1.528   .     S
C145   C146    1.526   .     S
C145   H71     1.112   .     S
C145   H70     1.112   .     S
C146   H72     1.111   .     S
C146   H73     1.110   .     S
C146   H74     1.111   .     S
O59    C147    1.412   .     S
C147   H75     1.114   .     S
C147   C148    1.526   .     S
C147   H76     1.115   .     S
C148   C149    1.526   .     S
C148   H77     1.112   .     S
C148   H78     1.111   .     S
C149   H79     1.111   .     S
C149   H81     1.111   .     S
C149   H80     1.110   1_554 S
H80    C149    1.110   1_556 S
O60    C150    1.414   .     S
C150   H82     1.117   .     S
C150   C151    1.528   .     S
C150   H83     1.112   .     S
C151   H85     1.112   .     S
C151   C152    1.526   .     S
C151   H84     1.112   .     S
C152   H87     1.110   .     S
C152   H86     1.110   .     S
C152   H88     1.111   .     S
O61    C153    1.415   .     S
C153   C154    1.537   .     S
C153   H90     1.110   .     S
C153   H89     1.109   .     S
C154   H91     1.111   .     S
C154   C155    1.525   .     S
C154   H92     1.110   .     S
C155   H93     1.111   .     S
C155   H95     1.111   .     S
C155   H94     1.110   .     S
O62    C156    1.412   .     S
C156   H97     1.114   .     S
C156   H96     1.116   .     S
C156   C157    1.528   .     S
C157   H98     1.112   .     S
C157   C158    1.526   .     S
C157   H99     1.112   .     S
C158   H100    1.111   .     S
C158   H101    1.110   .     S
C158   H102    1.111   .     S
O63    C159    1.417   .     S
C159   H103    1.110   .     S
C159   C160    1.538   .     S
C159   H104    1.109   .     S
C160   H106    1.110   .     S
C160   H105    1.110   .     S
C160   C161    1.525   .     S
C161   H108    1.110   .     S
C161   H109    1.111   .     S
C161   H107    1.111   .     S
O64    C162    1.417   .     S
C162   H111    1.116   .     S
C162   H110    1.111   .     S
C162   C163    1.533   .     S
C163   H112    1.112   .     S
C163   H113    1.111   .     S
C163   C164    1.526   .     S
C164   H114    1.111   .     S
C164   H116    1.111   .     S
C164   H115    1.110   .     S
O65    C165    1.417   .     S
C165   H117    1.111   .     S
C165   H118    1.109   .     S
C165   C166    1.538   .     S
C166   H119    1.111   .     S
C166   C167    1.525   .     S
C166   H120    1.110   .     S
C167   H121    1.111   .     S
C167   H123    1.111   .     S
C167   H122    1.110   .     S
O66    C168    1.412   .     S
C168   C169    1.528   .     S
C168   H125    1.114   .     S
C168   H124    1.116   .     S
C169   C170    1.526   .     S
C169   H127    1.112   .     S
C169   H126    1.112   .     S
C170   H128    1.111   .     S
C170   H130    1.111   .     S
C170   H129    1.110   .     S
O67    C171    1.418   .     S
C171   H132    1.117   .     S
C171   H131    1.110   .     S
C171   C172    1.531   .     S
C172   H134    1.110   .     S
C172   H133    1.111   .     S
C172   C173    1.526   1_556 S
C173   H136    1.110   .     S
C173   H137    1.108   .     S
C173   C172    1.526   1_554 S
C173   H135    1.111   1_554 S
H135   C173    1.111   1_556 S
O68    C174    1.417   .     S
C174   C175    1.533   .     S
C174   H138    1.111   .     S
C174   H139    1.115   .     S
C175   H141    1.111   .     S
C175   C176    1.526   .     S
C175   H140    1.112   .     S
C176   H142    1.111   .     S
C176   H144    1.111   .     S
C176   H143    1.110   .     S
O69    C177    1.418   .     S
C177   H146    1.120   .     S
C177   H145    1.110   .     S
C177   C178    1.529   .     S
C178   H147    1.111   .     S
C178   C179    1.527   .     S
C178   H148    1.111   .     S
C179   H149    1.111   .     S
C179   H151    1.110   .     S
C179   H150    1.110   .     S
O70    C180    1.413   .     S
C180   H153    1.112   .     S
C180   C181    1.528   .     S
C180   H152    1.116   .     S
C181   H154    1.112   .     S
C181   C182    1.526   .     S
C181   H155    1.112   .     S
C182   H158    1.111   .     S
C182   H156    1.111   .     S
C182   H157    1.110   .     S
O71    C183    1.412   .     S
C183   H159    1.111   .     S
C183   C184    1.528   .     S
C183   H160    1.117   .     S
C184   H162    1.112   .     S
C184   H161    1.112   .     S
C184   C185    1.527   .     S
C185   H163    1.111   .     S
C185   H164    1.110   .     S
C185   H165    1.111   .     S
O72    C186    1.411   .     S
C186   H167    1.117   .     S
C186   H166    1.112   .     S
C186   C187    1.528   .     S
C187   H168    1.111   .     S
C187   H169    1.112   .     S
C187   C188    1.526   .     S
C188   H170    1.111   .     S
C188   H172    1.111   .     S
C188   H171    1.110   .     S
O73    C189    1.412   .     S
C189   C190    1.528   .     S
C189   H174    1.117   .     S
C189   H173    1.111   .     S
C190   C191    1.527   .     S
C190   H176    1.112   .     S
C190   H175    1.112   .     S
C191   H179    1.111   .     S
C191   H178    1.110   .     S
C191   H177    1.111   .     S
O74    C192    1.412   .     S
C192   H180    1.112   .     S
C192   C193    1.528   .     S
C192   H181    1.116   .     S
C193   H182    1.112   .     S
C193   H183    1.112   .     S
C193   C194    1.526   .     S
C194   H185    1.110   .     S
C194   H186    1.111   .     S
C194   H184    1.111   .     S
O75    C195    1.412   .     S
C195   C196    1.526   .     S
C195   H187    1.114   .     S
C195   H188    1.115   .     S
C196   H190    1.111   .     S
C196   C197    1.526   .     S
C196   H189    1.112   .     S
C197   H191    1.111   .     S
C197   H193    1.111   .     S
C197   H192    1.110   .     S
O76    C198    1.414   .     S
C198   C199    1.528   .     S
C198   H194    1.117   .     S
C198   H195    1.112   .     S
C199   H196    1.112   .     S
C199   C200    1.526   .     S
C199   H197    1.112   .     S
C200   H199    1.110   .     S
C200   H198    1.110   .     S
C200   H200    1.111   .     S
O77    C201    1.415   .     S
C201   H202    1.110   .     S
C201   H201    1.109   .     S
C201   C202    1.537   .     S
C202   H204    1.110   .     S
C202   H203    1.111   .     S
C202   C203    1.525   .     S
C203   H207    1.111   .     S
C203   H206    1.110   .     S
C203   H205    1.111   .     S
O78    C204    1.412   .     S
C204   H209    1.114   .     S
C204   H208    1.116   .     S
C204   C205    1.528   .     S
C205   H210    1.112   .     S
C205   C206    1.526   .     S
C205   H211    1.112   .     S
C206   H214    1.111   .     S
C206   H212    1.111   .     S
C206   H213    1.110   .     S
O79    C207    1.417   .     S
C207   H215    1.110   .     S
C207   C208    1.538   .     S
C207   H216    1.109   .     S
C208   C209    1.525   .     S
C208   H218    1.110   .     S
C208   H217    1.110   .     S
C209   H219    1.111   .     S
C209   H220    1.110   .     S
C209   H221    1.111   .     S
O80    C210    1.417   .     S
C210   C211    1.533   .     S
C210   H223    1.116   .     S
C210   H222    1.111   .     S
C211   H224    1.112   .     S
C211   H225    1.111   .     S
C211   C212    1.526   .     S
C212   H227    1.110   .     S
C212   H228    1.111   .     S
C212   H226    1.111   .     S
O81    C213    1.417   .     S
C213   H229    1.111   .     S
C213   H230    1.109   .     S
C213   C214    1.538   .     S
C214   H231    1.111   .     S
C214   C215    1.525   .     S
C214   H232    1.110   .     S
C215   H235    1.111   .     S
C215   H234    1.110   .     S
C215   H233    1.111   .     S
O82    C216    1.412   .     S
C216   H237    1.114   .     S
C216   H236    1.116   .     S
C216   C217    1.528   .     S
C217   C218    1.526   .     S
C217   H239    1.112   .     S
C217   H238    1.112   .     S
C218   H241    1.110   .     S
C218   H242    1.111   .     S
C218   H240    1.111   .     S
O83    C219    1.418   .     S
C219   C220    1.531   .     S
C219   H244    1.117   .     S
C219   H243    1.110   .     S
C220   H245    1.111   .     S
C220   C221    1.526   .     S
C220   H246    1.111   .     S
C221   H247    1.111   .     S
C221   H249    1.108   .     S
C221   H248    1.110   .     S
O84    C222    1.417   .     S
C222   C223    1.533   .     S
C222   H250    1.111   .     S
C222   H251    1.115   .     S
C223   C224    1.526   .     S
C223   H253    1.111   .     S
C223   H252    1.112   .     S
C224   H256    1.111   .     S
C224   H255    1.110   .     S
C224   H254    1.111   .     S
