data_str_m2_o2_o5_pcu_sym.10
_audit_creation_date              2020-01-03
_audit_creation_method            'Materials Studio'
_symmetry_space_group_name_H-M    'P1'
_symmetry_Int_Tables_number       1
_symmetry_cell_setting            triclinic
loop_
_symmetry_equiv_pos_as_xyz
  x,y,z
_cell_length_a                    30.2761
_cell_length_b                    27.9655
_cell_length_c                    27.2471
_cell_angle_alpha                 89.9998
_cell_angle_beta                  92.3747
_cell_angle_gamma                 90.0001
loop_
_atom_site_label
_atom_site_type_symbol
_atom_site_fract_x
_atom_site_fract_y
_atom_site_fract_z
_atom_site_U_iso_or_equiv
_atom_site_adp_type
_atom_site_occupancy
C1     C     0.16503   0.25000   0.16652   0.00000  Uiso   1.00
C2     C     0.28482   0.44660   0.18879   0.00000  Uiso   1.00
C3     C     0.24989   0.25000   0.07359   0.00000  Uiso   1.00
C4     C     0.25011   0.25000   0.25974   0.00000  Uiso   1.00
C5     C     0.25000   0.02709   0.16667   0.00000  Uiso   1.00
C6     C     0.25000   0.47290   0.16667   0.00000  Uiso   1.00
C7     C     0.24996   0.24999   0.02185   0.00000  Uiso   1.00
C8     C     0.25004   0.24999   0.31148   0.00000  Uiso   1.00
C9     C     0.04822   0.29094   0.18145   0.00000  Uiso   1.00
C10    C     0.45295   0.20920   0.18173   0.00000  Uiso   1.00
C11    C     0.45178   0.29093   0.15186   0.00000  Uiso   1.00
C12    C     0.33497   0.25000   0.16681   0.00000  Uiso   1.00
C13    C     0.04705   0.20919   0.15163   0.00000  Uiso   1.00
C14    C     0.09412   0.29104   0.18105   0.00000  Uiso   1.00
C15    C     0.40702   0.20908   0.18147   0.00000  Uiso   1.00
C16    C     0.40588   0.29103   0.15227   0.00000  Uiso   1.00
C17    C     0.09298   0.20907   0.15189   0.00000  Uiso   1.00
C18    C     0.11677   0.25004   0.16647   0.00000  Uiso   1.00
C19    C     0.38323   0.25004   0.16686   0.00000  Uiso   1.00
C20    C     0.02429   0.25006   0.16660   0.00000  Uiso   1.00
C21    C     0.47571   0.25006   0.16673   0.00000  Uiso   1.00
C22    C     0.27118   0.10375   0.20426   0.00000  Uiso   1.00
C23    C     0.21608   0.39625   0.14330   0.00000  Uiso   1.00
C24    C     0.22882   0.10375   0.12908   0.00000  Uiso   1.00
C25    C     0.28392   0.39625   0.19003   0.00000  Uiso   1.00
C26    C     0.27007   0.05340   0.20526   0.00000  Uiso   1.00
C27    C     0.21518   0.44660   0.14454   0.00000  Uiso   1.00
C28    C     0.22993   0.05340   0.12808   0.00000  Uiso   1.00
Cu29   Cu    0.25000   0.29822   0.16667   0.00000  Uiso   1.00
Cu30   Cu    0.25000   0.20179   0.16667   0.00000  Uiso   1.00
H31    H     0.03150   0.32263   0.19398   0.00000  Uiso   1.00
H32    H     0.18708   0.46487   0.12733   0.00000  Uiso   1.00
H33    H     0.21432   0.03512   0.09693   0.00000  Uiso   1.00
H34    H     0.31292   0.46487   0.20600   0.00000  Uiso   1.00
H35    H     0.30845   0.15416   0.22944   0.00000  Uiso   1.00
H36    H     0.19337   0.34592   0.10182   0.00000  Uiso   1.00
H37    H     0.19154   0.15416   0.10390   0.00000  Uiso   1.00
H38    H     0.30663   0.34592   0.23151   0.00000  Uiso   1.00
H39    H     0.47065   0.17752   0.19421   0.00000  Uiso   1.00
H40    H     0.46850   0.32262   0.13932   0.00000  Uiso   1.00
H41    H     0.02935   0.17751   0.13916   0.00000  Uiso   1.00
H42    H     0.11187   0.32294   0.19281   0.00000  Uiso   1.00
H43    H     0.39018   0.17718   0.19331   0.00000  Uiso   1.00
H44    H     0.38812   0.32293   0.14049   0.00000  Uiso   1.00
H45    H     0.10982   0.17717   0.14006   0.00000  Uiso   1.00
H46    H     0.28568   0.03512   0.23640   0.00000  Uiso   1.00
N47    N     0.25000   0.12935   0.16667   0.00000  Uiso   1.00
N48    N     0.25000   0.37066   0.16667   0.00000  Uiso   1.00
O49    O     0.18573   0.29072   0.16667   0.00000  Uiso   1.00
O50    O     0.18155   0.37435   0.11795   0.00000  Uiso   1.00
O51    O     0.20589   0.12563   0.09078   0.00000  Uiso   1.00
O52    O     0.31845   0.37435   0.21538   0.00000  Uiso   1.00
O53    O     0.31427   0.20929   0.16666   0.00000  Uiso   1.00
O54    O     0.31427   0.29072   0.16666   0.00000  Uiso   1.00
O55    O     0.18573   0.20929   0.16667   0.00000  Uiso   1.00
O56    O     0.25000   0.29071   0.09613   0.00000  Uiso   1.00
O57    O     0.25000   0.20929   0.23720   0.00000  Uiso   1.00
O58    O     0.25000   0.29071   0.23720   0.00000  Uiso   1.00
O59    O     0.25000   0.20929   0.09613   0.00000  Uiso   1.00
O60    O     0.29411   0.12563   0.24255   0.00000  Uiso   1.00
C61    C     0.66503   0.25000   0.16652   0.00000  Uiso   1.00
C62    C     0.78482   0.44660   0.18879   0.00000  Uiso   1.00
C63    C     0.74989   0.25000   0.07359   0.00000  Uiso   1.00
C64    C     0.75011   0.25000   0.25974   0.00000  Uiso   1.00
C65    C     0.75000   0.02709   0.16667   0.00000  Uiso   1.00
C66    C     0.75000   0.47290   0.16667   0.00000  Uiso   1.00
C67    C     0.74996   0.24999   0.02185   0.00000  Uiso   1.00
C68    C     0.75004   0.24999   0.31148   0.00000  Uiso   1.00
C69    C     0.54822   0.29094   0.18145   0.00000  Uiso   1.00
C70    C     0.95295   0.20920   0.18173   0.00000  Uiso   1.00
C71    C     0.95178   0.29093   0.15186   0.00000  Uiso   1.00
C72    C     0.83497   0.25000   0.16681   0.00000  Uiso   1.00
C73    C     0.54705   0.20919   0.15163   0.00000  Uiso   1.00
C74    C     0.59412   0.29104   0.18105   0.00000  Uiso   1.00
C75    C     0.90702   0.20908   0.18147   0.00000  Uiso   1.00
C76    C     0.90588   0.29103   0.15227   0.00000  Uiso   1.00
C77    C     0.59298   0.20907   0.15189   0.00000  Uiso   1.00
C78    C     0.61677   0.25004   0.16647   0.00000  Uiso   1.00
C79    C     0.88323   0.25004   0.16686   0.00000  Uiso   1.00
C80    C     0.52429   0.25006   0.16660   0.00000  Uiso   1.00
C81    C     0.97571   0.25006   0.16673   0.00000  Uiso   1.00
C82    C     0.77118   0.10375   0.20426   0.00000  Uiso   1.00
C83    C     0.71608   0.39625   0.14330   0.00000  Uiso   1.00
C84    C     0.72882   0.10375   0.12908   0.00000  Uiso   1.00
C85    C     0.78392   0.39625   0.19003   0.00000  Uiso   1.00
C86    C     0.77007   0.05340   0.20526   0.00000  Uiso   1.00
C87    C     0.71518   0.44660   0.14454   0.00000  Uiso   1.00
C88    C     0.72993   0.05340   0.12808   0.00000  Uiso   1.00
Cu89   Cu    0.75000   0.29822   0.16667   0.00000  Uiso   1.00
Cu90   Cu    0.75000   0.20179   0.16667   0.00000  Uiso   1.00
H91    H     0.53150   0.32263   0.19398   0.00000  Uiso   1.00
H92    H     0.68708   0.46487   0.12733   0.00000  Uiso   1.00
H93    H     0.71432   0.03512   0.09693   0.00000  Uiso   1.00
H94    H     0.81292   0.46487   0.20600   0.00000  Uiso   1.00
H95    H     0.80845   0.15416   0.22944   0.00000  Uiso   1.00
H96    H     0.69337   0.34592   0.10182   0.00000  Uiso   1.00
H97    H     0.69154   0.15416   0.10390   0.00000  Uiso   1.00
H98    H     0.80663   0.34592   0.23151   0.00000  Uiso   1.00
H99    H     0.97065   0.17752   0.19421   0.00000  Uiso   1.00
H100   H     0.96850   0.32262   0.13932   0.00000  Uiso   1.00
H101   H     0.52935   0.17751   0.13916   0.00000  Uiso   1.00
H102   H     0.61187   0.32294   0.19281   0.00000  Uiso   1.00
H103   H     0.89018   0.17718   0.19331   0.00000  Uiso   1.00
H104   H     0.88812   0.32293   0.14049   0.00000  Uiso   1.00
H105   H     0.60982   0.17717   0.14006   0.00000  Uiso   1.00
H106   H     0.78568   0.03512   0.23640   0.00000  Uiso   1.00
N107   N     0.75000   0.12935   0.16667   0.00000  Uiso   1.00
N108   N     0.75000   0.37066   0.16667   0.00000  Uiso   1.00
O109   O     0.68573   0.29072   0.16667   0.00000  Uiso   1.00
O110   O     0.68155   0.37435   0.11795   0.00000  Uiso   1.00
O111   O     0.70589   0.12563   0.09078   0.00000  Uiso   1.00
O112   O     0.81845   0.37435   0.21538   0.00000  Uiso   1.00
O113   O     0.81427   0.20929   0.16666   0.00000  Uiso   1.00
O114   O     0.81427   0.29072   0.16666   0.00000  Uiso   1.00
O115   O     0.68573   0.20929   0.16667   0.00000  Uiso   1.00
O116   O     0.75000   0.29071   0.09613   0.00000  Uiso   1.00
O117   O     0.75000   0.20929   0.23720   0.00000  Uiso   1.00
O118   O     0.75000   0.29071   0.23720   0.00000  Uiso   1.00
O119   O     0.75000   0.20929   0.09613   0.00000  Uiso   1.00
O120   O     0.79411   0.12563   0.24255   0.00000  Uiso   1.00
C121   C     0.16503   0.75000   0.16652   0.00000  Uiso   1.00
C122   C     0.28482   0.94660   0.18879   0.00000  Uiso   1.00
C123   C     0.24989   0.75000   0.07359   0.00000  Uiso   1.00
C124   C     0.25011   0.75000   0.25974   0.00000  Uiso   1.00
C125   C     0.25000   0.52709   0.16667   0.00000  Uiso   1.00
C126   C     0.25000   0.97290   0.16667   0.00000  Uiso   1.00
C127   C     0.24996   0.74999   0.02185   0.00000  Uiso   1.00
C128   C     0.25004   0.74999   0.31148   0.00000  Uiso   1.00
C129   C     0.04822   0.79094   0.18145   0.00000  Uiso   1.00
C130   C     0.45295   0.70920   0.18173   0.00000  Uiso   1.00
C131   C     0.45178   0.79093   0.15186   0.00000  Uiso   1.00
C132   C     0.33497   0.75000   0.16681   0.00000  Uiso   1.00
C133   C     0.04705   0.70919   0.15163   0.00000  Uiso   1.00
C134   C     0.09412   0.79104   0.18105   0.00000  Uiso   1.00
C135   C     0.40702   0.70908   0.18147   0.00000  Uiso   1.00
C136   C     0.40588   0.79103   0.15227   0.00000  Uiso   1.00
C137   C     0.09298   0.70907   0.15189   0.00000  Uiso   1.00
C138   C     0.11677   0.75004   0.16647   0.00000  Uiso   1.00
C139   C     0.38323   0.75004   0.16686   0.00000  Uiso   1.00
C140   C     0.02429   0.75006   0.16660   0.00000  Uiso   1.00
C141   C     0.47571   0.75006   0.16673   0.00000  Uiso   1.00
C142   C     0.27118   0.60375   0.20426   0.00000  Uiso   1.00
C143   C     0.21608   0.89625   0.14330   0.00000  Uiso   1.00
C144   C     0.22882   0.60375   0.12908   0.00000  Uiso   1.00
C145   C     0.28392   0.89625   0.19003   0.00000  Uiso   1.00
C146   C     0.27007   0.55340   0.20526   0.00000  Uiso   1.00
C147   C     0.21518   0.94660   0.14454   0.00000  Uiso   1.00
C148   C     0.22993   0.55340   0.12808   0.00000  Uiso   1.00
Cu149  Cu    0.25000   0.79822   0.16667   0.00000  Uiso   1.00
Cu150  Cu    0.25000   0.70179   0.16667   0.00000  Uiso   1.00
H151   H     0.03150   0.82263   0.19398   0.00000  Uiso   1.00
H152   H     0.18708   0.96487   0.12733   0.00000  Uiso   1.00
H153   H     0.21432   0.53512   0.09693   0.00000  Uiso   1.00
H154   H     0.31292   0.96487   0.20600   0.00000  Uiso   1.00
H155   H     0.30845   0.65416   0.22944   0.00000  Uiso   1.00
H156   H     0.19337   0.84592   0.10182   0.00000  Uiso   1.00
H157   H     0.19154   0.65416   0.10390   0.00000  Uiso   1.00
H158   H     0.30663   0.84592   0.23151   0.00000  Uiso   1.00
H159   H     0.47065   0.67752   0.19421   0.00000  Uiso   1.00
H160   H     0.46850   0.82262   0.13932   0.00000  Uiso   1.00
H161   H     0.02935   0.67751   0.13916   0.00000  Uiso   1.00
H162   H     0.11187   0.82294   0.19281   0.00000  Uiso   1.00
H163   H     0.39018   0.67718   0.19331   0.00000  Uiso   1.00
H164   H     0.38812   0.82293   0.14049   0.00000  Uiso   1.00
H165   H     0.10982   0.67717   0.14006   0.00000  Uiso   1.00
H166   H     0.28568   0.53512   0.23640   0.00000  Uiso   1.00
N167   N     0.25000   0.62935   0.16667   0.00000  Uiso   1.00
N168   N     0.25000   0.87066   0.16667   0.00000  Uiso   1.00
O169   O     0.18573   0.79072   0.16667   0.00000  Uiso   1.00
O170   O     0.18155   0.87435   0.11795   0.00000  Uiso   1.00
O171   O     0.20589   0.62563   0.09078   0.00000  Uiso   1.00
O172   O     0.31845   0.87435   0.21538   0.00000  Uiso   1.00
O173   O     0.31427   0.70929   0.16666   0.00000  Uiso   1.00
O174   O     0.31427   0.79072   0.16666   0.00000  Uiso   1.00
O175   O     0.18573   0.70929   0.16667   0.00000  Uiso   1.00
O176   O     0.25000   0.79071   0.09613   0.00000  Uiso   1.00
O177   O     0.25000   0.70929   0.23720   0.00000  Uiso   1.00
O178   O     0.25000   0.79071   0.23720   0.00000  Uiso   1.00
O179   O     0.25000   0.70929   0.09613   0.00000  Uiso   1.00
O180   O     0.29411   0.62563   0.24255   0.00000  Uiso   1.00
C181   C     0.66503   0.75000   0.16652   0.00000  Uiso   1.00
C182   C     0.78482   0.94660   0.18879   0.00000  Uiso   1.00
C183   C     0.74989   0.75000   0.07359   0.00000  Uiso   1.00
C184   C     0.75011   0.75000   0.25974   0.00000  Uiso   1.00
C185   C     0.75000   0.52709   0.16667   0.00000  Uiso   1.00
C186   C     0.75000   0.97290   0.16667   0.00000  Uiso   1.00
C187   C     0.74996   0.74999   0.02185   0.00000  Uiso   1.00
C188   C     0.75004   0.74999   0.31148   0.00000  Uiso   1.00
C189   C     0.54822   0.79094   0.18145   0.00000  Uiso   1.00
C190   C     0.95295   0.70920   0.18173   0.00000  Uiso   1.00
C191   C     0.95178   0.79093   0.15186   0.00000  Uiso   1.00
C192   C     0.83497   0.75000   0.16681   0.00000  Uiso   1.00
C193   C     0.54705   0.70919   0.15163   0.00000  Uiso   1.00
C194   C     0.59412   0.79104   0.18105   0.00000  Uiso   1.00
C195   C     0.90702   0.70908   0.18147   0.00000  Uiso   1.00
C196   C     0.90588   0.79103   0.15227   0.00000  Uiso   1.00
C197   C     0.59298   0.70907   0.15189   0.00000  Uiso   1.00
C198   C     0.61677   0.75004   0.16647   0.00000  Uiso   1.00
C199   C     0.88323   0.75004   0.16686   0.00000  Uiso   1.00
C200   C     0.52429   0.75006   0.16660   0.00000  Uiso   1.00
C201   C     0.97571   0.75006   0.16673   0.00000  Uiso   1.00
C202   C     0.77118   0.60375   0.20426   0.00000  Uiso   1.00
C203   C     0.71608   0.89625   0.14330   0.00000  Uiso   1.00
C204   C     0.72882   0.60375   0.12908   0.00000  Uiso   1.00
C205   C     0.78392   0.89625   0.19003   0.00000  Uiso   1.00
C206   C     0.77007   0.55340   0.20526   0.00000  Uiso   1.00
C207   C     0.71518   0.94660   0.14454   0.00000  Uiso   1.00
C208   C     0.72993   0.55340   0.12808   0.00000  Uiso   1.00
Cu209  Cu    0.75000   0.79822   0.16667   0.00000  Uiso   1.00
Cu210  Cu    0.75000   0.70179   0.16667   0.00000  Uiso   1.00
H211   H     0.53150   0.82263   0.19398   0.00000  Uiso   1.00
H212   H     0.68708   0.96487   0.12733   0.00000  Uiso   1.00
H213   H     0.71432   0.53512   0.09693   0.00000  Uiso   1.00
H214   H     0.81292   0.96487   0.20600   0.00000  Uiso   1.00
H215   H     0.80845   0.65416   0.22944   0.00000  Uiso   1.00
H216   H     0.69337   0.84592   0.10182   0.00000  Uiso   1.00
H217   H     0.69154   0.65416   0.10390   0.00000  Uiso   1.00
H218   H     0.80663   0.84592   0.23151   0.00000  Uiso   1.00
H219   H     0.97065   0.67752   0.19421   0.00000  Uiso   1.00
H220   H     0.96850   0.82262   0.13932   0.00000  Uiso   1.00
H221   H     0.52935   0.67751   0.13916   0.00000  Uiso   1.00
H222   H     0.61187   0.82294   0.19281   0.00000  Uiso   1.00
H223   H     0.89018   0.67718   0.19331   0.00000  Uiso   1.00
H224   H     0.88812   0.82293   0.14049   0.00000  Uiso   1.00
H225   H     0.60982   0.67717   0.14006   0.00000  Uiso   1.00
H226   H     0.78568   0.53512   0.23640   0.00000  Uiso   1.00
N227   N     0.75000   0.62935   0.16667   0.00000  Uiso   1.00
N228   N     0.75000   0.87066   0.16667   0.00000  Uiso   1.00
O229   O     0.68573   0.79072   0.16667   0.00000  Uiso   1.00
O230   O     0.68155   0.87435   0.11795   0.00000  Uiso   1.00
O231   O     0.70589   0.62563   0.09078   0.00000  Uiso   1.00
O232   O     0.81845   0.87435   0.21538   0.00000  Uiso   1.00
O233   O     0.81427   0.70929   0.16666   0.00000  Uiso   1.00
O234   O     0.81427   0.79072   0.16666   0.00000  Uiso   1.00
O235   O     0.68573   0.70929   0.16667   0.00000  Uiso   1.00
O236   O     0.75000   0.79071   0.09613   0.00000  Uiso   1.00
O237   O     0.75000   0.70929   0.23720   0.00000  Uiso   1.00
O238   O     0.75000   0.79071   0.23720   0.00000  Uiso   1.00
O239   O     0.75000   0.70929   0.09613   0.00000  Uiso   1.00
O240   O     0.79411   0.62563   0.24255   0.00000  Uiso   1.00
C241   C     0.16503   0.25000   0.49986   0.00000  Uiso   1.00
C242   C     0.28482   0.44660   0.52212   0.00000  Uiso   1.00
C243   C     0.24989   0.25000   0.40692   0.00000  Uiso   1.00
C244   C     0.25011   0.25000   0.59308   0.00000  Uiso   1.00
C245   C     0.25000   0.02709   0.50000   0.00000  Uiso   1.00
C246   C     0.25000   0.47290   0.50000   0.00000  Uiso   1.00
C247   C     0.24996   0.24999   0.35519   0.00000  Uiso   1.00
C248   C     0.25004   0.24999   0.64481   0.00000  Uiso   1.00
C249   C     0.04822   0.29094   0.51479   0.00000  Uiso   1.00
C250   C     0.45295   0.20920   0.51506   0.00000  Uiso   1.00
C251   C     0.45178   0.29093   0.48520   0.00000  Uiso   1.00
C252   C     0.33497   0.25000   0.50014   0.00000  Uiso   1.00
C253   C     0.04705   0.20919   0.48496   0.00000  Uiso   1.00
C254   C     0.09412   0.29104   0.51438   0.00000  Uiso   1.00
C255   C     0.40702   0.20908   0.51480   0.00000  Uiso   1.00
C256   C     0.40588   0.29103   0.48560   0.00000  Uiso   1.00
C257   C     0.09298   0.20907   0.48522   0.00000  Uiso   1.00
C258   C     0.11677   0.25004   0.49980   0.00000  Uiso   1.00
C259   C     0.38323   0.25004   0.50020   0.00000  Uiso   1.00
C260   C     0.02429   0.25006   0.49994   0.00000  Uiso   1.00
C261   C     0.47571   0.25006   0.50007   0.00000  Uiso   1.00
C262   C     0.27118   0.10375   0.53759   0.00000  Uiso   1.00
C263   C     0.21608   0.39625   0.47663   0.00000  Uiso   1.00
C264   C     0.22882   0.10375   0.46241   0.00000  Uiso   1.00
C265   C     0.28392   0.39625   0.52337   0.00000  Uiso   1.00
C266   C     0.27007   0.05340   0.53859   0.00000  Uiso   1.00
C267   C     0.21518   0.44660   0.47787   0.00000  Uiso   1.00
C268   C     0.22993   0.05340   0.46141   0.00000  Uiso   1.00
Cu269  Cu    0.25000   0.29822   0.50000   0.00000  Uiso   1.00
Cu270  Cu    0.25000   0.20179   0.50000   0.00000  Uiso   1.00
H271   H     0.03150   0.32263   0.52731   0.00000  Uiso   1.00
H272   H     0.18708   0.46487   0.46067   0.00000  Uiso   1.00
H273   H     0.21432   0.03512   0.43026   0.00000  Uiso   1.00
H274   H     0.31292   0.46487   0.53933   0.00000  Uiso   1.00
H275   H     0.30845   0.15416   0.56277   0.00000  Uiso   1.00
H276   H     0.19337   0.34592   0.43515   0.00000  Uiso   1.00
H277   H     0.19154   0.15416   0.43723   0.00000  Uiso   1.00
H278   H     0.30663   0.34592   0.56484   0.00000  Uiso   1.00
H279   H     0.47065   0.17752   0.52754   0.00000  Uiso   1.00
H280   H     0.46850   0.32262   0.47266   0.00000  Uiso   1.00
H281   H     0.02935   0.17751   0.47249   0.00000  Uiso   1.00
H282   H     0.11187   0.32294   0.52615   0.00000  Uiso   1.00
H283   H     0.39018   0.17718   0.52664   0.00000  Uiso   1.00
H284   H     0.38812   0.32293   0.47382   0.00000  Uiso   1.00
H285   H     0.10982   0.17717   0.47339   0.00000  Uiso   1.00
H286   H     0.28568   0.03512   0.56974   0.00000  Uiso   1.00
N287   N     0.25000   0.12935   0.50000   0.00000  Uiso   1.00
N288   N     0.25000   0.37066   0.50000   0.00000  Uiso   1.00
O289   O     0.18573   0.29072   0.50000   0.00000  Uiso   1.00
O290   O     0.18155   0.37435   0.45129   0.00000  Uiso   1.00
O291   O     0.20589   0.12563   0.42411   0.00000  Uiso   1.00
O292   O     0.31845   0.37435   0.54871   0.00000  Uiso   1.00
O293   O     0.31427   0.20929   0.50000   0.00000  Uiso   1.00
O294   O     0.31427   0.29072   0.50000   0.00000  Uiso   1.00
O295   O     0.18573   0.20929   0.50000   0.00000  Uiso   1.00
O296   O     0.25000   0.29071   0.42946   0.00000  Uiso   1.00
O297   O     0.25000   0.20929   0.57054   0.00000  Uiso   1.00
O298   O     0.25000   0.29071   0.57054   0.00000  Uiso   1.00
O299   O     0.25000   0.20929   0.42946   0.00000  Uiso   1.00
O300   O     0.29411   0.12563   0.57588   0.00000  Uiso   1.00
C301   C     0.66503   0.25000   0.49986   0.00000  Uiso   1.00
C302   C     0.78482   0.44660   0.52212   0.00000  Uiso   1.00
C303   C     0.74989   0.25000   0.40692   0.00000  Uiso   1.00
C304   C     0.75011   0.25000   0.59308   0.00000  Uiso   1.00
C305   C     0.75000   0.02709   0.50000   0.00000  Uiso   1.00
C306   C     0.75000   0.47290   0.50000   0.00000  Uiso   1.00
C307   C     0.74996   0.24999   0.35519   0.00000  Uiso   1.00
C308   C     0.75004   0.24999   0.64481   0.00000  Uiso   1.00
C309   C     0.54822   0.29094   0.51479   0.00000  Uiso   1.00
C310   C     0.95295   0.20920   0.51506   0.00000  Uiso   1.00
C311   C     0.95178   0.29093   0.48520   0.00000  Uiso   1.00
C312   C     0.83497   0.25000   0.50014   0.00000  Uiso   1.00
C313   C     0.54705   0.20919   0.48496   0.00000  Uiso   1.00
C314   C     0.59412   0.29104   0.51438   0.00000  Uiso   1.00
C315   C     0.90702   0.20908   0.51480   0.00000  Uiso   1.00
C316   C     0.90588   0.29103   0.48560   0.00000  Uiso   1.00
C317   C     0.59298   0.20907   0.48522   0.00000  Uiso   1.00
C318   C     0.61677   0.25004   0.49980   0.00000  Uiso   1.00
C319   C     0.88323   0.25004   0.50020   0.00000  Uiso   1.00
C320   C     0.52429   0.25006   0.49994   0.00000  Uiso   1.00
C321   C     0.97571   0.25006   0.50007   0.00000  Uiso   1.00
C322   C     0.77118   0.10375   0.53759   0.00000  Uiso   1.00
C323   C     0.71608   0.39625   0.47663   0.00000  Uiso   1.00
C324   C     0.72882   0.10375   0.46241   0.00000  Uiso   1.00
C325   C     0.78392   0.39625   0.52337   0.00000  Uiso   1.00
C326   C     0.77007   0.05340   0.53859   0.00000  Uiso   1.00
C327   C     0.71518   0.44660   0.47787   0.00000  Uiso   1.00
C328   C     0.72993   0.05340   0.46141   0.00000  Uiso   1.00
Cu329  Cu    0.75000   0.29822   0.50000   0.00000  Uiso   1.00
Cu330  Cu    0.75000   0.20179   0.50000   0.00000  Uiso   1.00
H331   H     0.53150   0.32263   0.52731   0.00000  Uiso   1.00
H332   H     0.68708   0.46487   0.46067   0.00000  Uiso   1.00
H333   H     0.71432   0.03512   0.43026   0.00000  Uiso   1.00
H334   H     0.81292   0.46487   0.53933   0.00000  Uiso   1.00
H335   H     0.80845   0.15416   0.56277   0.00000  Uiso   1.00
H336   H     0.69337   0.34592   0.43515   0.00000  Uiso   1.00
H337   H     0.69154   0.15416   0.43723   0.00000  Uiso   1.00
H338   H     0.80663   0.34592   0.56484   0.00000  Uiso   1.00
H339   H     0.97065   0.17752   0.52754   0.00000  Uiso   1.00
H340   H     0.96850   0.32262   0.47266   0.00000  Uiso   1.00
H341   H     0.52935   0.17751   0.47249   0.00000  Uiso   1.00
H342   H     0.61187   0.32294   0.52615   0.00000  Uiso   1.00
H343   H     0.89018   0.17718   0.52664   0.00000  Uiso   1.00
H344   H     0.88812   0.32293   0.47382   0.00000  Uiso   1.00
H345   H     0.60982   0.17717   0.47339   0.00000  Uiso   1.00
H346   H     0.78568   0.03512   0.56974   0.00000  Uiso   1.00
N347   N     0.75000   0.12935   0.50000   0.00000  Uiso   1.00
N348   N     0.75000   0.37066   0.50000   0.00000  Uiso   1.00
O349   O     0.68573   0.29072   0.50000   0.00000  Uiso   1.00
O350   O     0.68155   0.37435   0.45129   0.00000  Uiso   1.00
O351   O     0.70589   0.12563   0.42411   0.00000  Uiso   1.00
O352   O     0.81845   0.37435   0.54871   0.00000  Uiso   1.00
O353   O     0.81427   0.20929   0.50000   0.00000  Uiso   1.00
O354   O     0.81427   0.29072   0.50000   0.00000  Uiso   1.00
O355   O     0.68573   0.20929   0.50000   0.00000  Uiso   1.00
O356   O     0.75000   0.29071   0.42946   0.00000  Uiso   1.00
O357   O     0.75000   0.20929   0.57054   0.00000  Uiso   1.00
O358   O     0.75000   0.29071   0.57054   0.00000  Uiso   1.00
O359   O     0.75000   0.20929   0.42946   0.00000  Uiso   1.00
O360   O     0.79411   0.12563   0.57588   0.00000  Uiso   1.00
C361   C     0.16503   0.75000   0.49986   0.00000  Uiso   1.00
C362   C     0.28482   0.94660   0.52212   0.00000  Uiso   1.00
C363   C     0.24989   0.75000   0.40692   0.00000  Uiso   1.00
C364   C     0.25011   0.75000   0.59308   0.00000  Uiso   1.00
C365   C     0.25000   0.52709   0.50000   0.00000  Uiso   1.00
C366   C     0.25000   0.97290   0.50000   0.00000  Uiso   1.00
C367   C     0.24996   0.74999   0.35519   0.00000  Uiso   1.00
C368   C     0.25004   0.74999   0.64481   0.00000  Uiso   1.00
C369   C     0.04822   0.79094   0.51479   0.00000  Uiso   1.00
C370   C     0.45295   0.70920   0.51506   0.00000  Uiso   1.00
C371   C     0.45178   0.79093   0.48520   0.00000  Uiso   1.00
C372   C     0.33497   0.75000   0.50014   0.00000  Uiso   1.00
C373   C     0.04705   0.70919   0.48496   0.00000  Uiso   1.00
C374   C     0.09412   0.79104   0.51438   0.00000  Uiso   1.00
C375   C     0.40702   0.70908   0.51480   0.00000  Uiso   1.00
C376   C     0.40588   0.79103   0.48560   0.00000  Uiso   1.00
C377   C     0.09298   0.70907   0.48522   0.00000  Uiso   1.00
C378   C     0.11677   0.75004   0.49980   0.00000  Uiso   1.00
C379   C     0.38323   0.75004   0.50020   0.00000  Uiso   1.00
C380   C     0.02429   0.75006   0.49994   0.00000  Uiso   1.00
C381   C     0.47571   0.75006   0.50007   0.00000  Uiso   1.00
C382   C     0.27118   0.60375   0.53759   0.00000  Uiso   1.00
C383   C     0.21608   0.89625   0.47663   0.00000  Uiso   1.00
C384   C     0.22882   0.60375   0.46241   0.00000  Uiso   1.00
C385   C     0.28392   0.89625   0.52337   0.00000  Uiso   1.00
C386   C     0.27007   0.55340   0.53859   0.00000  Uiso   1.00
C387   C     0.21518   0.94660   0.47787   0.00000  Uiso   1.00
C388   C     0.22993   0.55340   0.46141   0.00000  Uiso   1.00
Cu389  Cu    0.25000   0.79822   0.50000   0.00000  Uiso   1.00
Cu390  Cu    0.25000   0.70179   0.50000   0.00000  Uiso   1.00
H391   H     0.03150   0.82263   0.52731   0.00000  Uiso   1.00
H392   H     0.18708   0.96487   0.46067   0.00000  Uiso   1.00
H393   H     0.21432   0.53512   0.43026   0.00000  Uiso   1.00
H394   H     0.31292   0.96487   0.53933   0.00000  Uiso   1.00
H395   H     0.30845   0.65416   0.56277   0.00000  Uiso   1.00
H396   H     0.19337   0.84592   0.43515   0.00000  Uiso   1.00
H397   H     0.19154   0.65416   0.43723   0.00000  Uiso   1.00
H398   H     0.30663   0.84592   0.56484   0.00000  Uiso   1.00
H399   H     0.47065   0.67752   0.52754   0.00000  Uiso   1.00
H400   H     0.46850   0.82262   0.47266   0.00000  Uiso   1.00
H401   H     0.02935   0.67751   0.47249   0.00000  Uiso   1.00
H402   H     0.11187   0.82294   0.52615   0.00000  Uiso   1.00
H403   H     0.39018   0.67718   0.52664   0.00000  Uiso   1.00
H404   H     0.38812   0.82293   0.47382   0.00000  Uiso   1.00
H405   H     0.10982   0.67717   0.47339   0.00000  Uiso   1.00
H406   H     0.28568   0.53512   0.56974   0.00000  Uiso   1.00
N407   N     0.25000   0.62935   0.50000   0.00000  Uiso   1.00
N408   N     0.25000   0.87066   0.50000   0.00000  Uiso   1.00
O409   O     0.18573   0.79072   0.50000   0.00000  Uiso   1.00
O410   O     0.18155   0.87435   0.45129   0.00000  Uiso   1.00
O411   O     0.20589   0.62563   0.42411   0.00000  Uiso   1.00
O412   O     0.31845   0.87435   0.54871   0.00000  Uiso   1.00
O413   O     0.31427   0.70929   0.50000   0.00000  Uiso   1.00
O414   O     0.31427   0.79072   0.50000   0.00000  Uiso   1.00
O415   O     0.18573   0.70929   0.50000   0.00000  Uiso   1.00
O416   O     0.25000   0.79071   0.42946   0.00000  Uiso   1.00
O417   O     0.25000   0.70929   0.57054   0.00000  Uiso   1.00
O418   O     0.25000   0.79071   0.57054   0.00000  Uiso   1.00
O419   O     0.25000   0.70929   0.42946   0.00000  Uiso   1.00
O420   O     0.29411   0.62563   0.57588   0.00000  Uiso   1.00
C421   C     0.66503   0.75000   0.49986   0.00000  Uiso   1.00
C422   C     0.78482   0.94660   0.52212   0.00000  Uiso   1.00
C423   C     0.74989   0.75000   0.40692   0.00000  Uiso   1.00
C424   C     0.75011   0.75000   0.59308   0.00000  Uiso   1.00
C425   C     0.75000   0.52709   0.50000   0.00000  Uiso   1.00
C426   C     0.75000   0.97290   0.50000   0.00000  Uiso   1.00
C427   C     0.74996   0.74999   0.35519   0.00000  Uiso   1.00
C428   C     0.75004   0.74999   0.64481   0.00000  Uiso   1.00
C429   C     0.54822   0.79094   0.51479   0.00000  Uiso   1.00
C430   C     0.95295   0.70920   0.51506   0.00000  Uiso   1.00
C431   C     0.95178   0.79093   0.48520   0.00000  Uiso   1.00
C432   C     0.83497   0.75000   0.50014   0.00000  Uiso   1.00
C433   C     0.54705   0.70919   0.48496   0.00000  Uiso   1.00
C434   C     0.59412   0.79104   0.51438   0.00000  Uiso   1.00
C435   C     0.90702   0.70908   0.51480   0.00000  Uiso   1.00
C436   C     0.90588   0.79103   0.48560   0.00000  Uiso   1.00
C437   C     0.59298   0.70907   0.48522   0.00000  Uiso   1.00
C438   C     0.61677   0.75004   0.49980   0.00000  Uiso   1.00
C439   C     0.88323   0.75004   0.50020   0.00000  Uiso   1.00
C440   C     0.52429   0.75006   0.49994   0.00000  Uiso   1.00
C441   C     0.97571   0.75006   0.50007   0.00000  Uiso   1.00
C442   C     0.77118   0.60375   0.53759   0.00000  Uiso   1.00
C443   C     0.71608   0.89625   0.47663   0.00000  Uiso   1.00
C444   C     0.72882   0.60375   0.46241   0.00000  Uiso   1.00
C445   C     0.78392   0.89625   0.52337   0.00000  Uiso   1.00
C446   C     0.77007   0.55340   0.53859   0.00000  Uiso   1.00
C447   C     0.71518   0.94660   0.47787   0.00000  Uiso   1.00
C448   C     0.72993   0.55340   0.46141   0.00000  Uiso   1.00
Cu449  Cu    0.75000   0.79822   0.50000   0.00000  Uiso   1.00
Cu450  Cu    0.75000   0.70179   0.50000   0.00000  Uiso   1.00
H451   H     0.53150   0.82263   0.52731   0.00000  Uiso   1.00
H452   H     0.68708   0.96487   0.46067   0.00000  Uiso   1.00
H453   H     0.71432   0.53512   0.43026   0.00000  Uiso   1.00
H454   H     0.81292   0.96487   0.53933   0.00000  Uiso   1.00
H455   H     0.80845   0.65416   0.56277   0.00000  Uiso   1.00
H456   H     0.69337   0.84592   0.43515   0.00000  Uiso   1.00
H457   H     0.69154   0.65416   0.43723   0.00000  Uiso   1.00
H458   H     0.80663   0.84592   0.56484   0.00000  Uiso   1.00
H459   H     0.97065   0.67752   0.52754   0.00000  Uiso   1.00
H460   H     0.96850   0.82262   0.47266   0.00000  Uiso   1.00
H461   H     0.52935   0.67751   0.47249   0.00000  Uiso   1.00
H462   H     0.61187   0.82294   0.52615   0.00000  Uiso   1.00
H463   H     0.89018   0.67718   0.52664   0.00000  Uiso   1.00
H464   H     0.88812   0.82293   0.47382   0.00000  Uiso   1.00
H465   H     0.60982   0.67717   0.47339   0.00000  Uiso   1.00
H466   H     0.78568   0.53512   0.56974   0.00000  Uiso   1.00
N467   N     0.75000   0.62935   0.50000   0.00000  Uiso   1.00
N468   N     0.75000   0.87066   0.50000   0.00000  Uiso   1.00
O469   O     0.68573   0.79072   0.50000   0.00000  Uiso   1.00
O470   O     0.68155   0.87435   0.45129   0.00000  Uiso   1.00
O471   O     0.70589   0.62563   0.42411   0.00000  Uiso   1.00
O472   O     0.81845   0.87435   0.54871   0.00000  Uiso   1.00
O473   O     0.81427   0.70929   0.50000   0.00000  Uiso   1.00
O474   O     0.81427   0.79072   0.50000   0.00000  Uiso   1.00
O475   O     0.68573   0.70929   0.50000   0.00000  Uiso   1.00
O476   O     0.75000   0.79071   0.42946   0.00000  Uiso   1.00
O477   O     0.75000   0.70929   0.57054   0.00000  Uiso   1.00
O478   O     0.75000   0.79071   0.57054   0.00000  Uiso   1.00
O479   O     0.75000   0.70929   0.42946   0.00000  Uiso   1.00
O480   O     0.79411   0.62563   0.57588   0.00000  Uiso   1.00
C481   C     0.16503   0.25000   0.83319   0.00000  Uiso   1.00
C482   C     0.28482   0.44660   0.85546   0.00000  Uiso   1.00
C483   C     0.24989   0.25000   0.74026   0.00000  Uiso   1.00
C484   C     0.25011   0.25000   0.92641   0.00000  Uiso   1.00
C485   C     0.25000   0.02709   0.83333   0.00000  Uiso   1.00
C486   C     0.25000   0.47290   0.83333   0.00000  Uiso   1.00
C487   C     0.24996   0.24999   0.68852   0.00000  Uiso   1.00
C488   C     0.25004   0.24999   0.97815   0.00000  Uiso   1.00
C489   C     0.04822   0.29094   0.84812   0.00000  Uiso   1.00
C490   C     0.45295   0.20920   0.84839   0.00000  Uiso   1.00
C491   C     0.45178   0.29093   0.81853   0.00000  Uiso   1.00
C492   C     0.33497   0.25000   0.83348   0.00000  Uiso   1.00
C493   C     0.04705   0.20919   0.81829   0.00000  Uiso   1.00
C494   C     0.09412   0.29104   0.84771   0.00000  Uiso   1.00
C495   C     0.40702   0.20908   0.84813   0.00000  Uiso   1.00
C496   C     0.40588   0.29103   0.81894   0.00000  Uiso   1.00
C497   C     0.09298   0.20907   0.81855   0.00000  Uiso   1.00
C498   C     0.11677   0.25004   0.83314   0.00000  Uiso   1.00
C499   C     0.38323   0.25004   0.83353   0.00000  Uiso   1.00
C500   C     0.02429   0.25006   0.83327   0.00000  Uiso   1.00
C501   C     0.47571   0.25006   0.83340   0.00000  Uiso   1.00
C502   C     0.27118   0.10375   0.87092   0.00000  Uiso   1.00
C503   C     0.21608   0.39625   0.80997   0.00000  Uiso   1.00
C504   C     0.22882   0.10375   0.79574   0.00000  Uiso   1.00
C505   C     0.28392   0.39625   0.85670   0.00000  Uiso   1.00
C506   C     0.27007   0.05340   0.87192   0.00000  Uiso   1.00
C507   C     0.21518   0.44660   0.81121   0.00000  Uiso   1.00
C508   C     0.22993   0.05340   0.79474   0.00000  Uiso   1.00
Cu509  Cu    0.25000   0.29822   0.83333   0.00000  Uiso   1.00
Cu510  Cu    0.25000   0.20179   0.83333   0.00000  Uiso   1.00
H511   H     0.03150   0.32263   0.86064   0.00000  Uiso   1.00
H512   H     0.18708   0.46487   0.79400   0.00000  Uiso   1.00
H513   H     0.21432   0.03512   0.76359   0.00000  Uiso   1.00
H514   H     0.31292   0.46487   0.87266   0.00000  Uiso   1.00
H515   H     0.30845   0.15416   0.89611   0.00000  Uiso   1.00
H516   H     0.19337   0.34592   0.76849   0.00000  Uiso   1.00
H517   H     0.19154   0.15416   0.77056   0.00000  Uiso   1.00
H518   H     0.30663   0.34592   0.89818   0.00000  Uiso   1.00
H519   H     0.47065   0.17752   0.86088   0.00000  Uiso   1.00
H520   H     0.46850   0.32262   0.80599   0.00000  Uiso   1.00
H521   H     0.02935   0.17751   0.80583   0.00000  Uiso   1.00
H522   H     0.11187   0.32294   0.85948   0.00000  Uiso   1.00
H523   H     0.39018   0.17718   0.85998   0.00000  Uiso   1.00
H524   H     0.38812   0.32293   0.80715   0.00000  Uiso   1.00
H525   H     0.10982   0.17717   0.80673   0.00000  Uiso   1.00
H526   H     0.28568   0.03512   0.90307   0.00000  Uiso   1.00
N527   N     0.25000   0.12935   0.83333   0.00000  Uiso   1.00
N528   N     0.25000   0.37066   0.83333   0.00000  Uiso   1.00
O529   O     0.18573   0.29072   0.83334   0.00000  Uiso   1.00
O530   O     0.18155   0.37435   0.78462   0.00000  Uiso   1.00
O531   O     0.20589   0.12563   0.75745   0.00000  Uiso   1.00
O532   O     0.31845   0.37435   0.88205   0.00000  Uiso   1.00
O533   O     0.31427   0.20929   0.83333   0.00000  Uiso   1.00
O534   O     0.31427   0.29072   0.83333   0.00000  Uiso   1.00
O535   O     0.18573   0.20929   0.83334   0.00000  Uiso   1.00
O536   O     0.25000   0.29071   0.76280   0.00000  Uiso   1.00
O537   O     0.25000   0.20929   0.90387   0.00000  Uiso   1.00
O538   O     0.25000   0.29071   0.90387   0.00000  Uiso   1.00
O539   O     0.25000   0.20929   0.76280   0.00000  Uiso   1.00
O540   O     0.29411   0.12563   0.90922   0.00000  Uiso   1.00
C541   C     0.66503   0.25000   0.83319   0.00000  Uiso   1.00
C542   C     0.78482   0.44660   0.85546   0.00000  Uiso   1.00
C543   C     0.74989   0.25000   0.74026   0.00000  Uiso   1.00
C544   C     0.75011   0.25000   0.92641   0.00000  Uiso   1.00
C545   C     0.75000   0.02709   0.83333   0.00000  Uiso   1.00
C546   C     0.75000   0.47290   0.83333   0.00000  Uiso   1.00
C547   C     0.74996   0.24999   0.68852   0.00000  Uiso   1.00
C548   C     0.75004   0.24999   0.97815   0.00000  Uiso   1.00
C549   C     0.54822   0.29094   0.84812   0.00000  Uiso   1.00
C550   C     0.95295   0.20920   0.84839   0.00000  Uiso   1.00
C551   C     0.95178   0.29093   0.81853   0.00000  Uiso   1.00
C552   C     0.83497   0.25000   0.83348   0.00000  Uiso   1.00
C553   C     0.54705   0.20919   0.81829   0.00000  Uiso   1.00
C554   C     0.59412   0.29104   0.84771   0.00000  Uiso   1.00
C555   C     0.90702   0.20908   0.84813   0.00000  Uiso   1.00
C556   C     0.90588   0.29103   0.81894   0.00000  Uiso   1.00
C557   C     0.59298   0.20907   0.81855   0.00000  Uiso   1.00
C558   C     0.61677   0.25004   0.83314   0.00000  Uiso   1.00
C559   C     0.88323   0.25004   0.83353   0.00000  Uiso   1.00
C560   C     0.52429   0.25006   0.83327   0.00000  Uiso   1.00
C561   C     0.97571   0.25006   0.83340   0.00000  Uiso   1.00
C562   C     0.77118   0.10375   0.87092   0.00000  Uiso   1.00
C563   C     0.71608   0.39625   0.80997   0.00000  Uiso   1.00
C564   C     0.72882   0.10375   0.79574   0.00000  Uiso   1.00
C565   C     0.78392   0.39625   0.85670   0.00000  Uiso   1.00
C566   C     0.77007   0.05340   0.87192   0.00000  Uiso   1.00
C567   C     0.71518   0.44660   0.81121   0.00000  Uiso   1.00
C568   C     0.72993   0.05340   0.79474   0.00000  Uiso   1.00
Cu569  Cu    0.75000   0.29822   0.83333   0.00000  Uiso   1.00
Cu570  Cu    0.75000   0.20179   0.83333   0.00000  Uiso   1.00
H571   H     0.53150   0.32263   0.86064   0.00000  Uiso   1.00
H572   H     0.68708   0.46487   0.79400   0.00000  Uiso   1.00
H573   H     0.71432   0.03512   0.76359   0.00000  Uiso   1.00
H574   H     0.81292   0.46487   0.87266   0.00000  Uiso   1.00
H575   H     0.80845   0.15416   0.89611   0.00000  Uiso   1.00
H576   H     0.69337   0.34592   0.76849   0.00000  Uiso   1.00
H577   H     0.69154   0.15416   0.77056   0.00000  Uiso   1.00
H578   H     0.80663   0.34592   0.89818   0.00000  Uiso   1.00
H579   H     0.97065   0.17752   0.86088   0.00000  Uiso   1.00
H580   H     0.96850   0.32262   0.80599   0.00000  Uiso   1.00
H581   H     0.52935   0.17751   0.80583   0.00000  Uiso   1.00
H582   H     0.61187   0.32294   0.85948   0.00000  Uiso   1.00
H583   H     0.89018   0.17718   0.85998   0.00000  Uiso   1.00
H584   H     0.88812   0.32293   0.80715   0.00000  Uiso   1.00
H585   H     0.60982   0.17717   0.80673   0.00000  Uiso   1.00
H586   H     0.78568   0.03512   0.90307   0.00000  Uiso   1.00
N587   N     0.75000   0.12935   0.83333   0.00000  Uiso   1.00
N588   N     0.75000   0.37066   0.83333   0.00000  Uiso   1.00
O589   O     0.68573   0.29072   0.83334   0.00000  Uiso   1.00
O590   O     0.68155   0.37435   0.78462   0.00000  Uiso   1.00
O591   O     0.70589   0.12563   0.75745   0.00000  Uiso   1.00
O592   O     0.81845   0.37435   0.88205   0.00000  Uiso   1.00
O593   O     0.81427   0.20929   0.83333   0.00000  Uiso   1.00
O594   O     0.81427   0.29072   0.83333   0.00000  Uiso   1.00
O595   O     0.68573   0.20929   0.83334   0.00000  Uiso   1.00
O596   O     0.75000   0.29071   0.76280   0.00000  Uiso   1.00
O597   O     0.75000   0.20929   0.90387   0.00000  Uiso   1.00
O598   O     0.75000   0.29071   0.90387   0.00000  Uiso   1.00
O599   O     0.75000   0.20929   0.76280   0.00000  Uiso   1.00
O600   O     0.79411   0.12563   0.90922   0.00000  Uiso   1.00
C601   C     0.16503   0.75000   0.83319   0.00000  Uiso   1.00
C602   C     0.28482   0.94660   0.85546   0.00000  Uiso   1.00
C603   C     0.24989   0.75000   0.74026   0.00000  Uiso   1.00
C604   C     0.25011   0.75000   0.92641   0.00000  Uiso   1.00
C605   C     0.25000   0.52709   0.83333   0.00000  Uiso   1.00
C606   C     0.25000   0.97290   0.83333   0.00000  Uiso   1.00
C607   C     0.24996   0.74999   0.68852   0.00000  Uiso   1.00
C608   C     0.25004   0.74999   0.97815   0.00000  Uiso   1.00
C609   C     0.04822   0.79094   0.84812   0.00000  Uiso   1.00
C610   C     0.45295   0.70920   0.84839   0.00000  Uiso   1.00
C611   C     0.45178   0.79093   0.81853   0.00000  Uiso   1.00
C612   C     0.33497   0.75000   0.83348   0.00000  Uiso   1.00
C613   C     0.04705   0.70919   0.81829   0.00000  Uiso   1.00
C614   C     0.09412   0.79104   0.84771   0.00000  Uiso   1.00
C615   C     0.40702   0.70908   0.84813   0.00000  Uiso   1.00
C616   C     0.40588   0.79103   0.81894   0.00000  Uiso   1.00
C617   C     0.09298   0.70907   0.81855   0.00000  Uiso   1.00
C618   C     0.11677   0.75004   0.83314   0.00000  Uiso   1.00
C619   C     0.38323   0.75004   0.83353   0.00000  Uiso   1.00
C620   C     0.02429   0.75006   0.83327   0.00000  Uiso   1.00
C621   C     0.47571   0.75006   0.83340   0.00000  Uiso   1.00
C622   C     0.27118   0.60375   0.87092   0.00000  Uiso   1.00
C623   C     0.21608   0.89625   0.80997   0.00000  Uiso   1.00
C624   C     0.22882   0.60375   0.79574   0.00000  Uiso   1.00
C625   C     0.28392   0.89625   0.85670   0.00000  Uiso   1.00
C626   C     0.27007   0.55340   0.87192   0.00000  Uiso   1.00
C627   C     0.21518   0.94660   0.81121   0.00000  Uiso   1.00
C628   C     0.22993   0.55340   0.79474   0.00000  Uiso   1.00
Cu629  Cu    0.25000   0.79822   0.83333   0.00000  Uiso   1.00
Cu630  Cu    0.25000   0.70179   0.83333   0.00000  Uiso   1.00
H631   H     0.03150   0.82263   0.86064   0.00000  Uiso   1.00
H632   H     0.18708   0.96487   0.79400   0.00000  Uiso   1.00
H633   H     0.21432   0.53512   0.76359   0.00000  Uiso   1.00
H634   H     0.31292   0.96487   0.87266   0.00000  Uiso   1.00
H635   H     0.30845   0.65416   0.89611   0.00000  Uiso   1.00
H636   H     0.19337   0.84592   0.76849   0.00000  Uiso   1.00
H637   H     0.19154   0.65416   0.77056   0.00000  Uiso   1.00
H638   H     0.30663   0.84592   0.89818   0.00000  Uiso   1.00
H639   H     0.47065   0.67752   0.86088   0.00000  Uiso   1.00
H640   H     0.46850   0.82262   0.80599   0.00000  Uiso   1.00
H641   H     0.02935   0.67751   0.80583   0.00000  Uiso   1.00
H642   H     0.11187   0.82294   0.85948   0.00000  Uiso   1.00
H643   H     0.39018   0.67718   0.85998   0.00000  Uiso   1.00
H644   H     0.38812   0.82293   0.80715   0.00000  Uiso   1.00
H645   H     0.10982   0.67717   0.80673   0.00000  Uiso   1.00
H646   H     0.28568   0.53512   0.90307   0.00000  Uiso   1.00
N647   N     0.25000   0.62935   0.83333   0.00000  Uiso   1.00
N648   N     0.25000   0.87066   0.83333   0.00000  Uiso   1.00
O649   O     0.18573   0.79072   0.83334   0.00000  Uiso   1.00
O650   O     0.18155   0.87435   0.78462   0.00000  Uiso   1.00
O651   O     0.20589   0.62563   0.75745   0.00000  Uiso   1.00
O652   O     0.31845   0.87435   0.88205   0.00000  Uiso   1.00
O653   O     0.31427   0.70929   0.83333   0.00000  Uiso   1.00
O654   O     0.31427   0.79072   0.83333   0.00000  Uiso   1.00
O655   O     0.18573   0.70929   0.83334   0.00000  Uiso   1.00
O656   O     0.25000   0.79071   0.76280   0.00000  Uiso   1.00
O657   O     0.25000   0.70929   0.90387   0.00000  Uiso   1.00
O658   O     0.25000   0.79071   0.90387   0.00000  Uiso   1.00
O659   O     0.25000   0.70929   0.76280   0.00000  Uiso   1.00
O660   O     0.29411   0.62563   0.90922   0.00000  Uiso   1.00
C661   C     0.66503   0.75000   0.83319   0.00000  Uiso   1.00
C662   C     0.78482   0.94660   0.85546   0.00000  Uiso   1.00
C663   C     0.74989   0.75000   0.74026   0.00000  Uiso   1.00
C664   C     0.75011   0.75000   0.92641   0.00000  Uiso   1.00
C665   C     0.75000   0.52709   0.83333   0.00000  Uiso   1.00
C666   C     0.75000   0.97290   0.83333   0.00000  Uiso   1.00
C667   C     0.74996   0.74999   0.68852   0.00000  Uiso   1.00
C668   C     0.75004   0.74999   0.97815   0.00000  Uiso   1.00
C669   C     0.54822   0.79094   0.84812   0.00000  Uiso   1.00
C670   C     0.95295   0.70920   0.84839   0.00000  Uiso   1.00
C671   C     0.95178   0.79093   0.81853   0.00000  Uiso   1.00
C672   C     0.83497   0.75000   0.83348   0.00000  Uiso   1.00
C673   C     0.54705   0.70919   0.81829   0.00000  Uiso   1.00
C674   C     0.59412   0.79104   0.84771   0.00000  Uiso   1.00
C675   C     0.90702   0.70908   0.84813   0.00000  Uiso   1.00
C676   C     0.90588   0.79103   0.81894   0.00000  Uiso   1.00
C677   C     0.59298   0.70907   0.81855   0.00000  Uiso   1.00
C678   C     0.61677   0.75004   0.83314   0.00000  Uiso   1.00
C679   C     0.88323   0.75004   0.83353   0.00000  Uiso   1.00
C680   C     0.52429   0.75006   0.83327   0.00000  Uiso   1.00
C681   C     0.97571   0.75006   0.83340   0.00000  Uiso   1.00
C682   C     0.77118   0.60375   0.87092   0.00000  Uiso   1.00
C683   C     0.71608   0.89625   0.80997   0.00000  Uiso   1.00
C684   C     0.72882   0.60375   0.79574   0.00000  Uiso   1.00
C685   C     0.78392   0.89625   0.85670   0.00000  Uiso   1.00
C686   C     0.77007   0.55340   0.87192   0.00000  Uiso   1.00
C687   C     0.71518   0.94660   0.81121   0.00000  Uiso   1.00
C688   C     0.72993   0.55340   0.79474   0.00000  Uiso   1.00
Cu689  Cu    0.75000   0.79822   0.83333   0.00000  Uiso   1.00
Cu690  Cu    0.75000   0.70179   0.83333   0.00000  Uiso   1.00
H691   H     0.53150   0.82263   0.86064   0.00000  Uiso   1.00
H692   H     0.68708   0.96487   0.79400   0.00000  Uiso   1.00
H693   H     0.71432   0.53512   0.76359   0.00000  Uiso   1.00
H694   H     0.81292   0.96487   0.87266   0.00000  Uiso   1.00
H695   H     0.80845   0.65416   0.89611   0.00000  Uiso   1.00
H696   H     0.69337   0.84592   0.76849   0.00000  Uiso   1.00
H697   H     0.69154   0.65416   0.77056   0.00000  Uiso   1.00
H698   H     0.80663   0.84592   0.89818   0.00000  Uiso   1.00
H699   H     0.97065   0.67752   0.86088   0.00000  Uiso   1.00
H700   H     0.96850   0.82262   0.80599   0.00000  Uiso   1.00
H701   H     0.52935   0.67751   0.80583   0.00000  Uiso   1.00
H702   H     0.61187   0.82294   0.85948   0.00000  Uiso   1.00
H703   H     0.89018   0.67718   0.85998   0.00000  Uiso   1.00
H704   H     0.88812   0.82293   0.80715   0.00000  Uiso   1.00
H705   H     0.60982   0.67717   0.80673   0.00000  Uiso   1.00
H706   H     0.78568   0.53512   0.90307   0.00000  Uiso   1.00
N707   N     0.75000   0.62935   0.83333   0.00000  Uiso   1.00
N708   N     0.75000   0.87066   0.83333   0.00000  Uiso   1.00
O709   O     0.68573   0.79072   0.83334   0.00000  Uiso   1.00
O710   O     0.68155   0.87435   0.78462   0.00000  Uiso   1.00
O711   O     0.70589   0.62563   0.75745   0.00000  Uiso   1.00
O712   O     0.81845   0.87435   0.88205   0.00000  Uiso   1.00
O713   O     0.81427   0.70929   0.83333   0.00000  Uiso   1.00
O714   O     0.81427   0.79072   0.83333   0.00000  Uiso   1.00
O715   O     0.68573   0.70929   0.83334   0.00000  Uiso   1.00
O716   O     0.75000   0.79071   0.76280   0.00000  Uiso   1.00
O717   O     0.75000   0.70929   0.90387   0.00000  Uiso   1.00
O718   O     0.75000   0.79071   0.90387   0.00000  Uiso   1.00
O719   O     0.75000   0.70929   0.76280   0.00000  Uiso   1.00
O720   O     0.79411   0.62563   0.90922   0.00000  Uiso   1.00
loop_
_geom_bond_atom_site_label_1
_geom_bond_atom_site_label_2
_geom_bond_distance
_geom_bond_site_symmetry_2
_ccdc_geom_bond_type
C1     O55     1.300   .     A
C1     C18     1.461   .     S
C1     O49     1.300   .     A
C2     H34     1.082   .     S
C2     C25     1.409   .     A
C2     C6      1.401   .     A
C3     O56     1.294   .     A
C3     C7      1.410   .     S
C3     O59     1.293   .     A
C4     O57     1.293   .     A
C4     C8      1.410   .     S
C4     O58     1.294   .     A
C5     C28     1.401   .     A
C5     C26     1.401   .     A
C5     C126    1.516   1_545 S
C6     C27     1.401   .     A
C6     C125    1.516   .     S
C7     C488    1.191   1_554 S
C8     C247    1.191   .     S
C9     C14     1.390   .     A
C9     C20     1.404   .     A
C9     H31     1.083   .     S
C10    C15     1.390   .     A
C10    C21     1.404   .     A
C10    H39     1.083   .     S
C11    H40     1.083   .     S
C11    C16     1.390   .     A
C11    C21     1.404   .     A
C12    O53     1.300   .     A
C12    C19     1.461   .     S
C12    O54     1.300   .     A
C13    C17     1.390   .     A
C13    H41     1.083   .     S
C13    C20     1.404   .     A
C14    C18     1.402   .     A
C14    H42     1.083   .     S
C15    H43     1.083   .     S
C15    C19     1.402   .     A
C16    C19     1.402   .     A
C16    H44     1.083   .     S
C17    C18     1.402   .     A
C17    H45     1.083   .     S
C20    C81     1.471   1_455 S
C21    C80     1.471   .     S
C22    N47     1.385   .     A
C22    O60     1.373   .     S
C22    C26     1.409   .     A
C23    C27     1.409   .     A
C23    O50     1.373   .     S
C23    N48     1.385   .     A
C24    O51     1.373   .     S
C24    C28     1.409   .     A
C24    N47     1.385   .     A
C25    O52     1.373   .     S
C25    N48     1.385   .     A
C26    H46     1.082   .     S
C27    H32     1.082   .     S
C28    H33     1.082   .     S
Cu29   Cu30    2.697   .     S
Cu29   O56     1.933   .     S
Cu29   O49     1.957   .     S
Cu29   O58     1.933   .     S
Cu29   O54     1.957   .     S
Cu29   N48     2.026   .     S
Cu30   O59     1.933   .     S
Cu30   O53     1.957   .     S
Cu30   O57     1.933   .     S
Cu30   N47     2.026   .     S
Cu30   O55     1.957   .     S
H35    O60     0.983   .     S
H36    O50     0.983   .     S
H37    O51     0.983   .     S
H38    O52     0.983   .     S
C61    O115    1.300   .     A
C61    C78     1.461   .     S
C61    O109    1.300   .     A
C62    H94     1.082   .     S
C62    C85     1.409   .     A
C62    C66     1.401   .     A
C63    O116    1.294   .     A
C63    C67     1.410   .     S
C63    O119    1.293   .     A
C64    O117    1.293   .     A
C64    C68     1.410   .     S
C64    O118    1.294   .     A
C65    C88     1.401   .     A
C65    C86     1.401   .     A
C65    C186    1.516   1_545 S
C66    C87     1.401   .     A
C66    C185    1.516   .     S
C67    C548    1.191   1_554 S
C68    C307    1.191   .     S
C69    C74     1.390   .     A
C69    C80     1.404   .     A
C69    H91     1.083   .     S
C70    C75     1.390   .     A
C70    C81     1.404   .     A
C70    H99     1.083   .     S
C71    H100    1.083   .     S
C71    C76     1.390   .     A
C71    C81     1.404   .     A
C72    O113    1.300   .     A
C72    C79     1.461   .     S
C72    O114    1.300   .     A
C73    C77     1.390   .     A
C73    H101    1.083   .     S
C73    C80     1.404   .     A
C74    C78     1.402   .     A
C74    H102    1.083   .     S
C75    H103    1.083   .     S
C75    C79     1.402   .     A
C76    C79     1.402   .     A
C76    H104    1.083   .     S
C77    C78     1.402   .     A
C77    H105    1.083   .     S
C81    C20     1.471   1_655 S
C82    N107    1.385   .     A
C82    O120    1.373   .     S
C82    C86     1.409   .     A
C83    C87     1.409   .     A
C83    O110    1.373   .     S
C83    N108    1.385   .     A
C84    O111    1.373   .     S
C84    C88     1.409   .     A
C84    N107    1.385   .     A
C85    O112    1.373   .     S
C85    N108    1.385   .     A
C86    H106    1.082   .     S
C87    H92     1.082   .     S
C88    H93     1.082   .     S
Cu89   Cu90    2.697   .     S
Cu89   O116    1.933   .     S
Cu89   O109    1.957   .     S
Cu89   O118    1.933   .     S
Cu89   O114    1.957   .     S
Cu89   N108    2.026   .     S
Cu90   O119    1.933   .     S
Cu90   O113    1.957   .     S
Cu90   O117    1.933   .     S
Cu90   N107    2.026   .     S
Cu90   O115    1.957   .     S
H95    O120    0.983   .     S
H96    O110    0.983   .     S
H97    O111    0.983   .     S
H98    O112    0.983   .     S
C121   O175    1.300   .     A
C121   C138    1.461   .     S
C121   O169    1.300   .     A
C122   H154    1.082   .     S
C122   C145    1.409   .     A
C122   C126    1.401   .     A
C123   O176    1.294   .     A
C123   C127    1.410   .     S
C123   O179    1.293   .     A
C124   O177    1.293   .     A
C124   C128    1.410   .     S
C124   O178    1.294   .     A
C125   C148    1.401   .     A
C125   C146    1.401   .     A
C126   C147    1.401   .     A
C126   C5      1.516   1_565 S
C127   C608    1.191   1_554 S
C128   C367    1.191   .     S
C129   C134    1.390   .     A
C129   C140    1.404   .     A
C129   H151    1.083   .     S
C130   C135    1.390   .     A
C130   C141    1.404   .     A
C130   H159    1.083   .     S
C131   H160    1.083   .     S
C131   C136    1.390   .     A
C131   C141    1.404   .     A
C132   O173    1.300   .     A
C132   C139    1.461   .     S
C132   O174    1.300   .     A
C133   C137    1.390   .     A
C133   H161    1.083   .     S
C133   C140    1.404   .     A
C134   C138    1.402   .     A
C134   H162    1.083   .     S
C135   H163    1.083   .     S
C135   C139    1.402   .     A
C136   C139    1.402   .     A
C136   H164    1.083   .     S
C137   C138    1.402   .     A
C137   H165    1.083   .     S
C140   C201    1.471   1_455 S
C141   C200    1.471   .     S
C142   N167    1.385   .     A
C142   O180    1.373   .     S
C142   C146    1.409   .     A
C143   C147    1.409   .     A
C143   O170    1.373   .     S
C143   N168    1.385   .     A
C144   O171    1.373   .     S
C144   C148    1.409   .     A
C144   N167    1.385   .     A
C145   O172    1.373   .     S
C145   N168    1.385   .     A
C146   H166    1.082   .     S
C147   H152    1.082   .     S
C148   H153    1.082   .     S
Cu149  Cu150   2.697   .     S
Cu149  O176    1.933   .     S
Cu149  O169    1.957   .     S
Cu149  O178    1.933   .     S
Cu149  O174    1.957   .     S
Cu149  N168    2.026   .     S
Cu150  O179    1.933   .     S
Cu150  O173    1.957   .     S
Cu150  O177    1.933   .     S
Cu150  N167    2.026   .     S
Cu150  O175    1.957   .     S
H155   O180    0.983   .     S
H156   O170    0.983   .     S
H157   O171    0.983   .     S
H158   O172    0.983   .     S
C181   O235    1.300   .     A
C181   C198    1.461   .     S
C181   O229    1.300   .     A
C182   H214    1.082   .     S
C182   C205    1.409   .     A
C182   C186    1.401   .     A
C183   O236    1.294   .     A
C183   C187    1.410   .     S
C183   O239    1.293   .     A
C184   O237    1.293   .     A
C184   C188    1.410   .     S
C184   O238    1.294   .     A
C185   C208    1.401   .     A
C185   C206    1.401   .     A
C186   C207    1.401   .     A
C186   C65     1.516   1_565 S
C187   C668    1.191   1_554 S
C188   C427    1.191   .     S
C189   C194    1.390   .     A
C189   C200    1.404   .     A
C189   H211    1.083   .     S
C190   C195    1.390   .     A
C190   C201    1.404   .     A
C190   H219    1.083   .     S
C191   H220    1.083   .     S
C191   C196    1.390   .     A
C191   C201    1.404   .     A
C192   O233    1.300   .     A
C192   C199    1.461   .     S
C192   O234    1.300   .     A
C193   C197    1.390   .     A
C193   H221    1.083   .     S
C193   C200    1.404   .     A
C194   C198    1.402   .     A
C194   H222    1.083   .     S
C195   H223    1.083   .     S
C195   C199    1.402   .     A
C196   C199    1.402   .     A
C196   H224    1.083   .     S
C197   C198    1.402   .     A
C197   H225    1.083   .     S
C201   C140    1.471   1_655 S
C202   N227    1.385   .     A
C202   O240    1.373   .     S
C202   C206    1.409   .     A
C203   C207    1.409   .     A
C203   O230    1.373   .     S
C203   N228    1.385   .     A
C204   O231    1.373   .     S
C204   C208    1.409   .     A
C204   N227    1.385   .     A
C205   O232    1.373   .     S
C205   N228    1.385   .     A
C206   H226    1.082   .     S
C207   H212    1.082   .     S
C208   H213    1.082   .     S
Cu209  Cu210   2.697   .     S
Cu209  O236    1.933   .     S
Cu209  O229    1.957   .     S
Cu209  O238    1.933   .     S
Cu209  O234    1.957   .     S
Cu209  N228    2.026   .     S
Cu210  O239    1.933   .     S
Cu210  O233    1.957   .     S
Cu210  O237    1.933   .     S
Cu210  N227    2.026   .     S
Cu210  O235    1.957   .     S
H215   O240    0.983   .     S
H216   O230    0.983   .     S
H217   O231    0.983   .     S
H218   O232    0.983   .     S
C241   O295    1.300   .     A
C241   C258    1.461   .     S
C241   O289    1.300   .     A
C242   H274    1.082   .     S
C242   C265    1.409   .     A
C242   C246    1.401   .     A
C243   O296    1.294   .     A
C243   C247    1.410   .     S
C243   O299    1.293   .     A
C244   O297    1.293   .     A
C244   C248    1.410   .     S
C244   O298    1.294   .     A
C245   C268    1.401   .     A
C245   C266    1.401   .     A
C245   C366    1.516   1_545 S
C246   C267    1.401   .     A
C246   C365    1.516   .     S
C248   C487    1.191   .     S
C249   C254    1.390   .     A
C249   C260    1.404   .     A
C249   H271    1.083   .     S
C250   C255    1.390   .     A
C250   C261    1.404   .     A
C250   H279    1.083   .     S
C251   H280    1.083   .     S
C251   C256    1.390   .     A
C251   C261    1.404   .     A
C252   O293    1.300   .     A
C252   C259    1.461   .     S
C252   O294    1.300   .     A
C253   C257    1.390   .     A
C253   H281    1.083   .     S
C253   C260    1.404   .     A
C254   C258    1.402   .     A
C254   H282    1.083   .     S
C255   H283    1.083   .     S
C255   C259    1.402   .     A
C256   C259    1.402   .     A
C256   H284    1.083   .     S
C257   C258    1.402   .     A
C257   H285    1.083   .     S
C260   C321    1.471   1_455 S
C261   C320    1.471   .     S
C262   N287    1.385   .     A
C262   O300    1.373   .     S
C262   C266    1.409   .     A
C263   C267    1.409   .     A
C263   O290    1.373   .     S
C263   N288    1.385   .     A
C264   O291    1.373   .     S
C264   C268    1.409   .     A
C264   N287    1.385   .     A
C265   O292    1.373   .     S
C265   N288    1.385   .     A
C266   H286    1.082   .     S
C267   H272    1.082   .     S
C268   H273    1.082   .     S
Cu269  Cu270   2.697   .     S
Cu269  O296    1.933   .     S
Cu269  O289    1.957   .     S
Cu269  O298    1.933   .     S
Cu269  O294    1.957   .     S
Cu269  N288    2.026   .     S
Cu270  O299    1.933   .     S
Cu270  O293    1.957   .     S
Cu270  O297    1.933   .     S
Cu270  N287    2.026   .     S
Cu270  O295    1.957   .     S
H275   O300    0.983   .     S
H276   O290    0.983   .     S
H277   O291    0.983   .     S
H278   O292    0.983   .     S
C301   O355    1.300   .     A
C301   C318    1.461   .     S
C301   O349    1.300   .     A
C302   H334    1.082   .     S
C302   C325    1.409   .     A
C302   C306    1.401   .     A
C303   O356    1.294   .     A
C303   C307    1.410   .     S
C303   O359    1.293   .     A
C304   O357    1.293   .     A
C304   C308    1.410   .     S
C304   O358    1.294   .     A
C305   C328    1.401   .     A
C305   C326    1.401   .     A
C305   C426    1.516   1_545 S
C306   C327    1.401   .     A
C306   C425    1.516   .     S
C308   C547    1.191   .     S
C309   C314    1.390   .     A
C309   C320    1.404   .     A
C309   H331    1.083   .     S
C310   C315    1.390   .     A
C310   C321    1.404   .     A
C310   H339    1.083   .     S
C311   H340    1.083   .     S
C311   C316    1.390   .     A
C311   C321    1.404   .     A
C312   O353    1.300   .     A
C312   C319    1.461   .     S
C312   O354    1.300   .     A
C313   C317    1.390   .     A
C313   H341    1.083   .     S
C313   C320    1.404   .     A
C314   C318    1.402   .     A
C314   H342    1.083   .     S
C315   H343    1.083   .     S
C315   C319    1.402   .     A
C316   C319    1.402   .     A
C316   H344    1.083   .     S
C317   C318    1.402   .     A
C317   H345    1.083   .     S
C321   C260    1.471   1_655 S
C322   N347    1.385   .     A
C322   O360    1.373   .     S
C322   C326    1.409   .     A
C323   C327    1.409   .     A
C323   O350    1.373   .     S
C323   N348    1.385   .     A
C324   O351    1.373   .     S
C324   C328    1.409   .     A
C324   N347    1.385   .     A
C325   O352    1.373   .     S
C325   N348    1.385   .     A
C326   H346    1.082   .     S
C327   H332    1.082   .     S
C328   H333    1.082   .     S
Cu329  Cu330   2.697   .     S
Cu329  O356    1.933   .     S
Cu329  O349    1.957   .     S
Cu329  O358    1.933   .     S
Cu329  O354    1.957   .     S
Cu329  N348    2.026   .     S
Cu330  O359    1.933   .     S
Cu330  O353    1.957   .     S
Cu330  O357    1.933   .     S
Cu330  N347    2.026   .     S
Cu330  O355    1.957   .     S
H335   O360    0.983   .     S
H336   O350    0.983   .     S
H337   O351    0.983   .     S
H338   O352    0.983   .     S
C361   O415    1.300   .     A
C361   C378    1.461   .     S
C361   O409    1.300   .     A
C362   H394    1.082   .     S
C362   C385    1.409   .     A
C362   C366    1.401   .     A
C363   O416    1.294   .     A
C363   C367    1.410   .     S
C363   O419    1.293   .     A
C364   O417    1.293   .     A
C364   C368    1.410   .     S
C364   O418    1.294   .     A
C365   C388    1.401   .     A
C365   C386    1.401   .     A
C366   C387    1.401   .     A
C366   C245    1.516   1_565 S
C368   C607    1.191   .     S
C369   C374    1.390   .     A
C369   C380    1.404   .     A
C369   H391    1.083   .     S
C370   C375    1.390   .     A
C370   C381    1.404   .     A
C370   H399    1.083   .     S
C371   H400    1.083   .     S
C371   C376    1.390   .     A
C371   C381    1.404   .     A
C372   O413    1.300   .     A
C372   C379    1.461   .     S
C372   O414    1.300   .     A
C373   C377    1.390   .     A
C373   H401    1.083   .     S
C373   C380    1.404   .     A
C374   C378    1.402   .     A
C374   H402    1.083   .     S
C375   H403    1.083   .     S
C375   C379    1.402   .     A
C376   C379    1.402   .     A
C376   H404    1.083   .     S
C377   C378    1.402   .     A
C377   H405    1.083   .     S
C380   C441    1.471   1_455 S
C381   C440    1.471   .     S
C382   N407    1.385   .     A
C382   O420    1.373   .     S
C382   C386    1.409   .     A
C383   C387    1.409   .     A
C383   O410    1.373   .     S
C383   N408    1.385   .     A
C384   O411    1.373   .     S
C384   C388    1.409   .     A
C384   N407    1.385   .     A
C385   O412    1.373   .     S
C385   N408    1.385   .     A
C386   H406    1.082   .     S
C387   H392    1.082   .     S
C388   H393    1.082   .     S
Cu389  Cu390   2.697   .     S
Cu389  O416    1.933   .     S
Cu389  O409    1.957   .     S
Cu389  O418    1.933   .     S
Cu389  O414    1.957   .     S
Cu389  N408    2.026   .     S
Cu390  O419    1.933   .     S
Cu390  O413    1.957   .     S
Cu390  O417    1.933   .     S
Cu390  N407    2.026   .     S
Cu390  O415    1.957   .     S
H395   O420    0.983   .     S
H396   O410    0.983   .     S
H397   O411    0.983   .     S
H398   O412    0.983   .     S
C421   O475    1.300   .     A
C421   C438    1.461   .     S
C421   O469    1.300   .     A
C422   H454    1.082   .     S
C422   C445    1.409   .     A
C422   C426    1.401   .     A
C423   O476    1.294   .     A
C423   C427    1.410   .     S
C423   O479    1.293   .     A
C424   O477    1.293   .     A
C424   C428    1.410   .     S
C424   O478    1.294   .     A
C425   C448    1.401   .     A
C425   C446    1.401   .     A
C426   C447    1.401   .     A
C426   C305    1.516   1_565 S
C428   C667    1.191   .     S
C429   C434    1.390   .     A
C429   C440    1.404   .     A
C429   H451    1.083   .     S
C430   C435    1.390   .     A
C430   C441    1.404   .     A
C430   H459    1.083   .     S
C431   H460    1.083   .     S
C431   C436    1.390   .     A
C431   C441    1.404   .     A
C432   O473    1.300   .     A
C432   C439    1.461   .     S
C432   O474    1.300   .     A
C433   C437    1.390   .     A
C433   H461    1.083   .     S
C433   C440    1.404   .     A
C434   C438    1.402   .     A
C434   H462    1.083   .     S
C435   H463    1.083   .     S
C435   C439    1.402   .     A
C436   C439    1.402   .     A
C436   H464    1.083   .     S
C437   C438    1.402   .     A
C437   H465    1.083   .     S
C441   C380    1.471   1_655 S
C442   N467    1.385   .     A
C442   O480    1.373   .     S
C442   C446    1.409   .     A
C443   C447    1.409   .     A
C443   O470    1.373   .     S
C443   N468    1.385   .     A
C444   O471    1.373   .     S
C444   C448    1.409   .     A
C444   N467    1.385   .     A
C445   O472    1.373   .     S
C445   N468    1.385   .     A
C446   H466    1.082   .     S
C447   H452    1.082   .     S
C448   H453    1.082   .     S
Cu449  Cu450   2.697   .     S
Cu449  O476    1.933   .     S
Cu449  O469    1.957   .     S
Cu449  O478    1.933   .     S
Cu449  O474    1.957   .     S
Cu449  N468    2.026   .     S
Cu450  O479    1.933   .     S
Cu450  O473    1.957   .     S
Cu450  O477    1.933   .     S
Cu450  N467    2.026   .     S
Cu450  O475    1.957   .     S
H455   O480    0.983   .     S
H456   O470    0.983   .     S
H457   O471    0.983   .     S
H458   O472    0.983   .     S
C481   O535    1.300   .     A
C481   C498    1.461   .     S
C481   O529    1.300   .     A
C482   H514    1.082   .     S
C482   C505    1.409   .     A
C482   C486    1.401   .     A
C483   O536    1.294   .     A
C483   C487    1.410   .     S
C483   O539    1.293   .     A
C484   O537    1.293   .     A
C484   C488    1.410   .     S
C484   O538    1.294   .     A
C485   C508    1.401   .     A
C485   C506    1.401   .     A
C485   C606    1.516   1_545 S
C486   C507    1.401   .     A
C486   C605    1.516   .     S
C488   C7      1.191   1_556 S
C489   C494    1.390   .     A
C489   C500    1.404   .     A
C489   H511    1.083   .     S
C490   C495    1.390   .     A
C490   C501    1.404   .     A
C490   H519    1.083   .     S
C491   H520    1.083   .     S
C491   C496    1.390   .     A
C491   C501    1.404   .     A
C492   O533    1.300   .     A
C492   C499    1.461   .     S
C492   O534    1.300   .     A
C493   C497    1.390   .     A
C493   H521    1.083   .     S
C493   C500    1.404   .     A
C494   C498    1.402   .     A
C494   H522    1.083   .     S
C495   H523    1.083   .     S
C495   C499    1.402   .     A
C496   C499    1.402   .     A
C496   H524    1.083   .     S
C497   C498    1.402   .     A
C497   H525    1.083   .     S
C500   C561    1.471   1_455 S
C501   C560    1.471   .     S
C502   N527    1.385   .     A
C502   O540    1.373   .     S
C502   C506    1.409   .     A
C503   C507    1.409   .     A
C503   O530    1.373   .     S
C503   N528    1.385   .     A
C504   O531    1.373   .     S
C504   C508    1.409   .     A
C504   N527    1.385   .     A
C505   O532    1.373   .     S
C505   N528    1.385   .     A
C506   H526    1.082   .     S
C507   H512    1.082   .     S
C508   H513    1.082   .     S
Cu509  Cu510   2.697   .     S
Cu509  O536    1.933   .     S
Cu509  O529    1.957   .     S
Cu509  O538    1.933   .     S
Cu509  O534    1.957   .     S
Cu509  N528    2.026   .     S
Cu510  O539    1.933   .     S
Cu510  O533    1.957   .     S
Cu510  O537    1.933   .     S
Cu510  N527    2.026   .     S
Cu510  O535    1.957   .     S
H515   O540    0.983   .     S
H516   O530    0.983   .     S
H517   O531    0.983   .     S
H518   O532    0.983   .     S
C541   O595    1.300   .     A
C541   C558    1.461   .     S
C541   O589    1.300   .     A
C542   H574    1.082   .     S
C542   C565    1.409   .     A
C542   C546    1.401   .     A
C543   O596    1.294   .     A
C543   C547    1.410   .     S
C543   O599    1.293   .     A
C544   O597    1.293   .     A
C544   C548    1.410   .     S
C544   O598    1.294   .     A
C545   C568    1.401   .     A
C545   C566    1.401   .     A
C545   C666    1.516   1_545 S
C546   C567    1.401   .     A
C546   C665    1.516   .     S
C548   C67     1.191   1_556 S
C549   C554    1.390   .     A
C549   C560    1.404   .     A
C549   H571    1.083   .     S
C550   C555    1.390   .     A
C550   C561    1.404   .     A
C550   H579    1.083   .     S
C551   H580    1.083   .     S
C551   C556    1.390   .     A
C551   C561    1.404   .     A
C552   O593    1.300   .     A
C552   C559    1.461   .     S
C552   O594    1.300   .     A
C553   C557    1.390   .     A
C553   H581    1.083   .     S
C553   C560    1.404   .     A
C554   C558    1.402   .     A
C554   H582    1.083   .     S
C555   H583    1.083   .     S
C555   C559    1.402   .     A
C556   C559    1.402   .     A
C556   H584    1.083   .     S
C557   C558    1.402   .     A
C557   H585    1.083   .     S
C561   C500    1.471   1_655 S
C562   N587    1.385   .     A
C562   O600    1.373   .     S
C562   C566    1.409   .     A
C563   C567    1.409   .     A
C563   O590    1.373   .     S
C563   N588    1.385   .     A
C564   O591    1.373   .     S
C564   C568    1.409   .     A
C564   N587    1.385   .     A
C565   O592    1.373   .     S
C565   N588    1.385   .     A
C566   H586    1.082   .     S
C567   H572    1.082   .     S
C568   H573    1.082   .     S
Cu569  Cu570   2.697   .     S
Cu569  O596    1.933   .     S
Cu569  O589    1.957   .     S
Cu569  O598    1.933   .     S
Cu569  O594    1.957   .     S
Cu569  N588    2.026   .     S
Cu570  O599    1.933   .     S
Cu570  O593    1.957   .     S
Cu570  O597    1.933   .     S
Cu570  N587    2.026   .     S
Cu570  O595    1.957   .     S
H575   O600    0.983   .     S
H576   O590    0.983   .     S
H577   O591    0.983   .     S
H578   O592    0.983   .     S
C601   O655    1.300   .     A
C601   C618    1.461   .     S
C601   O649    1.300   .     A
C602   H634    1.082   .     S
C602   C625    1.409   .     A
C602   C606    1.401   .     A
C603   O656    1.294   .     A
C603   C607    1.410   .     S
C603   O659    1.293   .     A
C604   O657    1.293   .     A
C604   C608    1.410   .     S
C604   O658    1.294   .     A
C605   C628    1.401   .     A
C605   C626    1.401   .     A
C606   C627    1.401   .     A
C606   C485    1.516   1_565 S
C608   C127    1.191   1_556 S
C609   C614    1.390   .     A
C609   C620    1.404   .     A
C609   H631    1.083   .     S
C610   C615    1.390   .     A
C610   C621    1.404   .     A
C610   H639    1.083   .     S
C611   H640    1.083   .     S
C611   C616    1.390   .     A
C611   C621    1.404   .     A
C612   O653    1.300   .     A
C612   C619    1.461   .     S
C612   O654    1.300   .     A
C613   C617    1.390   .     A
C613   H641    1.083   .     S
C613   C620    1.404   .     A
C614   C618    1.402   .     A
C614   H642    1.083   .     S
C615   H643    1.083   .     S
C615   C619    1.402   .     A
C616   C619    1.402   .     A
C616   H644    1.083   .     S
C617   C618    1.402   .     A
C617   H645    1.083   .     S
C620   C681    1.471   1_455 S
C621   C680    1.471   .     S
C622   N647    1.385   .     A
C622   O660    1.373   .     S
C622   C626    1.409   .     A
C623   C627    1.409   .     A
C623   O650    1.373   .     S
C623   N648    1.385   .     A
C624   O651    1.373   .     S
C624   C628    1.409   .     A
C624   N647    1.385   .     A
C625   O652    1.373   .     S
C625   N648    1.385   .     A
C626   H646    1.082   .     S
C627   H632    1.082   .     S
C628   H633    1.082   .     S
Cu629  Cu630   2.697   .     S
Cu629  O656    1.933   .     S
Cu629  O649    1.957   .     S
Cu629  O658    1.933   .     S
Cu629  O654    1.957   .     S
Cu629  N648    2.026   .     S
Cu630  O659    1.933   .     S
Cu630  O653    1.957   .     S
Cu630  O657    1.933   .     S
Cu630  N647    2.026   .     S
Cu630  O655    1.957   .     S
H635   O660    0.983   .     S
H636   O650    0.983   .     S
H637   O651    0.983   .     S
H638   O652    0.983   .     S
C661   O715    1.300   .     A
C661   C678    1.461   .     S
C661   O709    1.300   .     A
C662   H694    1.082   .     S
C662   C685    1.409   .     A
C662   C666    1.401   .     A
C663   O716    1.294   .     A
C663   C667    1.410   .     S
C663   O719    1.293   .     A
C664   O717    1.293   .     A
C664   C668    1.410   .     S
C664   O718    1.294   .     A
C665   C688    1.401   .     A
C665   C686    1.401   .     A
C666   C687    1.401   .     A
C666   C545    1.516   1_565 S
C668   C187    1.191   1_556 S
C669   C674    1.390   .     A
C669   C680    1.404   .     A
C669   H691    1.083   .     S
C670   C675    1.390   .     A
C670   C681    1.404   .     A
C670   H699    1.083   .     S
C671   H700    1.083   .     S
C671   C676    1.390   .     A
C671   C681    1.404   .     A
C672   O713    1.300   .     A
C672   C679    1.461   .     S
C672   O714    1.300   .     A
C673   C677    1.390   .     A
C673   H701    1.083   .     S
C673   C680    1.404   .     A
C674   C678    1.402   .     A
C674   H702    1.083   .     S
C675   H703    1.083   .     S
C675   C679    1.402   .     A
C676   C679    1.402   .     A
C676   H704    1.083   .     S
C677   C678    1.402   .     A
C677   H705    1.083   .     S
C681   C620    1.471   1_655 S
C682   N707    1.385   .     A
C682   O720    1.373   .     S
C682   C686    1.409   .     A
C683   C687    1.409   .     A
C683   O710    1.373   .     S
C683   N708    1.385   .     A
C684   O711    1.373   .     S
C684   C688    1.409   .     A
C684   N707    1.385   .     A
C685   O712    1.373   .     S
C685   N708    1.385   .     A
C686   H706    1.082   .     S
C687   H692    1.082   .     S
C688   H693    1.082   .     S
Cu689  Cu690   2.697   .     S
Cu689  O716    1.933   .     S
Cu689  O709    1.957   .     S
Cu689  O718    1.933   .     S
Cu689  O714    1.957   .     S
Cu689  N708    2.026   .     S
Cu690  O719    1.933   .     S
Cu690  O713    1.957   .     S
Cu690  O717    1.933   .     S
Cu690  N707    2.026   .     S
Cu690  O715    1.957   .     S
H695   O720    0.983   .     S
H696   O710    0.983   .     S
H697   O711    0.983   .     S
H698   O712    0.983   .     S
