data_str_m2_o1_o18_pcu_sym.50
_audit_creation_date              2020-01-03
_audit_creation_method            'Materials Studio'
_symmetry_space_group_name_H-M    'P1'
_symmetry_Int_Tables_number       1
_symmetry_cell_setting            triclinic
loop_
_symmetry_equiv_pos_as_xyz
  x,y,z
_cell_length_a                    28.6317
_cell_length_b                    32.4810
_cell_length_c                    30.8610
_cell_angle_alpha                 89.4599
_cell_angle_beta                  74.7830
_cell_angle_gamma                 89.9842
loop_
_atom_site_label
_atom_site_type_symbol
_atom_site_fract_x
_atom_site_fract_y
_atom_site_fract_z
_atom_site_U_iso_or_equiv
_atom_site_adp_type
_atom_site_occupancy
O1     O     0.03958   0.10655   0.25000   0.00000  Uiso   1.00
O2     O     0.29375   0.22678   0.25000   0.00000  Uiso   1.00
O3     O     0.29372   0.10654   0.25001   0.00000  Uiso   1.00
O4     O     0.03961   0.22679   0.24999   0.00000  Uiso   1.00
C5     C     0.33301   0.08743   0.25077   0.00000  Uiso   1.00
C6     C     0.00032   0.24591   0.24922   0.00000  Uiso   1.00
O7     O     0.01852   0.16668   0.31492   0.00000  Uiso   1.00
O8     O     0.31481   0.16666   0.18509   0.00000  Uiso   1.00
O9     O     0.27267   0.16667   0.31492   0.00000  Uiso   1.00
O10    O     0.06067   0.16667   0.18508   0.00000  Uiso   1.00
C11    C     0.30617   0.16684   0.33613   0.00000  Uiso   1.00
C12    C     0.02714   0.16626   0.16391   0.00000  Uiso   1.00
Cu13   Cu    0.04689   0.16667   0.25000   0.00000  Uiso   1.00
Cu14   Cu    0.28645   0.16666   0.25000   0.00000  Uiso   1.00
C15    C     0.29114   0.16810   0.38540   0.00000  Uiso   1.00
C16    C     0.04220   0.16259   0.11486   0.00000  Uiso   1.00
C17    C     0.30737   0.18266   0.45666   0.00000  Uiso   1.00
C18    C     0.02733   0.14067   0.04511   0.00000  Uiso   1.00
C19    C     0.32364   0.17878   0.41026   0.00000  Uiso   1.00
C20    C     0.01037   0.14830   0.09087   0.00000  Uiso   1.00
C21    C     0.24255   0.16048   0.40745   0.00000  Uiso   1.00
C22    C     0.09071   0.17006   0.09254   0.00000  Uiso   1.00
C23    C     0.22508   0.16409   0.45430   0.00000  Uiso   1.00
C24    C     0.10931   0.16087   0.04682   0.00000  Uiso   1.00
C25    C     0.25847   0.17578   0.47876   0.00000  Uiso   1.00
C26    C     0.07640   0.14669   0.02300   0.00000  Uiso   1.00
C27    C     0.17535   0.15760   0.47727   0.00000  Uiso   1.00
C28    C     0.15947   0.16514   0.02429   0.00000  Uiso   1.00
C29    C     0.19441   0.17583   0.04738   0.00000  Uiso   1.00
C30    C     0.14104   0.14358   0.45492   0.00000  Uiso   1.00
C31    C     0.24280   0.18095   0.02496   0.00000  Uiso   1.00
C32    C     0.09272   0.13814   0.47748   0.00000  Uiso   1.00
H33    H     0.26813   0.18948   0.04401   0.00000  Uiso   1.00
H34    H     0.06787   0.12707   0.45903   0.00000  Uiso   1.00
H35    H     0.11314   0.18301   0.11196   0.00000  Uiso   1.00
H36    H     0.21887   0.15284   0.38689   0.00000  Uiso   1.00
H37    H     0.30614   0.14197   0.10762   0.00000  Uiso   1.00
H38    H     0.02788   0.18533   0.39381   0.00000  Uiso   1.00
H39    H     0.33288   0.19188   0.47520   0.00000  Uiso   1.00
H40    H     0.00227   0.12915   0.02717   0.00000  Uiso   1.00
H41    H     0.18599   0.17987   0.08315   0.00000  Uiso   1.00
H42    H     0.15021   0.13552   0.41999   0.00000  Uiso   1.00
C43    C     0.28969   0.02054   0.26953   0.00000  Uiso   1.00
C44    C     0.04364   0.31280   0.23044   0.00000  Uiso   1.00
C45    C     0.29074   0.31116   0.26806   0.00000  Uiso   1.00
C46    C     0.04259   0.02218   0.23190   0.00000  Uiso   1.00
H47    H     0.25773   0.29411   0.28277   0.00000  Uiso   1.00
H48    H     0.07560   0.03922   0.21719   0.00000  Uiso   1.00
C49    C     0.00069   0.29054   0.24888   0.00000  Uiso   1.00
C50    C     0.33265   0.04280   0.25109   0.00000  Uiso   1.00
C51    C     0.18359   0.14185   0.27880   0.00000  Uiso   1.00
C52    C     0.14976   0.19148   0.22119   0.00000  Uiso   1.00
H53    H     0.19597   0.12195   0.30181   0.00000  Uiso   1.00
H54    H     0.13739   0.21134   0.19814   0.00000  Uiso   1.00
C55    C     0.13407   0.14165   0.27891   0.00000  Uiso   1.00
C56    C     0.19929   0.19160   0.22101   0.00000  Uiso   1.00
N57    N     0.11736   0.16668   0.24999   0.00000  Uiso   1.00
N58    N     0.21597   0.16666   0.25001   0.00000  Uiso   1.00
N59    N     0.24534   0.04102   0.29079   0.00000  Uiso   1.00
H60    H     0.21926   0.03259   0.27429   0.00000  Uiso   1.00
H61    H     0.23374   0.03042   0.32399   0.00000  Uiso   1.00
N62    N     0.08801   0.29231   0.20922   0.00000  Uiso   1.00
H63    H     0.11406   0.30072   0.22578   0.00000  Uiso   1.00
H64    H     0.09968   0.30294   0.17602   0.00000  Uiso   1.00
N65    N     0.10198   0.11464   0.30948   0.00000  Uiso   1.00
O66    O     0.10081   0.07601   0.29913   0.00000  Uiso   1.00
O67    O     0.08739   0.12489   0.35150   0.00000  Uiso   1.00
N68    N     0.23152   0.21830   0.19014   0.00000  Uiso   1.00
O69    O     0.23268   0.25709   0.19988   0.00000  Uiso   1.00
O70    O     0.24659   0.20740   0.14836   0.00000  Uiso   1.00
O71    O     0.37291   0.10655   0.25000   0.00000  Uiso   1.00
O72    O     0.62709   0.22678   0.25000   0.00000  Uiso   1.00
O73    O     0.62706   0.10654   0.25001   0.00000  Uiso   1.00
O74    O     0.37294   0.22679   0.24999   0.00000  Uiso   1.00
C75    C     0.66634   0.08743   0.25077   0.00000  Uiso   1.00
C76    C     0.33366   0.24591   0.24922   0.00000  Uiso   1.00
O77    O     0.35186   0.16668   0.31492   0.00000  Uiso   1.00
O78    O     0.64814   0.16666   0.18509   0.00000  Uiso   1.00
O79    O     0.60600   0.16667   0.31492   0.00000  Uiso   1.00
O80    O     0.39400   0.16667   0.18508   0.00000  Uiso   1.00
C81    C     0.63951   0.16684   0.33613   0.00000  Uiso   1.00
C82    C     0.36048   0.16626   0.16391   0.00000  Uiso   1.00
Cu83   Cu    0.38022   0.16667   0.25000   0.00000  Uiso   1.00
Cu84   Cu    0.61978   0.16666   0.25000   0.00000  Uiso   1.00
C85    C     0.62448   0.16810   0.38540   0.00000  Uiso   1.00
C86    C     0.37554   0.16259   0.11486   0.00000  Uiso   1.00
C87    C     0.64070   0.18266   0.45666   0.00000  Uiso   1.00
C88    C     0.36067   0.14067   0.04511   0.00000  Uiso   1.00
C89    C     0.65697   0.17878   0.41026   0.00000  Uiso   1.00
C90    C     0.34371   0.14830   0.09087   0.00000  Uiso   1.00
C91    C     0.57589   0.16048   0.40745   0.00000  Uiso   1.00
C92    C     0.42404   0.17006   0.09254   0.00000  Uiso   1.00
C93    C     0.55841   0.16409   0.45430   0.00000  Uiso   1.00
C94    C     0.44265   0.16087   0.04682   0.00000  Uiso   1.00
C95    C     0.59180   0.17578   0.47876   0.00000  Uiso   1.00
C96    C     0.40973   0.14669   0.02300   0.00000  Uiso   1.00
C97    C     0.50868   0.15760   0.47727   0.00000  Uiso   1.00
C98    C     0.49280   0.16514   0.02429   0.00000  Uiso   1.00
C99    C     0.52775   0.17583   0.04738   0.00000  Uiso   1.00
C100   C     0.47437   0.14358   0.45492   0.00000  Uiso   1.00
C101   C     0.57614   0.18095   0.02496   0.00000  Uiso   1.00
C102   C     0.42605   0.13814   0.47748   0.00000  Uiso   1.00
H103   H     0.60147   0.18948   0.04401   0.00000  Uiso   1.00
H104   H     0.40120   0.12707   0.45903   0.00000  Uiso   1.00
H105   H     0.44647   0.18301   0.11196   0.00000  Uiso   1.00
H106   H     0.55220   0.15284   0.38689   0.00000  Uiso   1.00
H107   H     0.63948   0.14197   0.10762   0.00000  Uiso   1.00
H108   H     0.36121   0.18533   0.39381   0.00000  Uiso   1.00
H109   H     0.66622   0.19188   0.47520   0.00000  Uiso   1.00
H110   H     0.33560   0.12915   0.02717   0.00000  Uiso   1.00
H111   H     0.51932   0.17987   0.08315   0.00000  Uiso   1.00
H112   H     0.48354   0.13552   0.41999   0.00000  Uiso   1.00
C113   C     0.62302   0.02054   0.26953   0.00000  Uiso   1.00
C114   C     0.37698   0.31280   0.23044   0.00000  Uiso   1.00
C115   C     0.62407   0.31116   0.26806   0.00000  Uiso   1.00
C116   C     0.37592   0.02218   0.23190   0.00000  Uiso   1.00
H117   H     0.59106   0.29411   0.28277   0.00000  Uiso   1.00
H118   H     0.40893   0.03922   0.21719   0.00000  Uiso   1.00
C119   C     0.33402   0.29054   0.24888   0.00000  Uiso   1.00
C120   C     0.66598   0.04280   0.25109   0.00000  Uiso   1.00
C121   C     0.51692   0.14185   0.27880   0.00000  Uiso   1.00
C122   C     0.48309   0.19148   0.22119   0.00000  Uiso   1.00
H123   H     0.52930   0.12195   0.30181   0.00000  Uiso   1.00
H124   H     0.47072   0.21134   0.19814   0.00000  Uiso   1.00
C125   C     0.46741   0.14165   0.27891   0.00000  Uiso   1.00
C126   C     0.53263   0.19160   0.22101   0.00000  Uiso   1.00
N127   N     0.45069   0.16668   0.24999   0.00000  Uiso   1.00
N128   N     0.54931   0.16666   0.25001   0.00000  Uiso   1.00
N129   N     0.57867   0.04102   0.29079   0.00000  Uiso   1.00
H130   H     0.55259   0.03259   0.27429   0.00000  Uiso   1.00
H131   H     0.56707   0.03042   0.32399   0.00000  Uiso   1.00
N132   N     0.42135   0.29231   0.20922   0.00000  Uiso   1.00
H133   H     0.44739   0.30072   0.22578   0.00000  Uiso   1.00
H134   H     0.43301   0.30294   0.17602   0.00000  Uiso   1.00
N135   N     0.43531   0.11464   0.30948   0.00000  Uiso   1.00
O136   O     0.43414   0.07601   0.29913   0.00000  Uiso   1.00
O137   O     0.42072   0.12489   0.35150   0.00000  Uiso   1.00
N138   N     0.56485   0.21830   0.19014   0.00000  Uiso   1.00
O139   O     0.56601   0.25709   0.19988   0.00000  Uiso   1.00
O140   O     0.57992   0.20740   0.14836   0.00000  Uiso   1.00
O141   O     0.70625   0.10655   0.25000   0.00000  Uiso   1.00
O142   O     0.96042   0.22678   0.25000   0.00000  Uiso   1.00
O143   O     0.96039   0.10654   0.25001   0.00000  Uiso   1.00
O144   O     0.70628   0.22679   0.24999   0.00000  Uiso   1.00
C145   C     0.99968   0.08743   0.25077   0.00000  Uiso   1.00
C146   C     0.66699   0.24591   0.24922   0.00000  Uiso   1.00
O147   O     0.68519   0.16668   0.31492   0.00000  Uiso   1.00
O148   O     0.98148   0.16666   0.18509   0.00000  Uiso   1.00
O149   O     0.93933   0.16667   0.31492   0.00000  Uiso   1.00
O150   O     0.72733   0.16667   0.18508   0.00000  Uiso   1.00
C151   C     0.97284   0.16684   0.33613   0.00000  Uiso   1.00
C152   C     0.69381   0.16626   0.16391   0.00000  Uiso   1.00
Cu153  Cu    0.71355   0.16667   0.25000   0.00000  Uiso   1.00
Cu154  Cu    0.95311   0.16666   0.25000   0.00000  Uiso   1.00
C155   C     0.95781   0.16810   0.38540   0.00000  Uiso   1.00
C156   C     0.70887   0.16259   0.11486   0.00000  Uiso   1.00
C157   C     0.97403   0.18266   0.45666   0.00000  Uiso   1.00
C158   C     0.69400   0.14067   0.04511   0.00000  Uiso   1.00
C159   C     0.99031   0.17878   0.41026   0.00000  Uiso   1.00
C160   C     0.67704   0.14830   0.09087   0.00000  Uiso   1.00
C161   C     0.90922   0.16048   0.40745   0.00000  Uiso   1.00
C162   C     0.75737   0.17006   0.09254   0.00000  Uiso   1.00
C163   C     0.89174   0.16409   0.45430   0.00000  Uiso   1.00
C164   C     0.77598   0.16087   0.04682   0.00000  Uiso   1.00
C165   C     0.92514   0.17578   0.47876   0.00000  Uiso   1.00
C166   C     0.74306   0.14669   0.02300   0.00000  Uiso   1.00
C167   C     0.84202   0.15760   0.47727   0.00000  Uiso   1.00
C168   C     0.82614   0.16514   0.02429   0.00000  Uiso   1.00
C169   C     0.86108   0.17583   0.04738   0.00000  Uiso   1.00
C170   C     0.80771   0.14358   0.45492   0.00000  Uiso   1.00
C171   C     0.90947   0.18095   0.02496   0.00000  Uiso   1.00
C172   C     0.75938   0.13814   0.47748   0.00000  Uiso   1.00
H173   H     0.93480   0.18948   0.04401   0.00000  Uiso   1.00
H174   H     0.73454   0.12707   0.45903   0.00000  Uiso   1.00
H175   H     0.77980   0.18301   0.11196   0.00000  Uiso   1.00
H176   H     0.88554   0.15284   0.38689   0.00000  Uiso   1.00
H177   H     0.97281   0.14197   0.10762   0.00000  Uiso   1.00
H178   H     0.69455   0.18533   0.39381   0.00000  Uiso   1.00
H179   H     0.99955   0.19188   0.47520   0.00000  Uiso   1.00
H180   H     0.66894   0.12915   0.02717   0.00000  Uiso   1.00
H181   H     0.85266   0.17987   0.08315   0.00000  Uiso   1.00
H182   H     0.81687   0.13552   0.41999   0.00000  Uiso   1.00
C183   C     0.95636   0.02054   0.26953   0.00000  Uiso   1.00
C184   C     0.71031   0.31280   0.23044   0.00000  Uiso   1.00
C185   C     0.95741   0.31116   0.26806   0.00000  Uiso   1.00
C186   C     0.70926   0.02218   0.23190   0.00000  Uiso   1.00
H187   H     0.92440   0.29411   0.28277   0.00000  Uiso   1.00
H188   H     0.74227   0.03922   0.21719   0.00000  Uiso   1.00
C189   C     0.66735   0.29054   0.24888   0.00000  Uiso   1.00
C190   C     0.99931   0.04280   0.25109   0.00000  Uiso   1.00
C191   C     0.85025   0.14185   0.27880   0.00000  Uiso   1.00
C192   C     0.81643   0.19148   0.22119   0.00000  Uiso   1.00
H193   H     0.86264   0.12195   0.30181   0.00000  Uiso   1.00
H194   H     0.80406   0.21134   0.19814   0.00000  Uiso   1.00
C195   C     0.80074   0.14165   0.27891   0.00000  Uiso   1.00
C196   C     0.86596   0.19160   0.22101   0.00000  Uiso   1.00
N197   N     0.78403   0.16668   0.24999   0.00000  Uiso   1.00
N198   N     0.88264   0.16666   0.25001   0.00000  Uiso   1.00
N199   N     0.91200   0.04102   0.29079   0.00000  Uiso   1.00
H200   H     0.88592   0.03259   0.27429   0.00000  Uiso   1.00
H201   H     0.90040   0.03042   0.32399   0.00000  Uiso   1.00
N202   N     0.75468   0.29231   0.20922   0.00000  Uiso   1.00
H203   H     0.78072   0.30072   0.22578   0.00000  Uiso   1.00
H204   H     0.76634   0.30294   0.17602   0.00000  Uiso   1.00
N205   N     0.76864   0.11464   0.30948   0.00000  Uiso   1.00
O206   O     0.76748   0.07601   0.29913   0.00000  Uiso   1.00
O207   O     0.75405   0.12489   0.35150   0.00000  Uiso   1.00
N208   N     0.89818   0.21830   0.19014   0.00000  Uiso   1.00
O209   O     0.89935   0.25709   0.19988   0.00000  Uiso   1.00
O210   O     0.91326   0.20740   0.14836   0.00000  Uiso   1.00
O211   O     0.03958   0.43989   0.25000   0.00000  Uiso   1.00
O212   O     0.29375   0.56011   0.25000   0.00000  Uiso   1.00
O213   O     0.29372   0.43988   0.25001   0.00000  Uiso   1.00
O214   O     0.03961   0.56012   0.24999   0.00000  Uiso   1.00
C215   C     0.33301   0.42076   0.25077   0.00000  Uiso   1.00
C216   C     0.00032   0.57924   0.24922   0.00000  Uiso   1.00
O217   O     0.01852   0.50001   0.31492   0.00000  Uiso   1.00
O218   O     0.31481   0.49999   0.18509   0.00000  Uiso   1.00
O219   O     0.27267   0.50000   0.31492   0.00000  Uiso   1.00
O220   O     0.06067   0.50000   0.18508   0.00000  Uiso   1.00
C221   C     0.30617   0.50017   0.33613   0.00000  Uiso   1.00
C222   C     0.02714   0.49959   0.16391   0.00000  Uiso   1.00
Cu223  Cu    0.04689   0.50001   0.25000   0.00000  Uiso   1.00
Cu224  Cu    0.28645   0.49999   0.25000   0.00000  Uiso   1.00
C225   C     0.29114   0.50143   0.38540   0.00000  Uiso   1.00
C226   C     0.04220   0.49592   0.11486   0.00000  Uiso   1.00
C227   C     0.30737   0.51599   0.45666   0.00000  Uiso   1.00
C228   C     0.02733   0.47401   0.04511   0.00000  Uiso   1.00
C229   C     0.32364   0.51212   0.41026   0.00000  Uiso   1.00
C230   C     0.01037   0.48163   0.09087   0.00000  Uiso   1.00
C231   C     0.24255   0.49382   0.40745   0.00000  Uiso   1.00
C232   C     0.09071   0.50339   0.09254   0.00000  Uiso   1.00
C233   C     0.22508   0.49742   0.45430   0.00000  Uiso   1.00
C234   C     0.10931   0.49420   0.04682   0.00000  Uiso   1.00
C235   C     0.25847   0.50911   0.47876   0.00000  Uiso   1.00
C236   C     0.07640   0.48002   0.02300   0.00000  Uiso   1.00
C237   C     0.17535   0.49093   0.47727   0.00000  Uiso   1.00
C238   C     0.15947   0.49847   0.02429   0.00000  Uiso   1.00
C239   C     0.19441   0.50916   0.04738   0.00000  Uiso   1.00
C240   C     0.14104   0.47691   0.45492   0.00000  Uiso   1.00
C241   C     0.24280   0.51429   0.02496   0.00000  Uiso   1.00
C242   C     0.09272   0.47147   0.47748   0.00000  Uiso   1.00
H243   H     0.26813   0.52281   0.04401   0.00000  Uiso   1.00
H244   H     0.06787   0.46041   0.45903   0.00000  Uiso   1.00
H245   H     0.11314   0.51634   0.11196   0.00000  Uiso   1.00
H246   H     0.21887   0.48618   0.38689   0.00000  Uiso   1.00
H247   H     0.30614   0.47530   0.10762   0.00000  Uiso   1.00
H248   H     0.02788   0.51867   0.39381   0.00000  Uiso   1.00
H249   H     0.33288   0.52522   0.47520   0.00000  Uiso   1.00
H250   H     0.00227   0.46249   0.02717   0.00000  Uiso   1.00
H251   H     0.18599   0.51321   0.08315   0.00000  Uiso   1.00
H252   H     0.15021   0.46885   0.41999   0.00000  Uiso   1.00
C253   C     0.28969   0.35387   0.26953   0.00000  Uiso   1.00
C254   C     0.04364   0.64613   0.23044   0.00000  Uiso   1.00
C255   C     0.29074   0.64449   0.26806   0.00000  Uiso   1.00
C256   C     0.04259   0.35551   0.23190   0.00000  Uiso   1.00
H257   H     0.25773   0.62745   0.28277   0.00000  Uiso   1.00
H258   H     0.07560   0.37256   0.21719   0.00000  Uiso   1.00
C259   C     0.00069   0.62387   0.24888   0.00000  Uiso   1.00
C260   C     0.33265   0.37613   0.25109   0.00000  Uiso   1.00
C261   C     0.18359   0.47518   0.27880   0.00000  Uiso   1.00
C262   C     0.14976   0.52481   0.22119   0.00000  Uiso   1.00
H263   H     0.19597   0.45529   0.30181   0.00000  Uiso   1.00
H264   H     0.13739   0.54467   0.19814   0.00000  Uiso   1.00
C265   C     0.13407   0.47499   0.27891   0.00000  Uiso   1.00
C266   C     0.19929   0.52494   0.22101   0.00000  Uiso   1.00
N267   N     0.11736   0.50001   0.24999   0.00000  Uiso   1.00
N268   N     0.21597   0.49999   0.25001   0.00000  Uiso   1.00
N269   N     0.24534   0.37436   0.29079   0.00000  Uiso   1.00
H270   H     0.21926   0.36592   0.27429   0.00000  Uiso   1.00
H271   H     0.23374   0.36375   0.32399   0.00000  Uiso   1.00
N272   N     0.08801   0.62565   0.20922   0.00000  Uiso   1.00
H273   H     0.11406   0.63405   0.22578   0.00000  Uiso   1.00
H274   H     0.09968   0.63627   0.17602   0.00000  Uiso   1.00
N275   N     0.10198   0.44798   0.30948   0.00000  Uiso   1.00
O276   O     0.10081   0.40934   0.29913   0.00000  Uiso   1.00
O277   O     0.08739   0.45823   0.35150   0.00000  Uiso   1.00
N278   N     0.23152   0.55163   0.19014   0.00000  Uiso   1.00
O279   O     0.23268   0.59042   0.19988   0.00000  Uiso   1.00
O280   O     0.24659   0.54074   0.14836   0.00000  Uiso   1.00
O281   O     0.37291   0.43989   0.25000   0.00000  Uiso   1.00
O282   O     0.62709   0.56011   0.25000   0.00000  Uiso   1.00
O283   O     0.62706   0.43988   0.25001   0.00000  Uiso   1.00
O284   O     0.37294   0.56012   0.24999   0.00000  Uiso   1.00
C285   C     0.66634   0.42076   0.25077   0.00000  Uiso   1.00
C286   C     0.33366   0.57924   0.24922   0.00000  Uiso   1.00
O287   O     0.35186   0.50001   0.31492   0.00000  Uiso   1.00
O288   O     0.64814   0.49999   0.18509   0.00000  Uiso   1.00
O289   O     0.60600   0.50000   0.31492   0.00000  Uiso   1.00
O290   O     0.39400   0.50000   0.18508   0.00000  Uiso   1.00
C291   C     0.63951   0.50017   0.33613   0.00000  Uiso   1.00
C292   C     0.36048   0.49959   0.16391   0.00000  Uiso   1.00
Cu293  Cu    0.38022   0.50001   0.25000   0.00000  Uiso   1.00
Cu294  Cu    0.61978   0.49999   0.25000   0.00000  Uiso   1.00
C295   C     0.62448   0.50143   0.38540   0.00000  Uiso   1.00
C296   C     0.37554   0.49592   0.11486   0.00000  Uiso   1.00
C297   C     0.64070   0.51599   0.45666   0.00000  Uiso   1.00
C298   C     0.36067   0.47401   0.04511   0.00000  Uiso   1.00
C299   C     0.65697   0.51212   0.41026   0.00000  Uiso   1.00
C300   C     0.34371   0.48163   0.09087   0.00000  Uiso   1.00
C301   C     0.57589   0.49382   0.40745   0.00000  Uiso   1.00
C302   C     0.42404   0.50339   0.09254   0.00000  Uiso   1.00
C303   C     0.55841   0.49742   0.45430   0.00000  Uiso   1.00
C304   C     0.44265   0.49420   0.04682   0.00000  Uiso   1.00
C305   C     0.59180   0.50911   0.47876   0.00000  Uiso   1.00
C306   C     0.40973   0.48002   0.02300   0.00000  Uiso   1.00
C307   C     0.50868   0.49093   0.47727   0.00000  Uiso   1.00
C308   C     0.49280   0.49847   0.02429   0.00000  Uiso   1.00
C309   C     0.52775   0.50916   0.04738   0.00000  Uiso   1.00
C310   C     0.47437   0.47691   0.45492   0.00000  Uiso   1.00
C311   C     0.57614   0.51429   0.02496   0.00000  Uiso   1.00
C312   C     0.42605   0.47147   0.47748   0.00000  Uiso   1.00
H313   H     0.60147   0.52281   0.04401   0.00000  Uiso   1.00
H314   H     0.40120   0.46041   0.45903   0.00000  Uiso   1.00
H315   H     0.44647   0.51634   0.11196   0.00000  Uiso   1.00
H316   H     0.55220   0.48618   0.38689   0.00000  Uiso   1.00
H317   H     0.63948   0.47530   0.10762   0.00000  Uiso   1.00
H318   H     0.36121   0.51867   0.39381   0.00000  Uiso   1.00
H319   H     0.66622   0.52522   0.47520   0.00000  Uiso   1.00
H320   H     0.33560   0.46249   0.02717   0.00000  Uiso   1.00
H321   H     0.51932   0.51321   0.08315   0.00000  Uiso   1.00
H322   H     0.48354   0.46885   0.41999   0.00000  Uiso   1.00
C323   C     0.62302   0.35387   0.26953   0.00000  Uiso   1.00
C324   C     0.37698   0.64613   0.23044   0.00000  Uiso   1.00
C325   C     0.62407   0.64449   0.26806   0.00000  Uiso   1.00
C326   C     0.37592   0.35551   0.23190   0.00000  Uiso   1.00
H327   H     0.59106   0.62745   0.28277   0.00000  Uiso   1.00
H328   H     0.40893   0.37256   0.21719   0.00000  Uiso   1.00
C329   C     0.33402   0.62387   0.24888   0.00000  Uiso   1.00
C330   C     0.66598   0.37613   0.25109   0.00000  Uiso   1.00
C331   C     0.51692   0.47518   0.27880   0.00000  Uiso   1.00
C332   C     0.48309   0.52481   0.22119   0.00000  Uiso   1.00
H333   H     0.52930   0.45529   0.30181   0.00000  Uiso   1.00
H334   H     0.47072   0.54467   0.19814   0.00000  Uiso   1.00
C335   C     0.46741   0.47499   0.27891   0.00000  Uiso   1.00
C336   C     0.53263   0.52494   0.22101   0.00000  Uiso   1.00
N337   N     0.45069   0.50001   0.24999   0.00000  Uiso   1.00
N338   N     0.54931   0.49999   0.25001   0.00000  Uiso   1.00
N339   N     0.57867   0.37436   0.29079   0.00000  Uiso   1.00
H340   H     0.55259   0.36592   0.27429   0.00000  Uiso   1.00
H341   H     0.56707   0.36375   0.32399   0.00000  Uiso   1.00
N342   N     0.42135   0.62565   0.20922   0.00000  Uiso   1.00
H343   H     0.44739   0.63405   0.22578   0.00000  Uiso   1.00
H344   H     0.43301   0.63627   0.17602   0.00000  Uiso   1.00
N345   N     0.43531   0.44798   0.30948   0.00000  Uiso   1.00
O346   O     0.43414   0.40934   0.29913   0.00000  Uiso   1.00
O347   O     0.42072   0.45823   0.35150   0.00000  Uiso   1.00
N348   N     0.56485   0.55163   0.19014   0.00000  Uiso   1.00
O349   O     0.56601   0.59042   0.19988   0.00000  Uiso   1.00
O350   O     0.57992   0.54074   0.14836   0.00000  Uiso   1.00
O351   O     0.70625   0.43989   0.25000   0.00000  Uiso   1.00
O352   O     0.96042   0.56011   0.25000   0.00000  Uiso   1.00
O353   O     0.96039   0.43988   0.25001   0.00000  Uiso   1.00
O354   O     0.70628   0.56012   0.24999   0.00000  Uiso   1.00
C355   C     0.99968   0.42076   0.25077   0.00000  Uiso   1.00
C356   C     0.66699   0.57924   0.24922   0.00000  Uiso   1.00
O357   O     0.68519   0.50001   0.31492   0.00000  Uiso   1.00
O358   O     0.98148   0.49999   0.18509   0.00000  Uiso   1.00
O359   O     0.93933   0.50000   0.31492   0.00000  Uiso   1.00
O360   O     0.72733   0.50000   0.18508   0.00000  Uiso   1.00
C361   C     0.97284   0.50017   0.33613   0.00000  Uiso   1.00
C362   C     0.69381   0.49959   0.16391   0.00000  Uiso   1.00
Cu363  Cu    0.71355   0.50001   0.25000   0.00000  Uiso   1.00
Cu364  Cu    0.95311   0.49999   0.25000   0.00000  Uiso   1.00
C365   C     0.95781   0.50143   0.38540   0.00000  Uiso   1.00
C366   C     0.70887   0.49592   0.11486   0.00000  Uiso   1.00
C367   C     0.97403   0.51599   0.45666   0.00000  Uiso   1.00
C368   C     0.69400   0.47401   0.04511   0.00000  Uiso   1.00
C369   C     0.99031   0.51212   0.41026   0.00000  Uiso   1.00
C370   C     0.67704   0.48163   0.09087   0.00000  Uiso   1.00
C371   C     0.90922   0.49382   0.40745   0.00000  Uiso   1.00
C372   C     0.75737   0.50339   0.09254   0.00000  Uiso   1.00
C373   C     0.89174   0.49742   0.45430   0.00000  Uiso   1.00
C374   C     0.77598   0.49420   0.04682   0.00000  Uiso   1.00
C375   C     0.92514   0.50911   0.47876   0.00000  Uiso   1.00
C376   C     0.74306   0.48002   0.02300   0.00000  Uiso   1.00
C377   C     0.84202   0.49093   0.47727   0.00000  Uiso   1.00
C378   C     0.82614   0.49847   0.02429   0.00000  Uiso   1.00
C379   C     0.86108   0.50916   0.04738   0.00000  Uiso   1.00
C380   C     0.80771   0.47691   0.45492   0.00000  Uiso   1.00
C381   C     0.90947   0.51429   0.02496   0.00000  Uiso   1.00
C382   C     0.75938   0.47147   0.47748   0.00000  Uiso   1.00
H383   H     0.93480   0.52281   0.04401   0.00000  Uiso   1.00
H384   H     0.73454   0.46041   0.45903   0.00000  Uiso   1.00
H385   H     0.77980   0.51634   0.11196   0.00000  Uiso   1.00
H386   H     0.88554   0.48618   0.38689   0.00000  Uiso   1.00
H387   H     0.97281   0.47530   0.10762   0.00000  Uiso   1.00
H388   H     0.69455   0.51867   0.39381   0.00000  Uiso   1.00
H389   H     0.99955   0.52522   0.47520   0.00000  Uiso   1.00
H390   H     0.66894   0.46249   0.02717   0.00000  Uiso   1.00
H391   H     0.85266   0.51321   0.08315   0.00000  Uiso   1.00
H392   H     0.81687   0.46885   0.41999   0.00000  Uiso   1.00
C393   C     0.95636   0.35387   0.26953   0.00000  Uiso   1.00
C394   C     0.71031   0.64613   0.23044   0.00000  Uiso   1.00
C395   C     0.95741   0.64449   0.26806   0.00000  Uiso   1.00
C396   C     0.70926   0.35551   0.23190   0.00000  Uiso   1.00
H397   H     0.92440   0.62745   0.28277   0.00000  Uiso   1.00
H398   H     0.74227   0.37256   0.21719   0.00000  Uiso   1.00
C399   C     0.66735   0.62387   0.24888   0.00000  Uiso   1.00
C400   C     0.99931   0.37613   0.25109   0.00000  Uiso   1.00
C401   C     0.85025   0.47518   0.27880   0.00000  Uiso   1.00
C402   C     0.81643   0.52481   0.22119   0.00000  Uiso   1.00
H403   H     0.86264   0.45529   0.30181   0.00000  Uiso   1.00
H404   H     0.80406   0.54467   0.19814   0.00000  Uiso   1.00
C405   C     0.80074   0.47499   0.27891   0.00000  Uiso   1.00
C406   C     0.86596   0.52494   0.22101   0.00000  Uiso   1.00
N407   N     0.78403   0.50001   0.24999   0.00000  Uiso   1.00
N408   N     0.88264   0.49999   0.25001   0.00000  Uiso   1.00
N409   N     0.91200   0.37436   0.29079   0.00000  Uiso   1.00
H410   H     0.88592   0.36592   0.27429   0.00000  Uiso   1.00
H411   H     0.90040   0.36375   0.32399   0.00000  Uiso   1.00
N412   N     0.75468   0.62565   0.20922   0.00000  Uiso   1.00
H413   H     0.78072   0.63405   0.22578   0.00000  Uiso   1.00
H414   H     0.76634   0.63627   0.17602   0.00000  Uiso   1.00
N415   N     0.76864   0.44798   0.30948   0.00000  Uiso   1.00
O416   O     0.76748   0.40934   0.29913   0.00000  Uiso   1.00
O417   O     0.75405   0.45823   0.35150   0.00000  Uiso   1.00
N418   N     0.89818   0.55163   0.19014   0.00000  Uiso   1.00
O419   O     0.89935   0.59042   0.19988   0.00000  Uiso   1.00
O420   O     0.91326   0.54074   0.14836   0.00000  Uiso   1.00
O421   O     0.03958   0.77322   0.25000   0.00000  Uiso   1.00
O422   O     0.29375   0.89345   0.25000   0.00000  Uiso   1.00
O423   O     0.29372   0.77321   0.25001   0.00000  Uiso   1.00
O424   O     0.03961   0.89346   0.24999   0.00000  Uiso   1.00
C425   C     0.33301   0.75409   0.25077   0.00000  Uiso   1.00
C426   C     0.00032   0.91257   0.24922   0.00000  Uiso   1.00
O427   O     0.01852   0.83334   0.31492   0.00000  Uiso   1.00
O428   O     0.31481   0.83332   0.18509   0.00000  Uiso   1.00
O429   O     0.27267   0.83333   0.31492   0.00000  Uiso   1.00
O430   O     0.06067   0.83333   0.18508   0.00000  Uiso   1.00
C431   C     0.30617   0.83350   0.33613   0.00000  Uiso   1.00
C432   C     0.02714   0.83293   0.16391   0.00000  Uiso   1.00
Cu433  Cu    0.04689   0.83334   0.25000   0.00000  Uiso   1.00
Cu434  Cu    0.28645   0.83333   0.25000   0.00000  Uiso   1.00
C435   C     0.29114   0.83477   0.38540   0.00000  Uiso   1.00
C436   C     0.04220   0.82926   0.11486   0.00000  Uiso   1.00
C437   C     0.30737   0.84933   0.45666   0.00000  Uiso   1.00
C438   C     0.02733   0.80734   0.04511   0.00000  Uiso   1.00
C439   C     0.32364   0.84545   0.41026   0.00000  Uiso   1.00
C440   C     0.01037   0.81496   0.09087   0.00000  Uiso   1.00
C441   C     0.24255   0.82715   0.40745   0.00000  Uiso   1.00
C442   C     0.09071   0.83672   0.09254   0.00000  Uiso   1.00
C443   C     0.22508   0.83075   0.45430   0.00000  Uiso   1.00
C444   C     0.10931   0.82753   0.04682   0.00000  Uiso   1.00
C445   C     0.25847   0.84245   0.47876   0.00000  Uiso   1.00
C446   C     0.07640   0.81335   0.02300   0.00000  Uiso   1.00
C447   C     0.17535   0.82426   0.47727   0.00000  Uiso   1.00
C448   C     0.15947   0.83180   0.02429   0.00000  Uiso   1.00
C449   C     0.19441   0.84250   0.04738   0.00000  Uiso   1.00
C450   C     0.14104   0.81024   0.45492   0.00000  Uiso   1.00
C451   C     0.24280   0.84762   0.02496   0.00000  Uiso   1.00
C452   C     0.09272   0.80481   0.47748   0.00000  Uiso   1.00
H453   H     0.26813   0.85615   0.04401   0.00000  Uiso   1.00
H454   H     0.06787   0.79374   0.45903   0.00000  Uiso   1.00
H455   H     0.11314   0.84967   0.11196   0.00000  Uiso   1.00
H456   H     0.21887   0.81951   0.38689   0.00000  Uiso   1.00
H457   H     0.30614   0.80863   0.10762   0.00000  Uiso   1.00
H458   H     0.02788   0.85200   0.39381   0.00000  Uiso   1.00
H459   H     0.33288   0.85855   0.47520   0.00000  Uiso   1.00
H460   H     0.00227   0.79582   0.02717   0.00000  Uiso   1.00
H461   H     0.18599   0.84654   0.08315   0.00000  Uiso   1.00
H462   H     0.15021   0.80218   0.41999   0.00000  Uiso   1.00
C463   C     0.28969   0.68721   0.26953   0.00000  Uiso   1.00
C464   C     0.04364   0.97946   0.23044   0.00000  Uiso   1.00
C465   C     0.29074   0.97782   0.26806   0.00000  Uiso   1.00
C466   C     0.04259   0.68885   0.23190   0.00000  Uiso   1.00
H467   H     0.25773   0.96078   0.28277   0.00000  Uiso   1.00
H468   H     0.07560   0.70589   0.21719   0.00000  Uiso   1.00
C469   C     0.00069   0.95720   0.24888   0.00000  Uiso   1.00
C470   C     0.33265   0.70947   0.25109   0.00000  Uiso   1.00
C471   C     0.18359   0.80851   0.27880   0.00000  Uiso   1.00
C472   C     0.14976   0.85815   0.22119   0.00000  Uiso   1.00
H473   H     0.19597   0.78862   0.30181   0.00000  Uiso   1.00
H474   H     0.13739   0.87801   0.19814   0.00000  Uiso   1.00
C475   C     0.13407   0.80832   0.27891   0.00000  Uiso   1.00
C476   C     0.19929   0.85827   0.22101   0.00000  Uiso   1.00
N477   N     0.11736   0.83334   0.24999   0.00000  Uiso   1.00
N478   N     0.21597   0.83332   0.25001   0.00000  Uiso   1.00
N479   N     0.24534   0.70769   0.29079   0.00000  Uiso   1.00
H480   H     0.21926   0.69926   0.27429   0.00000  Uiso   1.00
H481   H     0.23374   0.69709   0.32399   0.00000  Uiso   1.00
N482   N     0.08801   0.95898   0.20922   0.00000  Uiso   1.00
H483   H     0.11406   0.96739   0.22578   0.00000  Uiso   1.00
H484   H     0.09968   0.96961   0.17602   0.00000  Uiso   1.00
N485   N     0.10198   0.78131   0.30948   0.00000  Uiso   1.00
O486   O     0.10081   0.74267   0.29913   0.00000  Uiso   1.00
O487   O     0.08739   0.79156   0.35150   0.00000  Uiso   1.00
N488   N     0.23152   0.88496   0.19014   0.00000  Uiso   1.00
O489   O     0.23268   0.92375   0.19988   0.00000  Uiso   1.00
O490   O     0.24659   0.87407   0.14836   0.00000  Uiso   1.00
O491   O     0.37291   0.77322   0.25000   0.00000  Uiso   1.00
O492   O     0.62709   0.89345   0.25000   0.00000  Uiso   1.00
O493   O     0.62706   0.77321   0.25001   0.00000  Uiso   1.00
O494   O     0.37294   0.89346   0.24999   0.00000  Uiso   1.00
C495   C     0.66634   0.75409   0.25077   0.00000  Uiso   1.00
C496   C     0.33366   0.91257   0.24922   0.00000  Uiso   1.00
O497   O     0.35186   0.83334   0.31492   0.00000  Uiso   1.00
O498   O     0.64814   0.83332   0.18509   0.00000  Uiso   1.00
O499   O     0.60600   0.83333   0.31492   0.00000  Uiso   1.00
O500   O     0.39400   0.83333   0.18508   0.00000  Uiso   1.00
C501   C     0.63951   0.83350   0.33613   0.00000  Uiso   1.00
C502   C     0.36048   0.83293   0.16391   0.00000  Uiso   1.00
Cu503  Cu    0.38022   0.83334   0.25000   0.00000  Uiso   1.00
Cu504  Cu    0.61978   0.83333   0.25000   0.00000  Uiso   1.00
C505   C     0.62448   0.83477   0.38540   0.00000  Uiso   1.00
C506   C     0.37554   0.82926   0.11486   0.00000  Uiso   1.00
C507   C     0.64070   0.84933   0.45666   0.00000  Uiso   1.00
C508   C     0.36067   0.80734   0.04511   0.00000  Uiso   1.00
C509   C     0.65697   0.84545   0.41026   0.00000  Uiso   1.00
C510   C     0.34371   0.81496   0.09087   0.00000  Uiso   1.00
C511   C     0.57589   0.82715   0.40745   0.00000  Uiso   1.00
C512   C     0.42404   0.83672   0.09254   0.00000  Uiso   1.00
C513   C     0.55841   0.83075   0.45430   0.00000  Uiso   1.00
C514   C     0.44265   0.82753   0.04682   0.00000  Uiso   1.00
C515   C     0.59180   0.84245   0.47876   0.00000  Uiso   1.00
C516   C     0.40973   0.81335   0.02300   0.00000  Uiso   1.00
C517   C     0.50868   0.82426   0.47727   0.00000  Uiso   1.00
C518   C     0.49280   0.83180   0.02429   0.00000  Uiso   1.00
C519   C     0.52775   0.84250   0.04738   0.00000  Uiso   1.00
C520   C     0.47437   0.81024   0.45492   0.00000  Uiso   1.00
C521   C     0.57614   0.84762   0.02496   0.00000  Uiso   1.00
C522   C     0.42605   0.80481   0.47748   0.00000  Uiso   1.00
H523   H     0.60147   0.85615   0.04401   0.00000  Uiso   1.00
H524   H     0.40120   0.79374   0.45903   0.00000  Uiso   1.00
H525   H     0.44647   0.84967   0.11196   0.00000  Uiso   1.00
H526   H     0.55220   0.81951   0.38689   0.00000  Uiso   1.00
H527   H     0.63948   0.80863   0.10762   0.00000  Uiso   1.00
H528   H     0.36121   0.85200   0.39381   0.00000  Uiso   1.00
H529   H     0.66622   0.85855   0.47520   0.00000  Uiso   1.00
H530   H     0.33560   0.79582   0.02717   0.00000  Uiso   1.00
H531   H     0.51932   0.84654   0.08315   0.00000  Uiso   1.00
H532   H     0.48354   0.80218   0.41999   0.00000  Uiso   1.00
C533   C     0.62302   0.68721   0.26953   0.00000  Uiso   1.00
C534   C     0.37698   0.97946   0.23044   0.00000  Uiso   1.00
C535   C     0.62407   0.97782   0.26806   0.00000  Uiso   1.00
C536   C     0.37592   0.68885   0.23190   0.00000  Uiso   1.00
H537   H     0.59106   0.96078   0.28277   0.00000  Uiso   1.00
H538   H     0.40893   0.70589   0.21719   0.00000  Uiso   1.00
C539   C     0.33402   0.95720   0.24888   0.00000  Uiso   1.00
C540   C     0.66598   0.70947   0.25109   0.00000  Uiso   1.00
C541   C     0.51692   0.80851   0.27880   0.00000  Uiso   1.00
C542   C     0.48309   0.85815   0.22119   0.00000  Uiso   1.00
H543   H     0.52930   0.78862   0.30181   0.00000  Uiso   1.00
H544   H     0.47072   0.87801   0.19814   0.00000  Uiso   1.00
C545   C     0.46741   0.80832   0.27891   0.00000  Uiso   1.00
C546   C     0.53263   0.85827   0.22101   0.00000  Uiso   1.00
N547   N     0.45069   0.83334   0.24999   0.00000  Uiso   1.00
N548   N     0.54931   0.83332   0.25001   0.00000  Uiso   1.00
N549   N     0.57867   0.70769   0.29079   0.00000  Uiso   1.00
H550   H     0.55259   0.69926   0.27429   0.00000  Uiso   1.00
H551   H     0.56707   0.69709   0.32399   0.00000  Uiso   1.00
N552   N     0.42135   0.95898   0.20922   0.00000  Uiso   1.00
H553   H     0.44739   0.96739   0.22578   0.00000  Uiso   1.00
H554   H     0.43301   0.96961   0.17602   0.00000  Uiso   1.00
N555   N     0.43531   0.78131   0.30948   0.00000  Uiso   1.00
O556   O     0.43414   0.74267   0.29913   0.00000  Uiso   1.00
O557   O     0.42072   0.79156   0.35150   0.00000  Uiso   1.00
N558   N     0.56485   0.88496   0.19014   0.00000  Uiso   1.00
O559   O     0.56601   0.92375   0.19988   0.00000  Uiso   1.00
O560   O     0.57992   0.87407   0.14836   0.00000  Uiso   1.00
O561   O     0.70625   0.77322   0.25000   0.00000  Uiso   1.00
O562   O     0.96042   0.89345   0.25000   0.00000  Uiso   1.00
O563   O     0.96039   0.77321   0.25001   0.00000  Uiso   1.00
O564   O     0.70628   0.89346   0.24999   0.00000  Uiso   1.00
C565   C     0.99968   0.75409   0.25077   0.00000  Uiso   1.00
C566   C     0.66699   0.91257   0.24922   0.00000  Uiso   1.00
O567   O     0.68519   0.83334   0.31492   0.00000  Uiso   1.00
O568   O     0.98148   0.83332   0.18509   0.00000  Uiso   1.00
O569   O     0.93933   0.83333   0.31492   0.00000  Uiso   1.00
O570   O     0.72733   0.83333   0.18508   0.00000  Uiso   1.00
C571   C     0.97284   0.83350   0.33613   0.00000  Uiso   1.00
C572   C     0.69381   0.83293   0.16391   0.00000  Uiso   1.00
Cu573  Cu    0.71355   0.83334   0.25000   0.00000  Uiso   1.00
Cu574  Cu    0.95311   0.83333   0.25000   0.00000  Uiso   1.00
C575   C     0.95781   0.83477   0.38540   0.00000  Uiso   1.00
C576   C     0.70887   0.82926   0.11486   0.00000  Uiso   1.00
C577   C     0.97403   0.84933   0.45666   0.00000  Uiso   1.00
C578   C     0.69400   0.80734   0.04511   0.00000  Uiso   1.00
C579   C     0.99031   0.84545   0.41026   0.00000  Uiso   1.00
C580   C     0.67704   0.81496   0.09087   0.00000  Uiso   1.00
C581   C     0.90922   0.82715   0.40745   0.00000  Uiso   1.00
C582   C     0.75737   0.83672   0.09254   0.00000  Uiso   1.00
C583   C     0.89174   0.83075   0.45430   0.00000  Uiso   1.00
C584   C     0.77598   0.82753   0.04682   0.00000  Uiso   1.00
C585   C     0.92514   0.84245   0.47876   0.00000  Uiso   1.00
C586   C     0.74306   0.81335   0.02300   0.00000  Uiso   1.00
C587   C     0.84202   0.82426   0.47727   0.00000  Uiso   1.00
C588   C     0.82614   0.83180   0.02429   0.00000  Uiso   1.00
C589   C     0.86108   0.84250   0.04738   0.00000  Uiso   1.00
C590   C     0.80771   0.81024   0.45492   0.00000  Uiso   1.00
C591   C     0.90947   0.84762   0.02496   0.00000  Uiso   1.00
C592   C     0.75938   0.80481   0.47748   0.00000  Uiso   1.00
H593   H     0.93480   0.85615   0.04401   0.00000  Uiso   1.00
H594   H     0.73454   0.79374   0.45903   0.00000  Uiso   1.00
H595   H     0.77980   0.84967   0.11196   0.00000  Uiso   1.00
H596   H     0.88554   0.81951   0.38689   0.00000  Uiso   1.00
H597   H     0.97281   0.80863   0.10762   0.00000  Uiso   1.00
H598   H     0.69455   0.85200   0.39381   0.00000  Uiso   1.00
H599   H     0.99955   0.85855   0.47520   0.00000  Uiso   1.00
H600   H     0.66894   0.79582   0.02717   0.00000  Uiso   1.00
H601   H     0.85266   0.84654   0.08315   0.00000  Uiso   1.00
H602   H     0.81687   0.80218   0.41999   0.00000  Uiso   1.00
C603   C     0.95636   0.68721   0.26953   0.00000  Uiso   1.00
C604   C     0.71031   0.97946   0.23044   0.00000  Uiso   1.00
C605   C     0.95741   0.97782   0.26806   0.00000  Uiso   1.00
C606   C     0.70926   0.68885   0.23190   0.00000  Uiso   1.00
H607   H     0.92440   0.96078   0.28277   0.00000  Uiso   1.00
H608   H     0.74227   0.70589   0.21719   0.00000  Uiso   1.00
C609   C     0.66735   0.95720   0.24888   0.00000  Uiso   1.00
C610   C     0.99931   0.70947   0.25109   0.00000  Uiso   1.00
C611   C     0.85025   0.80851   0.27880   0.00000  Uiso   1.00
C612   C     0.81643   0.85815   0.22119   0.00000  Uiso   1.00
H613   H     0.86264   0.78862   0.30181   0.00000  Uiso   1.00
H614   H     0.80406   0.87801   0.19814   0.00000  Uiso   1.00
C615   C     0.80074   0.80832   0.27891   0.00000  Uiso   1.00
C616   C     0.86596   0.85827   0.22101   0.00000  Uiso   1.00
N617   N     0.78403   0.83334   0.24999   0.00000  Uiso   1.00
N618   N     0.88264   0.83332   0.25001   0.00000  Uiso   1.00
N619   N     0.91200   0.70769   0.29079   0.00000  Uiso   1.00
H620   H     0.88592   0.69926   0.27429   0.00000  Uiso   1.00
H621   H     0.90040   0.69709   0.32399   0.00000  Uiso   1.00
N622   N     0.75468   0.95898   0.20922   0.00000  Uiso   1.00
H623   H     0.78072   0.96739   0.22578   0.00000  Uiso   1.00
H624   H     0.76634   0.96961   0.17602   0.00000  Uiso   1.00
N625   N     0.76864   0.78131   0.30948   0.00000  Uiso   1.00
O626   O     0.76748   0.74267   0.29913   0.00000  Uiso   1.00
O627   O     0.75405   0.79156   0.35150   0.00000  Uiso   1.00
N628   N     0.89818   0.88496   0.19014   0.00000  Uiso   1.00
O629   O     0.89935   0.92375   0.19988   0.00000  Uiso   1.00
O630   O     0.91326   0.87407   0.14836   0.00000  Uiso   1.00
O631   O     0.03958   0.10655   0.75000   0.00000  Uiso   1.00
O632   O     0.29375   0.22678   0.75000   0.00000  Uiso   1.00
O633   O     0.29372   0.10654   0.75001   0.00000  Uiso   1.00
O634   O     0.03961   0.22679   0.74999   0.00000  Uiso   1.00
C635   C     0.33301   0.08743   0.75077   0.00000  Uiso   1.00
C636   C     0.00032   0.24591   0.74922   0.00000  Uiso   1.00
O637   O     0.01852   0.16668   0.81492   0.00000  Uiso   1.00
O638   O     0.31481   0.16666   0.68509   0.00000  Uiso   1.00
O639   O     0.27267   0.16667   0.81492   0.00000  Uiso   1.00
O640   O     0.06067   0.16667   0.68508   0.00000  Uiso   1.00
C641   C     0.30617   0.16684   0.83613   0.00000  Uiso   1.00
C642   C     0.02714   0.16626   0.66391   0.00000  Uiso   1.00
Cu643  Cu    0.04689   0.16667   0.75000   0.00000  Uiso   1.00
Cu644  Cu    0.28645   0.16666   0.75000   0.00000  Uiso   1.00
C645   C     0.29114   0.16810   0.88540   0.00000  Uiso   1.00
C646   C     0.04220   0.16259   0.61486   0.00000  Uiso   1.00
C647   C     0.30737   0.18266   0.95666   0.00000  Uiso   1.00
C648   C     0.02733   0.14067   0.54511   0.00000  Uiso   1.00
C649   C     0.32364   0.17878   0.91026   0.00000  Uiso   1.00
C650   C     0.01037   0.14830   0.59087   0.00000  Uiso   1.00
C651   C     0.24255   0.16048   0.90745   0.00000  Uiso   1.00
C652   C     0.09071   0.17006   0.59254   0.00000  Uiso   1.00
C653   C     0.22508   0.16409   0.95430   0.00000  Uiso   1.00
C654   C     0.10931   0.16087   0.54682   0.00000  Uiso   1.00
C655   C     0.25847   0.17578   0.97876   0.00000  Uiso   1.00
C656   C     0.07640   0.14669   0.52300   0.00000  Uiso   1.00
C657   C     0.17535   0.15760   0.97727   0.00000  Uiso   1.00
C658   C     0.15947   0.16514   0.52429   0.00000  Uiso   1.00
C659   C     0.19441   0.17583   0.54738   0.00000  Uiso   1.00
C660   C     0.14104   0.14358   0.95492   0.00000  Uiso   1.00
C661   C     0.24280   0.18095   0.52496   0.00000  Uiso   1.00
C662   C     0.09272   0.13814   0.97748   0.00000  Uiso   1.00
H663   H     0.26813   0.18948   0.54401   0.00000  Uiso   1.00
H664   H     0.06787   0.12707   0.95903   0.00000  Uiso   1.00
H665   H     0.11314   0.18301   0.61196   0.00000  Uiso   1.00
H666   H     0.21887   0.15284   0.88689   0.00000  Uiso   1.00
H667   H     0.30614   0.14197   0.60762   0.00000  Uiso   1.00
H668   H     0.02788   0.18533   0.89381   0.00000  Uiso   1.00
H669   H     0.33288   0.19188   0.97520   0.00000  Uiso   1.00
H670   H     0.00227   0.12915   0.52717   0.00000  Uiso   1.00
H671   H     0.18599   0.17987   0.58315   0.00000  Uiso   1.00
H672   H     0.15021   0.13552   0.91999   0.00000  Uiso   1.00
C673   C     0.28969   0.02054   0.76953   0.00000  Uiso   1.00
C674   C     0.04364   0.31280   0.73044   0.00000  Uiso   1.00
C675   C     0.29074   0.31116   0.76806   0.00000  Uiso   1.00
C676   C     0.04259   0.02218   0.73190   0.00000  Uiso   1.00
H677   H     0.25773   0.29411   0.78277   0.00000  Uiso   1.00
H678   H     0.07560   0.03922   0.71719   0.00000  Uiso   1.00
C679   C     0.00069   0.29054   0.74888   0.00000  Uiso   1.00
C680   C     0.33265   0.04280   0.75109   0.00000  Uiso   1.00
C681   C     0.18359   0.14185   0.77880   0.00000  Uiso   1.00
C682   C     0.14976   0.19148   0.72119   0.00000  Uiso   1.00
H683   H     0.19597   0.12195   0.80181   0.00000  Uiso   1.00
H684   H     0.13739   0.21134   0.69814   0.00000  Uiso   1.00
C685   C     0.13407   0.14165   0.77891   0.00000  Uiso   1.00
C686   C     0.19929   0.19160   0.72101   0.00000  Uiso   1.00
N687   N     0.11736   0.16668   0.74999   0.00000  Uiso   1.00
N688   N     0.21597   0.16666   0.75001   0.00000  Uiso   1.00
N689   N     0.24534   0.04102   0.79079   0.00000  Uiso   1.00
H690   H     0.21926   0.03259   0.77429   0.00000  Uiso   1.00
H691   H     0.23374   0.03042   0.82399   0.00000  Uiso   1.00
N692   N     0.08801   0.29231   0.70922   0.00000  Uiso   1.00
H693   H     0.11406   0.30072   0.72578   0.00000  Uiso   1.00
H694   H     0.09968   0.30294   0.67602   0.00000  Uiso   1.00
N695   N     0.10198   0.11464   0.80948   0.00000  Uiso   1.00
O696   O     0.10081   0.07601   0.79913   0.00000  Uiso   1.00
O697   O     0.08739   0.12489   0.85150   0.00000  Uiso   1.00
N698   N     0.23152   0.21830   0.69014   0.00000  Uiso   1.00
O699   O     0.23268   0.25709   0.69988   0.00000  Uiso   1.00
O700   O     0.24659   0.20740   0.64836   0.00000  Uiso   1.00
O701   O     0.37291   0.10655   0.75000   0.00000  Uiso   1.00
O702   O     0.62709   0.22678   0.75000   0.00000  Uiso   1.00
O703   O     0.62706   0.10654   0.75001   0.00000  Uiso   1.00
O704   O     0.37294   0.22679   0.74999   0.00000  Uiso   1.00
C705   C     0.66634   0.08743   0.75077   0.00000  Uiso   1.00
C706   C     0.33366   0.24591   0.74922   0.00000  Uiso   1.00
O707   O     0.35186   0.16668   0.81492   0.00000  Uiso   1.00
O708   O     0.64814   0.16666   0.68509   0.00000  Uiso   1.00
O709   O     0.60600   0.16667   0.81492   0.00000  Uiso   1.00
O710   O     0.39400   0.16667   0.68508   0.00000  Uiso   1.00
C711   C     0.63951   0.16684   0.83613   0.00000  Uiso   1.00
C712   C     0.36048   0.16626   0.66391   0.00000  Uiso   1.00
Cu713  Cu    0.38022   0.16667   0.75000   0.00000  Uiso   1.00
Cu714  Cu    0.61978   0.16666   0.75000   0.00000  Uiso   1.00
C715   C     0.62448   0.16810   0.88540   0.00000  Uiso   1.00
C716   C     0.37554   0.16259   0.61486   0.00000  Uiso   1.00
C717   C     0.64070   0.18266   0.95666   0.00000  Uiso   1.00
C718   C     0.36067   0.14067   0.54511   0.00000  Uiso   1.00
C719   C     0.65697   0.17878   0.91026   0.00000  Uiso   1.00
C720   C     0.34371   0.14830   0.59087   0.00000  Uiso   1.00
C721   C     0.57589   0.16048   0.90745   0.00000  Uiso   1.00
C722   C     0.42404   0.17006   0.59254   0.00000  Uiso   1.00
C723   C     0.55841   0.16409   0.95430   0.00000  Uiso   1.00
C724   C     0.44265   0.16087   0.54682   0.00000  Uiso   1.00
C725   C     0.59180   0.17578   0.97876   0.00000  Uiso   1.00
C726   C     0.40973   0.14669   0.52300   0.00000  Uiso   1.00
C727   C     0.50868   0.15760   0.97727   0.00000  Uiso   1.00
C728   C     0.49280   0.16514   0.52429   0.00000  Uiso   1.00
C729   C     0.52775   0.17583   0.54738   0.00000  Uiso   1.00
C730   C     0.47437   0.14358   0.95492   0.00000  Uiso   1.00
C731   C     0.57614   0.18095   0.52496   0.00000  Uiso   1.00
C732   C     0.42605   0.13814   0.97748   0.00000  Uiso   1.00
H733   H     0.60147   0.18948   0.54401   0.00000  Uiso   1.00
H734   H     0.40120   0.12707   0.95903   0.00000  Uiso   1.00
H735   H     0.44647   0.18301   0.61196   0.00000  Uiso   1.00
H736   H     0.55220   0.15284   0.88689   0.00000  Uiso   1.00
H737   H     0.63948   0.14197   0.60762   0.00000  Uiso   1.00
H738   H     0.36121   0.18533   0.89381   0.00000  Uiso   1.00
H739   H     0.66622   0.19188   0.97520   0.00000  Uiso   1.00
H740   H     0.33560   0.12915   0.52717   0.00000  Uiso   1.00
H741   H     0.51932   0.17987   0.58315   0.00000  Uiso   1.00
H742   H     0.48354   0.13552   0.91999   0.00000  Uiso   1.00
C743   C     0.62302   0.02054   0.76953   0.00000  Uiso   1.00
C744   C     0.37698   0.31280   0.73044   0.00000  Uiso   1.00
C745   C     0.62407   0.31116   0.76806   0.00000  Uiso   1.00
C746   C     0.37592   0.02218   0.73190   0.00000  Uiso   1.00
H747   H     0.59106   0.29411   0.78277   0.00000  Uiso   1.00
H748   H     0.40893   0.03922   0.71719   0.00000  Uiso   1.00
C749   C     0.33402   0.29054   0.74888   0.00000  Uiso   1.00
C750   C     0.66598   0.04280   0.75109   0.00000  Uiso   1.00
C751   C     0.51692   0.14185   0.77880   0.00000  Uiso   1.00
C752   C     0.48309   0.19148   0.72119   0.00000  Uiso   1.00
H753   H     0.52930   0.12195   0.80181   0.00000  Uiso   1.00
H754   H     0.47072   0.21134   0.69814   0.00000  Uiso   1.00
C755   C     0.46741   0.14165   0.77891   0.00000  Uiso   1.00
C756   C     0.53263   0.19160   0.72101   0.00000  Uiso   1.00
N757   N     0.45069   0.16668   0.74999   0.00000  Uiso   1.00
N758   N     0.54931   0.16666   0.75001   0.00000  Uiso   1.00
N759   N     0.57867   0.04102   0.79079   0.00000  Uiso   1.00
H760   H     0.55259   0.03259   0.77429   0.00000  Uiso   1.00
H761   H     0.56707   0.03042   0.82399   0.00000  Uiso   1.00
N762   N     0.42135   0.29231   0.70922   0.00000  Uiso   1.00
H763   H     0.44739   0.30072   0.72578   0.00000  Uiso   1.00
H764   H     0.43301   0.30294   0.67602   0.00000  Uiso   1.00
N765   N     0.43531   0.11464   0.80948   0.00000  Uiso   1.00
O766   O     0.43414   0.07601   0.79913   0.00000  Uiso   1.00
O767   O     0.42072   0.12489   0.85150   0.00000  Uiso   1.00
N768   N     0.56485   0.21830   0.69014   0.00000  Uiso   1.00
O769   O     0.56601   0.25709   0.69988   0.00000  Uiso   1.00
O770   O     0.57992   0.20740   0.64836   0.00000  Uiso   1.00
O771   O     0.70625   0.10655   0.75000   0.00000  Uiso   1.00
O772   O     0.96042   0.22678   0.75000   0.00000  Uiso   1.00
O773   O     0.96039   0.10654   0.75001   0.00000  Uiso   1.00
O774   O     0.70628   0.22679   0.74999   0.00000  Uiso   1.00
C775   C     0.99968   0.08743   0.75077   0.00000  Uiso   1.00
C776   C     0.66699   0.24591   0.74922   0.00000  Uiso   1.00
O777   O     0.68519   0.16668   0.81492   0.00000  Uiso   1.00
O778   O     0.98148   0.16666   0.68509   0.00000  Uiso   1.00
O779   O     0.93933   0.16667   0.81492   0.00000  Uiso   1.00
O780   O     0.72733   0.16667   0.68508   0.00000  Uiso   1.00
C781   C     0.97284   0.16684   0.83613   0.00000  Uiso   1.00
C782   C     0.69381   0.16626   0.66391   0.00000  Uiso   1.00
Cu783  Cu    0.71355   0.16667   0.75000   0.00000  Uiso   1.00
Cu784  Cu    0.95311   0.16666   0.75000   0.00000  Uiso   1.00
C785   C     0.95781   0.16810   0.88540   0.00000  Uiso   1.00
C786   C     0.70887   0.16259   0.61486   0.00000  Uiso   1.00
C787   C     0.97403   0.18266   0.95666   0.00000  Uiso   1.00
C788   C     0.69400   0.14067   0.54511   0.00000  Uiso   1.00
C789   C     0.99031   0.17878   0.91026   0.00000  Uiso   1.00
C790   C     0.67704   0.14830   0.59087   0.00000  Uiso   1.00
C791   C     0.90922   0.16048   0.90745   0.00000  Uiso   1.00
C792   C     0.75737   0.17006   0.59254   0.00000  Uiso   1.00
C793   C     0.89174   0.16409   0.95430   0.00000  Uiso   1.00
C794   C     0.77598   0.16087   0.54682   0.00000  Uiso   1.00
C795   C     0.92514   0.17578   0.97876   0.00000  Uiso   1.00
C796   C     0.74306   0.14669   0.52300   0.00000  Uiso   1.00
C797   C     0.84202   0.15760   0.97727   0.00000  Uiso   1.00
C798   C     0.82614   0.16514   0.52429   0.00000  Uiso   1.00
C799   C     0.86108   0.17583   0.54738   0.00000  Uiso   1.00
C800   C     0.80771   0.14358   0.95492   0.00000  Uiso   1.00
C801   C     0.90947   0.18095   0.52496   0.00000  Uiso   1.00
C802   C     0.75938   0.13814   0.97748   0.00000  Uiso   1.00
H803   H     0.93480   0.18948   0.54401   0.00000  Uiso   1.00
H804   H     0.73454   0.12707   0.95903   0.00000  Uiso   1.00
H805   H     0.77980   0.18301   0.61196   0.00000  Uiso   1.00
H806   H     0.88554   0.15284   0.88689   0.00000  Uiso   1.00
H807   H     0.97281   0.14197   0.60762   0.00000  Uiso   1.00
H808   H     0.69455   0.18533   0.89381   0.00000  Uiso   1.00
H809   H     0.99955   0.19188   0.97520   0.00000  Uiso   1.00
H810   H     0.66894   0.12915   0.52717   0.00000  Uiso   1.00
H811   H     0.85266   0.17987   0.58315   0.00000  Uiso   1.00
H812   H     0.81687   0.13552   0.91999   0.00000  Uiso   1.00
C813   C     0.95636   0.02054   0.76953   0.00000  Uiso   1.00
C814   C     0.71031   0.31280   0.73044   0.00000  Uiso   1.00
C815   C     0.95741   0.31116   0.76806   0.00000  Uiso   1.00
C816   C     0.70926   0.02218   0.73190   0.00000  Uiso   1.00
H817   H     0.92440   0.29411   0.78277   0.00000  Uiso   1.00
H818   H     0.74227   0.03922   0.71719   0.00000  Uiso   1.00
C819   C     0.66735   0.29054   0.74888   0.00000  Uiso   1.00
C820   C     0.99931   0.04280   0.75109   0.00000  Uiso   1.00
C821   C     0.85025   0.14185   0.77880   0.00000  Uiso   1.00
C822   C     0.81643   0.19148   0.72119   0.00000  Uiso   1.00
H823   H     0.86264   0.12195   0.80181   0.00000  Uiso   1.00
H824   H     0.80406   0.21134   0.69814   0.00000  Uiso   1.00
C825   C     0.80074   0.14165   0.77891   0.00000  Uiso   1.00
C826   C     0.86596   0.19160   0.72101   0.00000  Uiso   1.00
N827   N     0.78403   0.16668   0.74999   0.00000  Uiso   1.00
N828   N     0.88264   0.16666   0.75001   0.00000  Uiso   1.00
N829   N     0.91200   0.04102   0.79079   0.00000  Uiso   1.00
H830   H     0.88592   0.03259   0.77429   0.00000  Uiso   1.00
H831   H     0.90040   0.03042   0.82399   0.00000  Uiso   1.00
N832   N     0.75468   0.29231   0.70922   0.00000  Uiso   1.00
H833   H     0.78072   0.30072   0.72578   0.00000  Uiso   1.00
H834   H     0.76634   0.30294   0.67602   0.00000  Uiso   1.00
N835   N     0.76864   0.11464   0.80948   0.00000  Uiso   1.00
O836   O     0.76748   0.07601   0.79913   0.00000  Uiso   1.00
O837   O     0.75405   0.12489   0.85150   0.00000  Uiso   1.00
N838   N     0.89818   0.21830   0.69014   0.00000  Uiso   1.00
O839   O     0.89935   0.25709   0.69988   0.00000  Uiso   1.00
O840   O     0.91326   0.20740   0.64836   0.00000  Uiso   1.00
O841   O     0.03958   0.43989   0.75000   0.00000  Uiso   1.00
O842   O     0.29375   0.56011   0.75000   0.00000  Uiso   1.00
O843   O     0.29372   0.43988   0.75001   0.00000  Uiso   1.00
O844   O     0.03961   0.56012   0.74999   0.00000  Uiso   1.00
C845   C     0.33301   0.42076   0.75077   0.00000  Uiso   1.00
C846   C     0.00032   0.57924   0.74922   0.00000  Uiso   1.00
O847   O     0.01852   0.50001   0.81492   0.00000  Uiso   1.00
O848   O     0.31481   0.49999   0.68509   0.00000  Uiso   1.00
O849   O     0.27267   0.50000   0.81492   0.00000  Uiso   1.00
O850   O     0.06067   0.50000   0.68508   0.00000  Uiso   1.00
C851   C     0.30617   0.50017   0.83613   0.00000  Uiso   1.00
C852   C     0.02714   0.49959   0.66391   0.00000  Uiso   1.00
Cu853  Cu    0.04689   0.50001   0.75000   0.00000  Uiso   1.00
Cu854  Cu    0.28645   0.49999   0.75000   0.00000  Uiso   1.00
C855   C     0.29114   0.50143   0.88540   0.00000  Uiso   1.00
C856   C     0.04220   0.49592   0.61486   0.00000  Uiso   1.00
C857   C     0.30737   0.51599   0.95666   0.00000  Uiso   1.00
C858   C     0.02733   0.47401   0.54511   0.00000  Uiso   1.00
C859   C     0.32364   0.51212   0.91026   0.00000  Uiso   1.00
C860   C     0.01037   0.48163   0.59087   0.00000  Uiso   1.00
C861   C     0.24255   0.49382   0.90745   0.00000  Uiso   1.00
C862   C     0.09071   0.50339   0.59254   0.00000  Uiso   1.00
C863   C     0.22508   0.49742   0.95430   0.00000  Uiso   1.00
C864   C     0.10931   0.49420   0.54682   0.00000  Uiso   1.00
C865   C     0.25847   0.50911   0.97876   0.00000  Uiso   1.00
C866   C     0.07640   0.48002   0.52300   0.00000  Uiso   1.00
C867   C     0.17535   0.49093   0.97727   0.00000  Uiso   1.00
C868   C     0.15947   0.49847   0.52429   0.00000  Uiso   1.00
C869   C     0.19441   0.50916   0.54738   0.00000  Uiso   1.00
C870   C     0.14104   0.47691   0.95492   0.00000  Uiso   1.00
C871   C     0.24280   0.51429   0.52496   0.00000  Uiso   1.00
C872   C     0.09272   0.47147   0.97748   0.00000  Uiso   1.00
H873   H     0.26813   0.52281   0.54401   0.00000  Uiso   1.00
H874   H     0.06787   0.46041   0.95903   0.00000  Uiso   1.00
H875   H     0.11314   0.51634   0.61196   0.00000  Uiso   1.00
H876   H     0.21887   0.48618   0.88689   0.00000  Uiso   1.00
H877   H     0.30614   0.47530   0.60762   0.00000  Uiso   1.00
H878   H     0.02788   0.51867   0.89381   0.00000  Uiso   1.00
H879   H     0.33288   0.52522   0.97520   0.00000  Uiso   1.00
H880   H     0.00227   0.46249   0.52717   0.00000  Uiso   1.00
H881   H     0.18599   0.51321   0.58315   0.00000  Uiso   1.00
H882   H     0.15021   0.46885   0.91999   0.00000  Uiso   1.00
C883   C     0.28969   0.35387   0.76953   0.00000  Uiso   1.00
C884   C     0.04364   0.64613   0.73044   0.00000  Uiso   1.00
C885   C     0.29074   0.64449   0.76806   0.00000  Uiso   1.00
C886   C     0.04259   0.35551   0.73190   0.00000  Uiso   1.00
H887   H     0.25773   0.62745   0.78277   0.00000  Uiso   1.00
H888   H     0.07560   0.37256   0.71719   0.00000  Uiso   1.00
C889   C     0.00069   0.62387   0.74888   0.00000  Uiso   1.00
C890   C     0.33265   0.37613   0.75109   0.00000  Uiso   1.00
C891   C     0.18359   0.47518   0.77880   0.00000  Uiso   1.00
C892   C     0.14976   0.52481   0.72119   0.00000  Uiso   1.00
H893   H     0.19597   0.45529   0.80181   0.00000  Uiso   1.00
H894   H     0.13739   0.54467   0.69814   0.00000  Uiso   1.00
C895   C     0.13407   0.47499   0.77891   0.00000  Uiso   1.00
C896   C     0.19929   0.52494   0.72101   0.00000  Uiso   1.00
N897   N     0.11736   0.50001   0.74999   0.00000  Uiso   1.00
N898   N     0.21597   0.49999   0.75001   0.00000  Uiso   1.00
N899   N     0.24534   0.37436   0.79079   0.00000  Uiso   1.00
H900   H     0.21926   0.36592   0.77429   0.00000  Uiso   1.00
H901   H     0.23374   0.36375   0.82399   0.00000  Uiso   1.00
N902   N     0.08801   0.62565   0.70922   0.00000  Uiso   1.00
H903   H     0.11406   0.63405   0.72578   0.00000  Uiso   1.00
H904   H     0.09968   0.63627   0.67602   0.00000  Uiso   1.00
N905   N     0.10198   0.44798   0.80948   0.00000  Uiso   1.00
O906   O     0.10081   0.40934   0.79913   0.00000  Uiso   1.00
O907   O     0.08739   0.45823   0.85150   0.00000  Uiso   1.00
N908   N     0.23152   0.55163   0.69014   0.00000  Uiso   1.00
O909   O     0.23268   0.59042   0.69988   0.00000  Uiso   1.00
O910   O     0.24659   0.54074   0.64836   0.00000  Uiso   1.00
O911   O     0.37291   0.43989   0.75000   0.00000  Uiso   1.00
O912   O     0.62709   0.56011   0.75000   0.00000  Uiso   1.00
O913   O     0.62706   0.43988   0.75001   0.00000  Uiso   1.00
O914   O     0.37294   0.56012   0.74999   0.00000  Uiso   1.00
C915   C     0.66634   0.42076   0.75077   0.00000  Uiso   1.00
C916   C     0.33366   0.57924   0.74922   0.00000  Uiso   1.00
O917   O     0.35186   0.50001   0.81492   0.00000  Uiso   1.00
O918   O     0.64814   0.49999   0.68509   0.00000  Uiso   1.00
O919   O     0.60600   0.50000   0.81492   0.00000  Uiso   1.00
O920   O     0.39400   0.50000   0.68508   0.00000  Uiso   1.00
C921   C     0.63951   0.50017   0.83613   0.00000  Uiso   1.00
C922   C     0.36048   0.49959   0.66391   0.00000  Uiso   1.00
Cu923  Cu    0.38022   0.50001   0.75000   0.00000  Uiso   1.00
Cu924  Cu    0.61978   0.49999   0.75000   0.00000  Uiso   1.00
C925   C     0.62448   0.50143   0.88540   0.00000  Uiso   1.00
C926   C     0.37554   0.49592   0.61486   0.00000  Uiso   1.00
C927   C     0.64070   0.51599   0.95666   0.00000  Uiso   1.00
C928   C     0.36067   0.47401   0.54511   0.00000  Uiso   1.00
C929   C     0.65697   0.51212   0.91026   0.00000  Uiso   1.00
C930   C     0.34371   0.48163   0.59087   0.00000  Uiso   1.00
C931   C     0.57589   0.49382   0.90745   0.00000  Uiso   1.00
C932   C     0.42404   0.50339   0.59254   0.00000  Uiso   1.00
C933   C     0.55841   0.49742   0.95430   0.00000  Uiso   1.00
C934   C     0.44265   0.49420   0.54682   0.00000  Uiso   1.00
C935   C     0.59180   0.50911   0.97876   0.00000  Uiso   1.00
C936   C     0.40973   0.48002   0.52300   0.00000  Uiso   1.00
C937   C     0.50868   0.49093   0.97727   0.00000  Uiso   1.00
C938   C     0.49280   0.49847   0.52429   0.00000  Uiso   1.00
C939   C     0.52775   0.50916   0.54738   0.00000  Uiso   1.00
C940   C     0.47437   0.47691   0.95492   0.00000  Uiso   1.00
C941   C     0.57614   0.51429   0.52496   0.00000  Uiso   1.00
C942   C     0.42605   0.47147   0.97748   0.00000  Uiso   1.00
H943   H     0.60147   0.52281   0.54401   0.00000  Uiso   1.00
H944   H     0.40120   0.46041   0.95903   0.00000  Uiso   1.00
H945   H     0.44647   0.51634   0.61196   0.00000  Uiso   1.00
H946   H     0.55220   0.48618   0.88689   0.00000  Uiso   1.00
H947   H     0.63948   0.47530   0.60762   0.00000  Uiso   1.00
H948   H     0.36121   0.51867   0.89381   0.00000  Uiso   1.00
H949   H     0.66622   0.52522   0.97520   0.00000  Uiso   1.00
H950   H     0.33560   0.46249   0.52717   0.00000  Uiso   1.00
H951   H     0.51932   0.51321   0.58315   0.00000  Uiso   1.00
H952   H     0.48354   0.46885   0.91999   0.00000  Uiso   1.00
C953   C     0.62302   0.35387   0.76953   0.00000  Uiso   1.00
C954   C     0.37698   0.64613   0.73044   0.00000  Uiso   1.00
C955   C     0.62407   0.64449   0.76806   0.00000  Uiso   1.00
C956   C     0.37592   0.35551   0.73190   0.00000  Uiso   1.00
H957   H     0.59106   0.62745   0.78277   0.00000  Uiso   1.00
H958   H     0.40893   0.37256   0.71719   0.00000  Uiso   1.00
C959   C     0.33402   0.62387   0.74888   0.00000  Uiso   1.00
C960   C     0.66598   0.37613   0.75109   0.00000  Uiso   1.00
C961   C     0.51692   0.47518   0.77880   0.00000  Uiso   1.00
C962   C     0.48309   0.52481   0.72119   0.00000  Uiso   1.00
H963   H     0.52930   0.45529   0.80181   0.00000  Uiso   1.00
H964   H     0.47072   0.54467   0.69814   0.00000  Uiso   1.00
C965   C     0.46741   0.47499   0.77891   0.00000  Uiso   1.00
C966   C     0.53263   0.52494   0.72101   0.00000  Uiso   1.00
N967   N     0.45069   0.50001   0.74999   0.00000  Uiso   1.00
N968   N     0.54931   0.49999   0.75001   0.00000  Uiso   1.00
N969   N     0.57867   0.37436   0.79079   0.00000  Uiso   1.00
H970   H     0.55259   0.36592   0.77429   0.00000  Uiso   1.00
H971   H     0.56707   0.36375   0.82399   0.00000  Uiso   1.00
N972   N     0.42135   0.62565   0.70922   0.00000  Uiso   1.00
H973   H     0.44739   0.63405   0.72578   0.00000  Uiso   1.00
H974   H     0.43301   0.63627   0.67602   0.00000  Uiso   1.00
N975   N     0.43531   0.44798   0.80948   0.00000  Uiso   1.00
O976   O     0.43414   0.40934   0.79913   0.00000  Uiso   1.00
O977   O     0.42072   0.45823   0.85150   0.00000  Uiso   1.00
N978   N     0.56485   0.55163   0.69014   0.00000  Uiso   1.00
O979   O     0.56601   0.59042   0.69988   0.00000  Uiso   1.00
O980   O     0.57992   0.54074   0.64836   0.00000  Uiso   1.00
O981   O     0.70625   0.43989   0.75000   0.00000  Uiso   1.00
O982   O     0.96042   0.56011   0.75000   0.00000  Uiso   1.00
O983   O     0.96039   0.43988   0.75001   0.00000  Uiso   1.00
O984   O     0.70628   0.56012   0.74999   0.00000  Uiso   1.00
C985   C     0.99968   0.42076   0.75077   0.00000  Uiso   1.00
C986   C     0.66699   0.57924   0.74922   0.00000  Uiso   1.00
O987   O     0.68519   0.50001   0.81492   0.00000  Uiso   1.00
O988   O     0.98148   0.49999   0.68509   0.00000  Uiso   1.00
O989   O     0.93933   0.50000   0.81492   0.00000  Uiso   1.00
O990   O     0.72733   0.50000   0.68508   0.00000  Uiso   1.00
C991   C     0.97284   0.50017   0.83613   0.00000  Uiso   1.00
C992   C     0.69381   0.49959   0.66391   0.00000  Uiso   1.00
Cu993  Cu    0.71355   0.50001   0.75000   0.00000  Uiso   1.00
Cu994  Cu    0.95311   0.49999   0.75000   0.00000  Uiso   1.00
C995   C     0.95781   0.50143   0.88540   0.00000  Uiso   1.00
C996   C     0.70887   0.49592   0.61486   0.00000  Uiso   1.00
C997   C     0.97403   0.51599   0.95666   0.00000  Uiso   1.00
C998   C     0.69400   0.47401   0.54511   0.00000  Uiso   1.00
C999   C     0.99031   0.51212   0.91026   0.00000  Uiso   1.00
C1000  C     0.67704   0.48163   0.59087   0.00000  Uiso   1.00
C1001  C     0.90922   0.49382   0.90745   0.00000  Uiso   1.00
C1002  C     0.75737   0.50339   0.59254   0.00000  Uiso   1.00
C1003  C     0.89174   0.49742   0.95430   0.00000  Uiso   1.00
C1004  C     0.77598   0.49420   0.54682   0.00000  Uiso   1.00
C1005  C     0.92514   0.50911   0.97876   0.00000  Uiso   1.00
C1006  C     0.74306   0.48002   0.52300   0.00000  Uiso   1.00
C1007  C     0.84202   0.49093   0.97727   0.00000  Uiso   1.00
C1008  C     0.82614   0.49847   0.52429   0.00000  Uiso   1.00
C1009  C     0.86108   0.50916   0.54738   0.00000  Uiso   1.00
C1010  C     0.80771   0.47691   0.95492   0.00000  Uiso   1.00
C1011  C     0.90947   0.51429   0.52496   0.00000  Uiso   1.00
C1012  C     0.75938   0.47147   0.97748   0.00000  Uiso   1.00
H1013  H     0.93480   0.52281   0.54401   0.00000  Uiso   1.00
H1014  H     0.73454   0.46041   0.95903   0.00000  Uiso   1.00
H1015  H     0.77980   0.51634   0.61196   0.00000  Uiso   1.00
H1016  H     0.88554   0.48618   0.88689   0.00000  Uiso   1.00
H1017  H     0.97281   0.47530   0.60762   0.00000  Uiso   1.00
H1018  H     0.69455   0.51867   0.89381   0.00000  Uiso   1.00
H1019  H     0.99955   0.52522   0.97520   0.00000  Uiso   1.00
H1020  H     0.66894   0.46249   0.52717   0.00000  Uiso   1.00
H1021  H     0.85266   0.51321   0.58315   0.00000  Uiso   1.00
H1022  H     0.81687   0.46885   0.91999   0.00000  Uiso   1.00
C1023  C     0.95636   0.35387   0.76953   0.00000  Uiso   1.00
C1024  C     0.71031   0.64613   0.73044   0.00000  Uiso   1.00
C1025  C     0.95741   0.64449   0.76806   0.00000  Uiso   1.00
C1026  C     0.70926   0.35551   0.73190   0.00000  Uiso   1.00
H1027  H     0.92440   0.62745   0.78277   0.00000  Uiso   1.00
H1028  H     0.74227   0.37256   0.71719   0.00000  Uiso   1.00
C1029  C     0.66735   0.62387   0.74888   0.00000  Uiso   1.00
C1030  C     0.99931   0.37613   0.75109   0.00000  Uiso   1.00
C1031  C     0.85025   0.47518   0.77880   0.00000  Uiso   1.00
C1032  C     0.81643   0.52481   0.72119   0.00000  Uiso   1.00
H1033  H     0.86264   0.45529   0.80181   0.00000  Uiso   1.00
H1034  H     0.80406   0.54467   0.69814   0.00000  Uiso   1.00
C1035  C     0.80074   0.47499   0.77891   0.00000  Uiso   1.00
C1036  C     0.86596   0.52494   0.72101   0.00000  Uiso   1.00
N1037  N     0.78403   0.50001   0.74999   0.00000  Uiso   1.00
N1038  N     0.88264   0.49999   0.75001   0.00000  Uiso   1.00
N1039  N     0.91200   0.37436   0.79079   0.00000  Uiso   1.00
H1040  H     0.88592   0.36592   0.77429   0.00000  Uiso   1.00
H1041  H     0.90040   0.36375   0.82399   0.00000  Uiso   1.00
N1042  N     0.75468   0.62565   0.70922   0.00000  Uiso   1.00
H1043  H     0.78072   0.63405   0.72578   0.00000  Uiso   1.00
H1044  H     0.76634   0.63627   0.67602   0.00000  Uiso   1.00
N1045  N     0.76864   0.44798   0.80948   0.00000  Uiso   1.00
O1046  O     0.76748   0.40934   0.79913   0.00000  Uiso   1.00
O1047  O     0.75405   0.45823   0.85150   0.00000  Uiso   1.00
N1048  N     0.89818   0.55163   0.69014   0.00000  Uiso   1.00
O1049  O     0.89935   0.59042   0.69988   0.00000  Uiso   1.00
O1050  O     0.91326   0.54074   0.64836   0.00000  Uiso   1.00
O1051  O     0.03958   0.77322   0.75000   0.00000  Uiso   1.00
O1052  O     0.29375   0.89345   0.75000   0.00000  Uiso   1.00
O1053  O     0.29372   0.77321   0.75001   0.00000  Uiso   1.00
O1054  O     0.03961   0.89346   0.74999   0.00000  Uiso   1.00
C1055  C     0.33301   0.75409   0.75077   0.00000  Uiso   1.00
C1056  C     0.00032   0.91257   0.74922   0.00000  Uiso   1.00
O1057  O     0.01852   0.83334   0.81492   0.00000  Uiso   1.00
O1058  O     0.31481   0.83332   0.68509   0.00000  Uiso   1.00
O1059  O     0.27267   0.83333   0.81492   0.00000  Uiso   1.00
O1060  O     0.06067   0.83333   0.68508   0.00000  Uiso   1.00
C1061  C     0.30617   0.83350   0.83613   0.00000  Uiso   1.00
C1062  C     0.02714   0.83293   0.66391   0.00000  Uiso   1.00
Cu1063 Cu    0.04689   0.83334   0.75000   0.00000  Uiso   1.00
Cu1064 Cu    0.28645   0.83333   0.75000   0.00000  Uiso   1.00
C1065  C     0.29114   0.83477   0.88540   0.00000  Uiso   1.00
C1066  C     0.04220   0.82926   0.61486   0.00000  Uiso   1.00
C1067  C     0.30737   0.84933   0.95666   0.00000  Uiso   1.00
C1068  C     0.02733   0.80734   0.54511   0.00000  Uiso   1.00
C1069  C     0.32364   0.84545   0.91026   0.00000  Uiso   1.00
C1070  C     0.01037   0.81496   0.59087   0.00000  Uiso   1.00
C1071  C     0.24255   0.82715   0.90745   0.00000  Uiso   1.00
C1072  C     0.09071   0.83672   0.59254   0.00000  Uiso   1.00
C1073  C     0.22508   0.83075   0.95430   0.00000  Uiso   1.00
C1074  C     0.10931   0.82753   0.54682   0.00000  Uiso   1.00
C1075  C     0.25847   0.84245   0.97876   0.00000  Uiso   1.00
C1076  C     0.07640   0.81335   0.52300   0.00000  Uiso   1.00
C1077  C     0.17535   0.82426   0.97727   0.00000  Uiso   1.00
C1078  C     0.15947   0.83180   0.52429   0.00000  Uiso   1.00
C1079  C     0.19441   0.84250   0.54738   0.00000  Uiso   1.00
C1080  C     0.14104   0.81024   0.95492   0.00000  Uiso   1.00
C1081  C     0.24280   0.84762   0.52496   0.00000  Uiso   1.00
C1082  C     0.09272   0.80481   0.97748   0.00000  Uiso   1.00
H1083  H     0.26813   0.85615   0.54401   0.00000  Uiso   1.00
H1084  H     0.06787   0.79374   0.95903   0.00000  Uiso   1.00
H1085  H     0.11314   0.84967   0.61196   0.00000  Uiso   1.00
H1086  H     0.21887   0.81951   0.88689   0.00000  Uiso   1.00
H1087  H     0.30614   0.80863   0.60762   0.00000  Uiso   1.00
H1088  H     0.02788   0.85200   0.89381   0.00000  Uiso   1.00
H1089  H     0.33288   0.85855   0.97520   0.00000  Uiso   1.00
H1090  H     0.00227   0.79582   0.52717   0.00000  Uiso   1.00
H1091  H     0.18599   0.84654   0.58315   0.00000  Uiso   1.00
H1092  H     0.15021   0.80218   0.91999   0.00000  Uiso   1.00
C1093  C     0.28969   0.68721   0.76953   0.00000  Uiso   1.00
C1094  C     0.04364   0.97946   0.73044   0.00000  Uiso   1.00
C1095  C     0.29074   0.97782   0.76806   0.00000  Uiso   1.00
C1096  C     0.04259   0.68885   0.73190   0.00000  Uiso   1.00
H1097  H     0.25773   0.96078   0.78277   0.00000  Uiso   1.00
H1098  H     0.07560   0.70589   0.71719   0.00000  Uiso   1.00
C1099  C     0.00069   0.95720   0.74888   0.00000  Uiso   1.00
C1100  C     0.33265   0.70947   0.75109   0.00000  Uiso   1.00
C1101  C     0.18359   0.80851   0.77880   0.00000  Uiso   1.00
C1102  C     0.14976   0.85815   0.72119   0.00000  Uiso   1.00
H1103  H     0.19597   0.78862   0.80181   0.00000  Uiso   1.00
H1104  H     0.13739   0.87801   0.69814   0.00000  Uiso   1.00
C1105  C     0.13407   0.80832   0.77891   0.00000  Uiso   1.00
C1106  C     0.19929   0.85827   0.72101   0.00000  Uiso   1.00
N1107  N     0.11736   0.83334   0.74999   0.00000  Uiso   1.00
N1108  N     0.21597   0.83332   0.75001   0.00000  Uiso   1.00
N1109  N     0.24534   0.70769   0.79079   0.00000  Uiso   1.00
H1110  H     0.21926   0.69926   0.77429   0.00000  Uiso   1.00
H1111  H     0.23374   0.69709   0.82399   0.00000  Uiso   1.00
N1112  N     0.08801   0.95898   0.70922   0.00000  Uiso   1.00
H1113  H     0.11406   0.96739   0.72578   0.00000  Uiso   1.00
H1114  H     0.09968   0.96961   0.67602   0.00000  Uiso   1.00
N1115  N     0.10198   0.78131   0.80948   0.00000  Uiso   1.00
O1116  O     0.10081   0.74267   0.79913   0.00000  Uiso   1.00
O1117  O     0.08739   0.79156   0.85150   0.00000  Uiso   1.00
N1118  N     0.23152   0.88496   0.69014   0.00000  Uiso   1.00
O1119  O     0.23268   0.92375   0.69988   0.00000  Uiso   1.00
O1120  O     0.24659   0.87407   0.64836   0.00000  Uiso   1.00
O1121  O     0.37291   0.77322   0.75000   0.00000  Uiso   1.00
O1122  O     0.62709   0.89345   0.75000   0.00000  Uiso   1.00
O1123  O     0.62706   0.77321   0.75001   0.00000  Uiso   1.00
O1124  O     0.37294   0.89346   0.74999   0.00000  Uiso   1.00
C1125  C     0.66634   0.75409   0.75077   0.00000  Uiso   1.00
C1126  C     0.33366   0.91257   0.74922   0.00000  Uiso   1.00
O1127  O     0.35186   0.83334   0.81492   0.00000  Uiso   1.00
O1128  O     0.64814   0.83332   0.68509   0.00000  Uiso   1.00
O1129  O     0.60600   0.83333   0.81492   0.00000  Uiso   1.00
O1130  O     0.39400   0.83333   0.68508   0.00000  Uiso   1.00
C1131  C     0.63951   0.83350   0.83613   0.00000  Uiso   1.00
C1132  C     0.36048   0.83293   0.66391   0.00000  Uiso   1.00
Cu1133 Cu    0.38022   0.83334   0.75000   0.00000  Uiso   1.00
Cu1134 Cu    0.61978   0.83333   0.75000   0.00000  Uiso   1.00
C1135  C     0.62448   0.83477   0.88540   0.00000  Uiso   1.00
C1136  C     0.37554   0.82926   0.61486   0.00000  Uiso   1.00
C1137  C     0.64070   0.84933   0.95666   0.00000  Uiso   1.00
C1138  C     0.36067   0.80734   0.54511   0.00000  Uiso   1.00
C1139  C     0.65697   0.84545   0.91026   0.00000  Uiso   1.00
C1140  C     0.34371   0.81496   0.59087   0.00000  Uiso   1.00
C1141  C     0.57589   0.82715   0.90745   0.00000  Uiso   1.00
C1142  C     0.42404   0.83672   0.59254   0.00000  Uiso   1.00
C1143  C     0.55841   0.83075   0.95430   0.00000  Uiso   1.00
C1144  C     0.44265   0.82753   0.54682   0.00000  Uiso   1.00
C1145  C     0.59180   0.84245   0.97876   0.00000  Uiso   1.00
C1146  C     0.40973   0.81335   0.52300   0.00000  Uiso   1.00
C1147  C     0.50868   0.82426   0.97727   0.00000  Uiso   1.00
C1148  C     0.49280   0.83180   0.52429   0.00000  Uiso   1.00
C1149  C     0.52775   0.84250   0.54738   0.00000  Uiso   1.00
C1150  C     0.47437   0.81024   0.95492   0.00000  Uiso   1.00
C1151  C     0.57614   0.84762   0.52496   0.00000  Uiso   1.00
C1152  C     0.42605   0.80481   0.97748   0.00000  Uiso   1.00
H1153  H     0.60147   0.85615   0.54401   0.00000  Uiso   1.00
H1154  H     0.40120   0.79374   0.95903   0.00000  Uiso   1.00
H1155  H     0.44647   0.84967   0.61196   0.00000  Uiso   1.00
H1156  H     0.55220   0.81951   0.88689   0.00000  Uiso   1.00
H1157  H     0.63948   0.80863   0.60762   0.00000  Uiso   1.00
H1158  H     0.36121   0.85200   0.89381   0.00000  Uiso   1.00
H1159  H     0.66622   0.85855   0.97520   0.00000  Uiso   1.00
H1160  H     0.33560   0.79582   0.52717   0.00000  Uiso   1.00
H1161  H     0.51932   0.84654   0.58315   0.00000  Uiso   1.00
H1162  H     0.48354   0.80218   0.91999   0.00000  Uiso   1.00
C1163  C     0.62302   0.68721   0.76953   0.00000  Uiso   1.00
C1164  C     0.37698   0.97946   0.73044   0.00000  Uiso   1.00
C1165  C     0.62407   0.97782   0.76806   0.00000  Uiso   1.00
C1166  C     0.37592   0.68885   0.73190   0.00000  Uiso   1.00
H1167  H     0.59106   0.96078   0.78277   0.00000  Uiso   1.00
H1168  H     0.40893   0.70589   0.71719   0.00000  Uiso   1.00
C1169  C     0.33402   0.95720   0.74888   0.00000  Uiso   1.00
C1170  C     0.66598   0.70947   0.75109   0.00000  Uiso   1.00
C1171  C     0.51692   0.80851   0.77880   0.00000  Uiso   1.00
C1172  C     0.48309   0.85815   0.72119   0.00000  Uiso   1.00
H1173  H     0.52930   0.78862   0.80181   0.00000  Uiso   1.00
H1174  H     0.47072   0.87801   0.69814   0.00000  Uiso   1.00
C1175  C     0.46741   0.80832   0.77891   0.00000  Uiso   1.00
C1176  C     0.53263   0.85827   0.72101   0.00000  Uiso   1.00
N1177  N     0.45069   0.83334   0.74999   0.00000  Uiso   1.00
N1178  N     0.54931   0.83332   0.75001   0.00000  Uiso   1.00
N1179  N     0.57867   0.70769   0.79079   0.00000  Uiso   1.00
H1180  H     0.55259   0.69926   0.77429   0.00000  Uiso   1.00
H1181  H     0.56707   0.69709   0.82399   0.00000  Uiso   1.00
N1182  N     0.42135   0.95898   0.70922   0.00000  Uiso   1.00
H1183  H     0.44739   0.96739   0.72578   0.00000  Uiso   1.00
H1184  H     0.43301   0.96961   0.67602   0.00000  Uiso   1.00
N1185  N     0.43531   0.78131   0.80948   0.00000  Uiso   1.00
O1186  O     0.43414   0.74267   0.79913   0.00000  Uiso   1.00
O1187  O     0.42072   0.79156   0.85150   0.00000  Uiso   1.00
N1188  N     0.56485   0.88496   0.69014   0.00000  Uiso   1.00
O1189  O     0.56601   0.92375   0.69988   0.00000  Uiso   1.00
O1190  O     0.57992   0.87407   0.64836   0.00000  Uiso   1.00
O1191  O     0.70625   0.77322   0.75000   0.00000  Uiso   1.00
O1192  O     0.96042   0.89345   0.75000   0.00000  Uiso   1.00
O1193  O     0.96039   0.77321   0.75001   0.00000  Uiso   1.00
O1194  O     0.70628   0.89346   0.74999   0.00000  Uiso   1.00
C1195  C     0.99968   0.75409   0.75077   0.00000  Uiso   1.00
C1196  C     0.66699   0.91257   0.74922   0.00000  Uiso   1.00
O1197  O     0.68519   0.83334   0.81492   0.00000  Uiso   1.00
O1198  O     0.98148   0.83332   0.68509   0.00000  Uiso   1.00
O1199  O     0.93933   0.83333   0.81492   0.00000  Uiso   1.00
O1200  O     0.72733   0.83333   0.68508   0.00000  Uiso   1.00
C1201  C     0.97284   0.83350   0.83613   0.00000  Uiso   1.00
C1202  C     0.69381   0.83293   0.66391   0.00000  Uiso   1.00
Cu1203 Cu    0.71355   0.83334   0.75000   0.00000  Uiso   1.00
Cu1204 Cu    0.95311   0.83333   0.75000   0.00000  Uiso   1.00
C1205  C     0.95781   0.83477   0.88540   0.00000  Uiso   1.00
C1206  C     0.70887   0.82926   0.61486   0.00000  Uiso   1.00
C1207  C     0.97403   0.84933   0.95666   0.00000  Uiso   1.00
C1208  C     0.69400   0.80734   0.54511   0.00000  Uiso   1.00
C1209  C     0.99031   0.84545   0.91026   0.00000  Uiso   1.00
C1210  C     0.67704   0.81496   0.59087   0.00000  Uiso   1.00
C1211  C     0.90922   0.82715   0.90745   0.00000  Uiso   1.00
C1212  C     0.75737   0.83672   0.59254   0.00000  Uiso   1.00
C1213  C     0.89174   0.83075   0.95430   0.00000  Uiso   1.00
C1214  C     0.77598   0.82753   0.54682   0.00000  Uiso   1.00
C1215  C     0.92514   0.84245   0.97876   0.00000  Uiso   1.00
C1216  C     0.74306   0.81335   0.52300   0.00000  Uiso   1.00
C1217  C     0.84202   0.82426   0.97727   0.00000  Uiso   1.00
C1218  C     0.82614   0.83180   0.52429   0.00000  Uiso   1.00
C1219  C     0.86108   0.84250   0.54738   0.00000  Uiso   1.00
C1220  C     0.80771   0.81024   0.95492   0.00000  Uiso   1.00
C1221  C     0.90947   0.84762   0.52496   0.00000  Uiso   1.00
C1222  C     0.75938   0.80481   0.97748   0.00000  Uiso   1.00
H1223  H     0.93480   0.85615   0.54401   0.00000  Uiso   1.00
H1224  H     0.73454   0.79374   0.95903   0.00000  Uiso   1.00
H1225  H     0.77980   0.84967   0.61196   0.00000  Uiso   1.00
H1226  H     0.88554   0.81951   0.88689   0.00000  Uiso   1.00
H1227  H     0.97281   0.80863   0.60762   0.00000  Uiso   1.00
H1228  H     0.69455   0.85200   0.89381   0.00000  Uiso   1.00
H1229  H     0.99955   0.85855   0.97520   0.00000  Uiso   1.00
H1230  H     0.66894   0.79582   0.52717   0.00000  Uiso   1.00
H1231  H     0.85266   0.84654   0.58315   0.00000  Uiso   1.00
H1232  H     0.81687   0.80218   0.91999   0.00000  Uiso   1.00
C1233  C     0.95636   0.68721   0.76953   0.00000  Uiso   1.00
C1234  C     0.71031   0.97946   0.73044   0.00000  Uiso   1.00
C1235  C     0.95741   0.97782   0.76806   0.00000  Uiso   1.00
C1236  C     0.70926   0.68885   0.73190   0.00000  Uiso   1.00
H1237  H     0.92440   0.96078   0.78277   0.00000  Uiso   1.00
H1238  H     0.74227   0.70589   0.71719   0.00000  Uiso   1.00
C1239  C     0.66735   0.95720   0.74888   0.00000  Uiso   1.00
C1240  C     0.99931   0.70947   0.75109   0.00000  Uiso   1.00
C1241  C     0.85025   0.80851   0.77880   0.00000  Uiso   1.00
C1242  C     0.81643   0.85815   0.72119   0.00000  Uiso   1.00
H1243  H     0.86264   0.78862   0.80181   0.00000  Uiso   1.00
H1244  H     0.80406   0.87801   0.69814   0.00000  Uiso   1.00
C1245  C     0.80074   0.80832   0.77891   0.00000  Uiso   1.00
C1246  C     0.86596   0.85827   0.72101   0.00000  Uiso   1.00
N1247  N     0.78403   0.83334   0.74999   0.00000  Uiso   1.00
N1248  N     0.88264   0.83332   0.75001   0.00000  Uiso   1.00
N1249  N     0.91200   0.70769   0.79079   0.00000  Uiso   1.00
H1250  H     0.88592   0.69926   0.77429   0.00000  Uiso   1.00
H1251  H     0.90040   0.69709   0.82399   0.00000  Uiso   1.00
N1252  N     0.75468   0.95898   0.70922   0.00000  Uiso   1.00
H1253  H     0.78072   0.96739   0.72578   0.00000  Uiso   1.00
H1254  H     0.76634   0.96961   0.67602   0.00000  Uiso   1.00
N1255  N     0.76864   0.78131   0.80948   0.00000  Uiso   1.00
O1256  O     0.76748   0.74267   0.79913   0.00000  Uiso   1.00
O1257  O     0.75405   0.79156   0.85150   0.00000  Uiso   1.00
N1258  N     0.89818   0.88496   0.69014   0.00000  Uiso   1.00
O1259  O     0.89935   0.92375   0.69988   0.00000  Uiso   1.00
O1260  O     0.91326   0.87407   0.64836   0.00000  Uiso   1.00
loop_
_geom_bond_atom_site_label_1
_geom_bond_atom_site_label_2
_geom_bond_distance
_geom_bond_site_symmetry_2
_ccdc_geom_bond_type
O1     Cu13    1.964   .     S
O1     C145    1.295   1_455 S
O2     Cu14    1.964   .     S
O2     C76     1.295   .     S
O3     Cu14    1.964   .     S
O3     C5      1.290   .     A
O4     C6      1.290   .     A
O4     Cu13    1.964   .     S
C5     C50     1.449   .     S
C5     O71     1.295   .     S
C6     C49     1.450   .     S
C6     O142    1.295   1_455 S
O7     Cu13    1.954   .     S
O7     C151    1.300   1_455 S
O8     Cu14    1.954   .     S
O8     C82     1.299   .     S
O9     Cu14    1.938   .     S
O9     C11     1.296   .     A
O10    C12     1.295   .     A
O10    Cu13    1.938   .     S
C11    C15     1.469   .     S
C11    O77     1.300   .     S
C12    C16     1.467   .     S
C12    O148    1.299   1_455 S
Cu13   N57     2.018   .     S
Cu13   Cu154   2.685   1_455 S
Cu14   N58     2.018   .     S
Cu14   Cu83    2.685   .     S
C15    C19     1.398   .     A
C15    C21     1.400   .     A
C16    C20     1.398   .     A
C16    C22     1.399   .     A
C17    C25     1.404   .     A
C17    C19     1.391   .     A
C17    H39     1.083   .     S
C18    C20     1.392   .     A
C18    C26     1.404   .     A
C18    H40     1.084   .     S
C19    H108    1.082   .     S
C20    H177    1.083   1_455 S
C21    C23     1.406   .     A
C21    H36     1.074   .     S
C22    H35     1.075   .     S
C22    C24     1.406   .     A
C23    C27     1.429   .     A
C23    C25     1.419   .     A
C24    C26     1.418   .     A
C24    C28     1.428   .     A
C25    C661    1.390   .     S
C26    C662    1.390   1_554 S
C27    C30     1.418   .     A
C27    C658    1.426   .     S
C28    C29     1.417   .     A
C28    C657    1.426   1_554 S
C29    H41     1.076   .     S
C29    C31     1.386   .     A
C30    C32     1.386   .     A
C30    H42     1.075   .     S
C31    H33     1.084   .     S
C31    C655    1.390   1_554 S
C32    H34     1.085   .     S
C32    C656    1.390   .     S
H37    C90     1.083   .     S
H38    C159    1.082   1_455 S
C43    C50     1.409   .     A
C43    N59     1.434   .     S
C43    C465    1.389   1_545 S
C44    C49     1.409   .     A
C44    N62     1.434   .     S
C44    C256    1.389   .     S
C45    H47     1.084   .     S
C45    C253    1.389   .     S
C45    C119    1.399   .     S
C46    H48     1.084   .     S
C46    C464    1.389   1_545 S
C46    C190    1.399   1_455 S
C49    C185    1.399   1_455 S
C50    C116    1.399   .     S
C51    C55     1.417   .     A
C51    H53     1.082   .     S
C51    N58     1.361   .     A
C52    H54     1.082   .     S
C52    N57     1.362   .     A
C52    C56     1.417   .     A
C55    N57     1.377   .     A
C55    N65     1.426   .     S
C56    N58     1.377   .     A
C56    N68     1.426   .     S
N59    H60     1.046   .     S
N59    H61     1.046   .     S
N62    H63     1.046   .     S
N62    H64     1.046   .     S
N65    O67     1.300   .     A
N65    O66     1.300   .     A
N68    O70     1.300   .     A
N68    O69     1.300   .     A
O71    Cu83    1.964   .     S
O72    Cu84    1.964   .     S
O72    C146    1.295   .     S
O73    Cu84    1.964   .     S
O73    C75     1.290   .     A
O74    C76     1.290   .     A
O74    Cu83    1.964   .     S
C75    C120    1.449   .     S
C75    O141    1.295   .     S
C76    C119    1.450   .     S
O77    Cu83    1.954   .     S
O78    Cu84    1.954   .     S
O78    C152    1.299   .     S
O79    Cu84    1.938   .     S
O79    C81     1.296   .     A
O80    C82     1.295   .     A
O80    Cu83    1.938   .     S
C81    C85     1.469   .     S
C81    O147    1.300   .     S
C82    C86     1.467   .     S
Cu83   N127    2.018   .     S
Cu84   N128    2.018   .     S
Cu84   Cu153   2.685   .     S
C85    C89     1.398   .     A
C85    C91     1.400   .     A
C86    C90     1.398   .     A
C86    C92     1.399   .     A
C87    C95     1.404   .     A
C87    C89     1.391   .     A
C87    H109    1.083   .     S
C88    C90     1.392   .     A
C88    C96     1.404   .     A
C88    H110    1.084   .     S
C89    H178    1.082   .     S
C91    C93     1.406   .     A
C91    H106    1.074   .     S
C92    H105    1.075   .     S
C92    C94     1.406   .     A
C93    C97     1.429   .     A
C93    C95     1.419   .     A
C94    C96     1.418   .     A
C94    C98     1.428   .     A
C95    C731    1.390   .     S
C96    C732    1.390   1_554 S
C97    C100    1.418   .     A
C97    C728    1.426   .     S
C98    C99     1.417   .     A
C98    C727    1.426   1_554 S
C99    H111    1.076   .     S
C99    C101    1.386   .     A
C100   C102    1.386   .     A
C100   H112    1.075   .     S
C101   H103    1.084   .     S
C101   C725    1.390   1_554 S
C102   H104    1.085   .     S
C102   C726    1.390   .     S
H107   C160    1.083   .     S
C113   C120    1.409   .     A
C113   N129    1.434   .     S
C113   C535    1.389   1_545 S
C114   C119    1.409   .     A
C114   N132    1.434   .     S
C114   C326    1.389   .     S
C115   H117    1.084   .     S
C115   C323    1.389   .     S
C115   C189    1.399   .     S
C116   H118    1.084   .     S
C116   C534    1.389   1_545 S
C120   C186    1.399   .     S
C121   C125    1.417   .     A
C121   H123    1.082   .     S
C121   N128    1.361   .     A
C122   H124    1.082   .     S
C122   N127    1.362   .     A
C122   C126    1.417   .     A
C125   N127    1.377   .     A
C125   N135    1.426   .     S
C126   N128    1.377   .     A
C126   N138    1.426   .     S
N129   H130    1.046   .     S
N129   H131    1.046   .     S
N132   H133    1.046   .     S
N132   H134    1.046   .     S
N135   O137    1.300   .     A
N135   O136    1.300   .     A
N138   O140    1.300   .     A
N138   O139    1.300   .     A
O141   Cu153   1.964   .     S
O142   Cu154   1.964   .     S
O142   C6      1.295   1_655 S
O143   Cu154   1.964   .     S
O143   C145    1.290   .     A
O144   C146    1.290   .     A
O144   Cu153   1.964   .     S
C145   C190    1.449   .     S
C145   O1      1.295   1_655 S
C146   C189    1.450   .     S
O147   Cu153   1.954   .     S
O148   Cu154   1.954   .     S
O148   C12     1.299   1_655 S
O149   Cu154   1.938   .     S
O149   C151    1.296   .     A
O150   C152    1.295   .     A
O150   Cu153   1.938   .     S
C151   C155    1.469   .     S
C151   O7      1.300   1_655 S
C152   C156    1.467   .     S
Cu153  N197    2.018   .     S
Cu154  N198    2.018   .     S
Cu154  Cu13    2.685   1_655 S
C155   C159    1.398   .     A
C155   C161    1.400   .     A
C156   C160    1.398   .     A
C156   C162    1.399   .     A
C157   C165    1.404   .     A
C157   C159    1.391   .     A
C157   H179    1.083   .     S
C158   C160    1.392   .     A
C158   C166    1.404   .     A
C158   H180    1.084   .     S
C159   H38     1.082   1_655 S
C161   C163    1.406   .     A
C161   H176    1.074   .     S
C162   H175    1.075   .     S
C162   C164    1.406   .     A
C163   C167    1.429   .     A
C163   C165    1.419   .     A
C164   C166    1.418   .     A
C164   C168    1.428   .     A
C165   C801    1.390   .     S
C166   C802    1.390   1_554 S
C167   C170    1.418   .     A
C167   C798    1.426   .     S
C168   C169    1.417   .     A
C168   C797    1.426   1_554 S
C169   H181    1.076   .     S
C169   C171    1.386   .     A
C170   C172    1.386   .     A
C170   H182    1.075   .     S
C171   H173    1.084   .     S
C171   C795    1.390   1_554 S
C172   H174    1.085   .     S
C172   C796    1.390   .     S
H177   C20     1.083   1_655 S
C183   C190    1.409   .     A
C183   N199    1.434   .     S
C183   C605    1.389   1_545 S
C184   C189    1.409   .     A
C184   N202    1.434   .     S
C184   C396    1.389   .     S
C185   H187    1.084   .     S
C185   C393    1.389   .     S
C185   C49     1.399   1_655 S
C186   H188    1.084   .     S
C186   C604    1.389   1_545 S
C190   C46     1.399   1_655 S
C191   C195    1.417   .     A
C191   H193    1.082   .     S
C191   N198    1.361   .     A
C192   H194    1.082   .     S
C192   N197    1.362   .     A
C192   C196    1.417   .     A
C195   N197    1.377   .     A
C195   N205    1.426   .     S
C196   N198    1.377   .     A
C196   N208    1.426   .     S
N199   H200    1.046   .     S
N199   H201    1.046   .     S
N202   H203    1.046   .     S
N202   H204    1.046   .     S
N205   O207    1.300   .     A
N205   O206    1.300   .     A
N208   O210    1.300   .     A
N208   O209    1.300   .     A
O211   Cu223   1.964   .     S
O211   C355    1.295   1_455 S
O212   Cu224   1.964   .     S
O212   C286    1.295   .     S
O213   Cu224   1.964   .     S
O213   C215    1.290   .     A
O214   C216    1.290   .     A
O214   Cu223   1.964   .     S
C215   C260    1.449   .     S
C215   O281    1.295   .     S
C216   C259    1.450   .     S
C216   O352    1.295   1_455 S
O217   Cu223   1.954   .     S
O217   C361    1.300   1_455 S
O218   Cu224   1.954   .     S
O218   C292    1.299   .     S
O219   Cu224   1.938   .     S
O219   C221    1.296   .     A
O220   C222    1.295   .     A
O220   Cu223   1.938   .     S
C221   C225    1.469   .     S
C221   O287    1.300   .     S
C222   C226    1.467   .     S
C222   O358    1.299   1_455 S
Cu223  N267    2.018   .     S
Cu223  Cu364   2.685   1_455 S
Cu224  N268    2.018   .     S
Cu224  Cu293   2.685   .     S
C225   C229    1.398   .     A
C225   C231    1.400   .     A
C226   C230    1.398   .     A
C226   C232    1.399   .     A
C227   C235    1.404   .     A
C227   C229    1.391   .     A
C227   H249    1.083   .     S
C228   C230    1.392   .     A
C228   C236    1.404   .     A
C228   H250    1.084   .     S
C229   H318    1.082   .     S
C230   H387    1.083   1_455 S
C231   C233    1.406   .     A
C231   H246    1.074   .     S
C232   H245    1.075   .     S
C232   C234    1.406   .     A
C233   C237    1.429   .     A
C233   C235    1.419   .     A
C234   C236    1.418   .     A
C234   C238    1.428   .     A
C235   C871    1.390   .     S
C236   C872    1.390   1_554 S
C237   C240    1.418   .     A
C237   C868    1.426   .     S
C238   C239    1.417   .     A
C238   C867    1.426   1_554 S
C239   H251    1.076   .     S
C239   C241    1.386   .     A
C240   C242    1.386   .     A
C240   H252    1.075   .     S
C241   H243    1.084   .     S
C241   C865    1.390   1_554 S
C242   H244    1.085   .     S
C242   C866    1.390   .     S
H247   C300    1.083   .     S
H248   C369    1.082   1_455 S
C253   C260    1.409   .     A
C253   N269    1.434   .     S
C254   C259    1.409   .     A
C254   N272    1.434   .     S
C254   C466    1.389   .     S
C255   H257    1.084   .     S
C255   C463    1.389   .     S
C255   C329    1.399   .     S
C256   H258    1.084   .     S
C256   C400    1.399   1_455 S
C259   C395    1.399   1_455 S
C260   C326    1.399   .     S
C261   C265    1.417   .     A
C261   H263    1.082   .     S
C261   N268    1.361   .     A
C262   H264    1.082   .     S
C262   N267    1.362   .     A
C262   C266    1.417   .     A
C265   N267    1.377   .     A
C265   N275    1.426   .     S
C266   N268    1.377   .     A
C266   N278    1.426   .     S
N269   H270    1.046   .     S
N269   H271    1.046   .     S
N272   H273    1.046   .     S
N272   H274    1.046   .     S
N275   O277    1.300   .     A
N275   O276    1.300   .     A
N278   O280    1.300   .     A
N278   O279    1.300   .     A
O281   Cu293   1.964   .     S
O282   Cu294   1.964   .     S
O282   C356    1.295   .     S
O283   Cu294   1.964   .     S
O283   C285    1.290   .     A
O284   C286    1.290   .     A
O284   Cu293   1.964   .     S
C285   C330    1.449   .     S
C285   O351    1.295   .     S
C286   C329    1.450   .     S
O287   Cu293   1.954   .     S
O288   Cu294   1.954   .     S
O288   C362    1.299   .     S
O289   Cu294   1.938   .     S
O289   C291    1.296   .     A
O290   C292    1.295   .     A
O290   Cu293   1.938   .     S
C291   C295    1.469   .     S
C291   O357    1.300   .     S
C292   C296    1.467   .     S
Cu293  N337    2.018   .     S
Cu294  N338    2.018   .     S
Cu294  Cu363   2.685   .     S
C295   C299    1.398   .     A
C295   C301    1.400   .     A
C296   C300    1.398   .     A
C296   C302    1.399   .     A
C297   C305    1.404   .     A
C297   C299    1.391   .     A
C297   H319    1.083   .     S
C298   C300    1.392   .     A
C298   C306    1.404   .     A
C298   H320    1.084   .     S
C299   H388    1.082   .     S
C301   C303    1.406   .     A
C301   H316    1.074   .     S
C302   H315    1.075   .     S
C302   C304    1.406   .     A
C303   C307    1.429   .     A
C303   C305    1.419   .     A
C304   C306    1.418   .     A
C304   C308    1.428   .     A
C305   C941    1.390   .     S
C306   C942    1.390   1_554 S
C307   C310    1.418   .     A
C307   C938    1.426   .     S
C308   C309    1.417   .     A
C308   C937    1.426   1_554 S
C309   H321    1.076   .     S
C309   C311    1.386   .     A
C310   C312    1.386   .     A
C310   H322    1.075   .     S
C311   H313    1.084   .     S
C311   C935    1.390   1_554 S
C312   H314    1.085   .     S
C312   C936    1.390   .     S
H317   C370    1.083   .     S
C323   C330    1.409   .     A
C323   N339    1.434   .     S
C324   C329    1.409   .     A
C324   N342    1.434   .     S
C324   C536    1.389   .     S
C325   H327    1.084   .     S
C325   C533    1.389   .     S
C325   C399    1.399   .     S
C326   H328    1.084   .     S
C330   C396    1.399   .     S
C331   C335    1.417   .     A
C331   H333    1.082   .     S
C331   N338    1.361   .     A
C332   H334    1.082   .     S
C332   N337    1.362   .     A
C332   C336    1.417   .     A
C335   N337    1.377   .     A
C335   N345    1.426   .     S
C336   N338    1.377   .     A
C336   N348    1.426   .     S
N339   H340    1.046   .     S
N339   H341    1.046   .     S
N342   H343    1.046   .     S
N342   H344    1.046   .     S
N345   O347    1.300   .     A
N345   O346    1.300   .     A
N348   O350    1.300   .     A
N348   O349    1.300   .     A
O351   Cu363   1.964   .     S
O352   Cu364   1.964   .     S
O352   C216    1.295   1_655 S
O353   Cu364   1.964   .     S
O353   C355    1.290   .     A
O354   C356    1.290   .     A
O354   Cu363   1.964   .     S
C355   C400    1.449   .     S
C355   O211    1.295   1_655 S
C356   C399    1.450   .     S
O357   Cu363   1.954   .     S
O358   Cu364   1.954   .     S
O358   C222    1.299   1_655 S
O359   Cu364   1.938   .     S
O359   C361    1.296   .     A
O360   C362    1.295   .     A
O360   Cu363   1.938   .     S
C361   C365    1.469   .     S
C361   O217    1.300   1_655 S
C362   C366    1.467   .     S
Cu363  N407    2.018   .     S
Cu364  N408    2.018   .     S
Cu364  Cu223   2.685   1_655 S
C365   C369    1.398   .     A
C365   C371    1.400   .     A
C366   C370    1.398   .     A
C366   C372    1.399   .     A
C367   C375    1.404   .     A
C367   C369    1.391   .     A
C367   H389    1.083   .     S
C368   C370    1.392   .     A
C368   C376    1.404   .     A
C368   H390    1.084   .     S
C369   H248    1.082   1_655 S
C371   C373    1.406   .     A
C371   H386    1.074   .     S
C372   H385    1.075   .     S
C372   C374    1.406   .     A
C373   C377    1.429   .     A
C373   C375    1.419   .     A
C374   C376    1.418   .     A
C374   C378    1.428   .     A
C375   C1011   1.390   .     S
C376   C1012   1.390   1_554 S
C377   C380    1.418   .     A
C377   C1008   1.426   .     S
C378   C379    1.417   .     A
C378   C1007   1.426   1_554 S
C379   H391    1.076   .     S
C379   C381    1.386   .     A
C380   C382    1.386   .     A
C380   H392    1.075   .     S
C381   H383    1.084   .     S
C381   C1005   1.390   1_554 S
C382   H384    1.085   .     S
C382   C1006   1.390   .     S
H387   C230    1.083   1_655 S
C393   C400    1.409   .     A
C393   N409    1.434   .     S
C394   C399    1.409   .     A
C394   N412    1.434   .     S
C394   C606    1.389   .     S
C395   H397    1.084   .     S
C395   C603    1.389   .     S
C395   C259    1.399   1_655 S
C396   H398    1.084   .     S
C400   C256    1.399   1_655 S
C401   C405    1.417   .     A
C401   H403    1.082   .     S
C401   N408    1.361   .     A
C402   H404    1.082   .     S
C402   N407    1.362   .     A
C402   C406    1.417   .     A
C405   N407    1.377   .     A
C405   N415    1.426   .     S
C406   N408    1.377   .     A
C406   N418    1.426   .     S
N409   H410    1.046   .     S
N409   H411    1.046   .     S
N412   H413    1.046   .     S
N412   H414    1.046   .     S
N415   O417    1.300   .     A
N415   O416    1.300   .     A
N418   O420    1.300   .     A
N418   O419    1.300   .     A
O421   Cu433   1.964   .     S
O421   C565    1.295   1_455 S
O422   Cu434   1.964   .     S
O422   C496    1.295   .     S
O423   Cu434   1.964   .     S
O423   C425    1.290   .     A
O424   C426    1.290   .     A
O424   Cu433   1.964   .     S
C425   C470    1.449   .     S
C425   O491    1.295   .     S
C426   C469    1.450   .     S
C426   O562    1.295   1_455 S
O427   Cu433   1.954   .     S
O427   C571    1.300   1_455 S
O428   Cu434   1.954   .     S
O428   C502    1.299   .     S
O429   Cu434   1.938   .     S
O429   C431    1.296   .     A
O430   C432    1.295   .     A
O430   Cu433   1.938   .     S
C431   C435    1.469   .     S
C431   O497    1.300   .     S
C432   C436    1.467   .     S
C432   O568    1.299   1_455 S
Cu433  N477    2.018   .     S
Cu433  Cu574   2.685   1_455 S
Cu434  N478    2.018   .     S
Cu434  Cu503   2.685   .     S
C435   C439    1.398   .     A
C435   C441    1.400   .     A
C436   C440    1.398   .     A
C436   C442    1.399   .     A
C437   C445    1.404   .     A
C437   C439    1.391   .     A
C437   H459    1.083   .     S
C438   C440    1.392   .     A
C438   C446    1.404   .     A
C438   H460    1.084   .     S
C439   H528    1.082   .     S
C440   H597    1.083   1_455 S
C441   C443    1.406   .     A
C441   H456    1.074   .     S
C442   H455    1.075   .     S
C442   C444    1.406   .     A
C443   C447    1.429   .     A
C443   C445    1.419   .     A
C444   C446    1.418   .     A
C444   C448    1.428   .     A
C445   C1081   1.390   .     S
C446   C1082   1.390   1_554 S
C447   C450    1.418   .     A
C447   C1078   1.426   .     S
C448   C449    1.417   .     A
C448   C1077   1.426   1_554 S
C449   H461    1.076   .     S
C449   C451    1.386   .     A
C450   C452    1.386   .     A
C450   H462    1.075   .     S
C451   H453    1.084   .     S
C451   C1075   1.390   1_554 S
C452   H454    1.085   .     S
C452   C1076   1.390   .     S
H457   C510    1.083   .     S
H458   C579    1.082   1_455 S
C463   C470    1.409   .     A
C463   N479    1.434   .     S
C464   C469    1.409   .     A
C464   N482    1.434   .     S
C464   C46     1.389   1_565 S
C465   H467    1.084   .     S
C465   C43     1.389   1_565 S
C465   C539    1.399   .     S
C466   H468    1.084   .     S
C466   C610    1.399   1_455 S
C469   C605    1.399   1_455 S
C470   C536    1.399   .     S
C471   C475    1.417   .     A
C471   H473    1.082   .     S
C471   N478    1.361   .     A
C472   H474    1.082   .     S
C472   N477    1.362   .     A
C472   C476    1.417   .     A
C475   N477    1.377   .     A
C475   N485    1.426   .     S
C476   N478    1.377   .     A
C476   N488    1.426   .     S
N479   H480    1.046   .     S
N479   H481    1.046   .     S
N482   H483    1.046   .     S
N482   H484    1.046   .     S
N485   O487    1.300   .     A
N485   O486    1.300   .     A
N488   O490    1.300   .     A
N488   O489    1.300   .     A
O491   Cu503   1.964   .     S
O492   Cu504   1.964   .     S
O492   C566    1.295   .     S
O493   Cu504   1.964   .     S
O493   C495    1.290   .     A
O494   C496    1.290   .     A
O494   Cu503   1.964   .     S
C495   C540    1.449   .     S
C495   O561    1.295   .     S
C496   C539    1.450   .     S
O497   Cu503   1.954   .     S
O498   Cu504   1.954   .     S
O498   C572    1.299   .     S
O499   Cu504   1.938   .     S
O499   C501    1.296   .     A
O500   C502    1.295   .     A
O500   Cu503   1.938   .     S
C501   C505    1.469   .     S
C501   O567    1.300   .     S
C502   C506    1.467   .     S
Cu503  N547    2.018   .     S
Cu504  N548    2.018   .     S
Cu504  Cu573   2.685   .     S
C505   C509    1.398   .     A
C505   C511    1.400   .     A
C506   C510    1.398   .     A
C506   C512    1.399   .     A
C507   C515    1.404   .     A
C507   C509    1.391   .     A
C507   H529    1.083   .     S
C508   C510    1.392   .     A
C508   C516    1.404   .     A
C508   H530    1.084   .     S
C509   H598    1.082   .     S
C511   C513    1.406   .     A
C511   H526    1.074   .     S
C512   H525    1.075   .     S
C512   C514    1.406   .     A
C513   C517    1.429   .     A
C513   C515    1.419   .     A
C514   C516    1.418   .     A
C514   C518    1.428   .     A
C515   C1151   1.390   .     S
C516   C1152   1.390   1_554 S
C517   C520    1.418   .     A
C517   C1148   1.426   .     S
C518   C519    1.417   .     A
C518   C1147   1.426   1_554 S
C519   H531    1.076   .     S
C519   C521    1.386   .     A
C520   C522    1.386   .     A
C520   H532    1.075   .     S
C521   H523    1.084   .     S
C521   C1145   1.390   1_554 S
C522   H524    1.085   .     S
C522   C1146   1.390   .     S
H527   C580    1.083   .     S
C533   C540    1.409   .     A
C533   N549    1.434   .     S
C534   C539    1.409   .     A
C534   N552    1.434   .     S
C534   C116    1.389   1_565 S
C535   H537    1.084   .     S
C535   C113    1.389   1_565 S
C535   C609    1.399   .     S
C536   H538    1.084   .     S
C540   C606    1.399   .     S
C541   C545    1.417   .     A
C541   H543    1.082   .     S
C541   N548    1.361   .     A
C542   H544    1.082   .     S
C542   N547    1.362   .     A
C542   C546    1.417   .     A
C545   N547    1.377   .     A
C545   N555    1.426   .     S
C546   N548    1.377   .     A
C546   N558    1.426   .     S
N549   H550    1.046   .     S
N549   H551    1.046   .     S
N552   H553    1.046   .     S
N552   H554    1.046   .     S
N555   O557    1.300   .     A
N555   O556    1.300   .     A
N558   O560    1.300   .     A
N558   O559    1.300   .     A
O561   Cu573   1.964   .     S
O562   Cu574   1.964   .     S
O562   C426    1.295   1_655 S
O563   Cu574   1.964   .     S
O563   C565    1.290   .     A
O564   C566    1.290   .     A
O564   Cu573   1.964   .     S
C565   C610    1.449   .     S
C565   O421    1.295   1_655 S
C566   C609    1.450   .     S
O567   Cu573   1.954   .     S
O568   Cu574   1.954   .     S
O568   C432    1.299   1_655 S
O569   Cu574   1.938   .     S
O569   C571    1.296   .     A
O570   C572    1.295   .     A
O570   Cu573   1.938   .     S
C571   C575    1.469   .     S
C571   O427    1.300   1_655 S
C572   C576    1.467   .     S
Cu573  N617    2.018   .     S
Cu574  N618    2.018   .     S
Cu574  Cu433   2.685   1_655 S
C575   C579    1.398   .     A
C575   C581    1.400   .     A
C576   C580    1.398   .     A
C576   C582    1.399   .     A
C577   C585    1.404   .     A
C577   C579    1.391   .     A
C577   H599    1.083   .     S
C578   C580    1.392   .     A
C578   C586    1.404   .     A
C578   H600    1.084   .     S
C579   H458    1.082   1_655 S
C581   C583    1.406   .     A
C581   H596    1.074   .     S
C582   H595    1.075   .     S
C582   C584    1.406   .     A
C583   C587    1.429   .     A
C583   C585    1.419   .     A
C584   C586    1.418   .     A
C584   C588    1.428   .     A
C585   C1221   1.390   .     S
C586   C1222   1.390   1_554 S
C587   C590    1.418   .     A
C587   C1218   1.426   .     S
C588   C589    1.417   .     A
C588   C1217   1.426   1_554 S
C589   H601    1.076   .     S
C589   C591    1.386   .     A
C590   C592    1.386   .     A
C590   H602    1.075   .     S
C591   H593    1.084   .     S
C591   C1215   1.390   1_554 S
C592   H594    1.085   .     S
C592   C1216   1.390   .     S
H597   C440    1.083   1_655 S
C603   C610    1.409   .     A
C603   N619    1.434   .     S
C604   C609    1.409   .     A
C604   N622    1.434   .     S
C604   C186    1.389   1_565 S
C605   H607    1.084   .     S
C605   C183    1.389   1_565 S
C605   C469    1.399   1_655 S
C606   H608    1.084   .     S
C610   C466    1.399   1_655 S
C611   C615    1.417   .     A
C611   H613    1.082   .     S
C611   N618    1.361   .     A
C612   H614    1.082   .     S
C612   N617    1.362   .     A
C612   C616    1.417   .     A
C615   N617    1.377   .     A
C615   N625    1.426   .     S
C616   N618    1.377   .     A
C616   N628    1.426   .     S
N619   H620    1.046   .     S
N619   H621    1.046   .     S
N622   H623    1.046   .     S
N622   H624    1.046   .     S
N625   O627    1.300   .     A
N625   O626    1.300   .     A
N628   O630    1.300   .     A
N628   O629    1.300   .     A
O631   Cu643   1.964   .     S
O631   C775    1.295   1_455 S
O632   Cu644   1.964   .     S
O632   C706    1.295   .     S
O633   Cu644   1.964   .     S
O633   C635    1.290   .     A
O634   C636    1.290   .     A
O634   Cu643   1.964   .     S
C635   C680    1.449   .     S
C635   O701    1.295   .     S
C636   C679    1.450   .     S
C636   O772    1.295   1_455 S
O637   Cu643   1.954   .     S
O637   C781    1.300   1_455 S
O638   Cu644   1.954   .     S
O638   C712    1.299   .     S
O639   Cu644   1.938   .     S
O639   C641    1.296   .     A
O640   C642    1.295   .     A
O640   Cu643   1.938   .     S
C641   C645    1.469   .     S
C641   O707    1.300   .     S
C642   C646    1.467   .     S
C642   O778    1.299   1_455 S
Cu643  N687    2.018   .     S
Cu643  Cu784   2.685   1_455 S
Cu644  N688    2.018   .     S
Cu644  Cu713   2.685   .     S
C645   C649    1.398   .     A
C645   C651    1.400   .     A
C646   C650    1.398   .     A
C646   C652    1.399   .     A
C647   C655    1.404   .     A
C647   C649    1.391   .     A
C647   H669    1.083   .     S
C648   C650    1.392   .     A
C648   C656    1.404   .     A
C648   H670    1.084   .     S
C649   H738    1.082   .     S
C650   H807    1.083   1_455 S
C651   C653    1.406   .     A
C651   H666    1.074   .     S
C652   H665    1.075   .     S
C652   C654    1.406   .     A
C653   C657    1.429   .     A
C653   C655    1.419   .     A
C654   C656    1.418   .     A
C654   C658    1.428   .     A
C655   C31     1.390   1_556 S
C657   C660    1.418   .     A
C657   C28     1.426   1_556 S
C658   C659    1.417   .     A
C659   H671    1.076   .     S
C659   C661    1.386   .     A
C660   C662    1.386   .     A
C660   H672    1.075   .     S
C661   H663    1.084   .     S
C662   H664    1.085   .     S
C662   C26     1.390   1_556 S
H667   C720    1.083   .     S
H668   C789    1.082   1_455 S
C673   C680    1.409   .     A
C673   N689    1.434   .     S
C673   C1095   1.389   1_545 S
C674   C679    1.409   .     A
C674   N692    1.434   .     S
C674   C886    1.389   .     S
C675   H677    1.084   .     S
C675   C883    1.389   .     S
C675   C749    1.399   .     S
C676   H678    1.084   .     S
C676   C1094   1.389   1_545 S
C676   C820    1.399   1_455 S
C679   C815    1.399   1_455 S
C680   C746    1.399   .     S
C681   C685    1.417   .     A
C681   H683    1.082   .     S
C681   N688    1.361   .     A
C682   H684    1.082   .     S
C682   N687    1.362   .     A
C682   C686    1.417   .     A
C685   N687    1.377   .     A
C685   N695    1.426   .     S
C686   N688    1.377   .     A
C686   N698    1.426   .     S
N689   H690    1.046   .     S
N689   H691    1.046   .     S
N692   H693    1.046   .     S
N692   H694    1.046   .     S
N695   O697    1.300   .     A
N695   O696    1.300   .     A
N698   O700    1.300   .     A
N698   O699    1.300   .     A
O701   Cu713   1.964   .     S
O702   Cu714   1.964   .     S
O702   C776    1.295   .     S
O703   Cu714   1.964   .     S
O703   C705    1.290   .     A
O704   C706    1.290   .     A
O704   Cu713   1.964   .     S
C705   C750    1.449   .     S
C705   O771    1.295   .     S
C706   C749    1.450   .     S
O707   Cu713   1.954   .     S
O708   Cu714   1.954   .     S
O708   C782    1.299   .     S
O709   Cu714   1.938   .     S
O709   C711    1.296   .     A
O710   C712    1.295   .     A
O710   Cu713   1.938   .     S
C711   C715    1.469   .     S
C711   O777    1.300   .     S
C712   C716    1.467   .     S
Cu713  N757    2.018   .     S
Cu714  N758    2.018   .     S
Cu714  Cu783   2.685   .     S
C715   C719    1.398   .     A
C715   C721    1.400   .     A
C716   C720    1.398   .     A
C716   C722    1.399   .     A
C717   C725    1.404   .     A
C717   C719    1.391   .     A
C717   H739    1.083   .     S
C718   C720    1.392   .     A
C718   C726    1.404   .     A
C718   H740    1.084   .     S
C719   H808    1.082   .     S
C721   C723    1.406   .     A
C721   H736    1.074   .     S
C722   H735    1.075   .     S
C722   C724    1.406   .     A
C723   C727    1.429   .     A
C723   C725    1.419   .     A
C724   C726    1.418   .     A
C724   C728    1.428   .     A
C725   C101    1.390   1_556 S
C727   C730    1.418   .     A
C727   C98     1.426   1_556 S
C728   C729    1.417   .     A
C729   H741    1.076   .     S
C729   C731    1.386   .     A
C730   C732    1.386   .     A
C730   H742    1.075   .     S
C731   H733    1.084   .     S
C732   H734    1.085   .     S
C732   C96     1.390   1_556 S
H737   C790    1.083   .     S
C743   C750    1.409   .     A
C743   N759    1.434   .     S
C743   C1165   1.389   1_545 S
C744   C749    1.409   .     A
C744   N762    1.434   .     S
C744   C956    1.389   .     S
C745   H747    1.084   .     S
C745   C953    1.389   .     S
C745   C819    1.399   .     S
C746   H748    1.084   .     S
C746   C1164   1.389   1_545 S
C750   C816    1.399   .     S
C751   C755    1.417   .     A
C751   H753    1.082   .     S
C751   N758    1.361   .     A
C752   H754    1.082   .     S
C752   N757    1.362   .     A
C752   C756    1.417   .     A
C755   N757    1.377   .     A
C755   N765    1.426   .     S
C756   N758    1.377   .     A
C756   N768    1.426   .     S
N759   H760    1.046   .     S
N759   H761    1.046   .     S
N762   H763    1.046   .     S
N762   H764    1.046   .     S
N765   O767    1.300   .     A
N765   O766    1.300   .     A
N768   O770    1.300   .     A
N768   O769    1.300   .     A
O771   Cu783   1.964   .     S
O772   Cu784   1.964   .     S
O772   C636    1.295   1_655 S
O773   Cu784   1.964   .     S
O773   C775    1.290   .     A
O774   C776    1.290   .     A
O774   Cu783   1.964   .     S
C775   C820    1.449   .     S
C775   O631    1.295   1_655 S
C776   C819    1.450   .     S
O777   Cu783   1.954   .     S
O778   Cu784   1.954   .     S
O778   C642    1.299   1_655 S
O779   Cu784   1.938   .     S
O779   C781    1.296   .     A
O780   C782    1.295   .     A
O780   Cu783   1.938   .     S
C781   C785    1.469   .     S
C781   O637    1.300   1_655 S
C782   C786    1.467   .     S
Cu783  N827    2.018   .     S
Cu784  N828    2.018   .     S
Cu784  Cu643   2.685   1_655 S
C785   C789    1.398   .     A
C785   C791    1.400   .     A
C786   C790    1.398   .     A
C786   C792    1.399   .     A
C787   C795    1.404   .     A
C787   C789    1.391   .     A
C787   H809    1.083   .     S
C788   C790    1.392   .     A
C788   C796    1.404   .     A
C788   H810    1.084   .     S
C789   H668    1.082   1_655 S
C791   C793    1.406   .     A
C791   H806    1.074   .     S
C792   H805    1.075   .     S
C792   C794    1.406   .     A
C793   C797    1.429   .     A
C793   C795    1.419   .     A
C794   C796    1.418   .     A
C794   C798    1.428   .     A
C795   C171    1.390   1_556 S
C797   C800    1.418   .     A
C797   C168    1.426   1_556 S
C798   C799    1.417   .     A
C799   H811    1.076   .     S
C799   C801    1.386   .     A
C800   C802    1.386   .     A
C800   H812    1.075   .     S
C801   H803    1.084   .     S
C802   H804    1.085   .     S
C802   C166    1.390   1_556 S
H807   C650    1.083   1_655 S
C813   C820    1.409   .     A
C813   N829    1.434   .     S
C813   C1235   1.389   1_545 S
C814   C819    1.409   .     A
C814   N832    1.434   .     S
C814   C1026   1.389   .     S
C815   H817    1.084   .     S
C815   C1023   1.389   .     S
C815   C679    1.399   1_655 S
C816   H818    1.084   .     S
C816   C1234   1.389   1_545 S
C820   C676    1.399   1_655 S
C821   C825    1.417   .     A
C821   H823    1.082   .     S
C821   N828    1.361   .     A
C822   H824    1.082   .     S
C822   N827    1.362   .     A
C822   C826    1.417   .     A
C825   N827    1.377   .     A
C825   N835    1.426   .     S
C826   N828    1.377   .     A
C826   N838    1.426   .     S
N829   H830    1.046   .     S
N829   H831    1.046   .     S
N832   H833    1.046   .     S
N832   H834    1.046   .     S
N835   O837    1.300   .     A
N835   O836    1.300   .     A
N838   O840    1.300   .     A
N838   O839    1.300   .     A
O841   Cu853   1.964   .     S
O841   C985    1.295   1_455 S
O842   Cu854   1.964   .     S
O842   C916    1.295   .     S
O843   Cu854   1.964   .     S
O843   C845    1.290   .     A
O844   C846    1.290   .     A
O844   Cu853   1.964   .     S
C845   C890    1.449   .     S
C845   O911    1.295   .     S
C846   C889    1.450   .     S
C846   O982    1.295   1_455 S
O847   Cu853   1.954   .     S
O847   C991    1.300   1_455 S
O848   Cu854   1.954   .     S
O848   C922    1.299   .     S
O849   Cu854   1.938   .     S
O849   C851    1.296   .     A
O850   C852    1.295   .     A
O850   Cu853   1.938   .     S
C851   C855    1.469   .     S
C851   O917    1.300   .     S
C852   C856    1.467   .     S
C852   O988    1.299   1_455 S
Cu853  N897    2.018   .     S
Cu853  Cu994   2.685   1_455 S
Cu854  N898    2.018   .     S
Cu854  Cu923   2.685   .     S
C855   C859    1.398   .     A
C855   C861    1.400   .     A
C856   C860    1.398   .     A
C856   C862    1.399   .     A
C857   C865    1.404   .     A
C857   C859    1.391   .     A
C857   H879    1.083   .     S
C858   C860    1.392   .     A
C858   C866    1.404   .     A
C858   H880    1.084   .     S
C859   H948    1.082   .     S
C860   H1017   1.083   1_455 S
C861   C863    1.406   .     A
C861   H876    1.074   .     S
C862   H875    1.075   .     S
C862   C864    1.406   .     A
C863   C867    1.429   .     A
C863   C865    1.419   .     A
C864   C866    1.418   .     A
C864   C868    1.428   .     A
C865   C241    1.390   1_556 S
C867   C870    1.418   .     A
C867   C238    1.426   1_556 S
C868   C869    1.417   .     A
C869   H881    1.076   .     S
C869   C871    1.386   .     A
C870   C872    1.386   .     A
C870   H882    1.075   .     S
C871   H873    1.084   .     S
C872   H874    1.085   .     S
C872   C236    1.390   1_556 S
H877   C930    1.083   .     S
H878   C999    1.082   1_455 S
C883   C890    1.409   .     A
C883   N899    1.434   .     S
C884   C889    1.409   .     A
C884   N902    1.434   .     S
C884   C1096   1.389   .     S
C885   H887    1.084   .     S
C885   C1093   1.389   .     S
C885   C959    1.399   .     S
C886   H888    1.084   .     S
C886   C1030   1.399   1_455 S
C889   C1025   1.399   1_455 S
C890   C956    1.399   .     S
C891   C895    1.417   .     A
C891   H893    1.082   .     S
C891   N898    1.361   .     A
C892   H894    1.082   .     S
C892   N897    1.362   .     A
C892   C896    1.417   .     A
C895   N897    1.377   .     A
C895   N905    1.426   .     S
C896   N898    1.377   .     A
C896   N908    1.426   .     S
N899   H900    1.046   .     S
N899   H901    1.046   .     S
N902   H903    1.046   .     S
N902   H904    1.046   .     S
N905   O907    1.300   .     A
N905   O906    1.300   .     A
N908   O910    1.300   .     A
N908   O909    1.300   .     A
O911   Cu923   1.964   .     S
O912   Cu924   1.964   .     S
O912   C986    1.295   .     S
O913   Cu924   1.964   .     S
O913   C915    1.290   .     A
O914   C916    1.290   .     A
O914   Cu923   1.964   .     S
C915   C960    1.449   .     S
C915   O981    1.295   .     S
C916   C959    1.450   .     S
O917   Cu923   1.954   .     S
O918   Cu924   1.954   .     S
O918   C992    1.299   .     S
O919   Cu924   1.938   .     S
O919   C921    1.296   .     A
O920   C922    1.295   .     A
O920   Cu923   1.938   .     S
C921   C925    1.469   .     S
C921   O987    1.300   .     S
C922   C926    1.467   .     S
Cu923  N967    2.018   .     S
Cu924  N968    2.018   .     S
Cu924  Cu993   2.685   .     S
C925   C929    1.398   .     A
C925   C931    1.400   .     A
C926   C930    1.398   .     A
C926   C932    1.399   .     A
C927   C935    1.404   .     A
C927   C929    1.391   .     A
C927   H949    1.083   .     S
C928   C930    1.392   .     A
C928   C936    1.404   .     A
C928   H950    1.084   .     S
C929   H1018   1.082   .     S
C931   C933    1.406   .     A
C931   H946    1.074   .     S
C932   H945    1.075   .     S
C932   C934    1.406   .     A
C933   C937    1.429   .     A
C933   C935    1.419   .     A
C934   C936    1.418   .     A
C934   C938    1.428   .     A
C935   C311    1.390   1_556 S
C937   C940    1.418   .     A
C937   C308    1.426   1_556 S
C938   C939    1.417   .     A
C939   H951    1.076   .     S
C939   C941    1.386   .     A
C940   C942    1.386   .     A
C940   H952    1.075   .     S
C941   H943    1.084   .     S
C942   H944    1.085   .     S
C942   C306    1.390   1_556 S
H947   C1000   1.083   .     S
C953   C960    1.409   .     A
C953   N969    1.434   .     S
C954   C959    1.409   .     A
C954   N972    1.434   .     S
C954   C1166   1.389   .     S
C955   H957    1.084   .     S
C955   C1163   1.389   .     S
C955   C1029   1.399   .     S
C956   H958    1.084   .     S
C960   C1026   1.399   .     S
C961   C965    1.417   .     A
C961   H963    1.082   .     S
C961   N968    1.361   .     A
C962   H964    1.082   .     S
C962   N967    1.362   .     A
C962   C966    1.417   .     A
C965   N967    1.377   .     A
C965   N975    1.426   .     S
C966   N968    1.377   .     A
C966   N978    1.426   .     S
N969   H970    1.046   .     S
N969   H971    1.046   .     S
N972   H973    1.046   .     S
N972   H974    1.046   .     S
N975   O977    1.300   .     A
N975   O976    1.300   .     A
N978   O980    1.300   .     A
N978   O979    1.300   .     A
O981   Cu993   1.964   .     S
O982   Cu994   1.964   .     S
O982   C846    1.295   1_655 S
O983   Cu994   1.964   .     S
O983   C985    1.290   .     A
O984   C986    1.290   .     A
O984   Cu993   1.964   .     S
C985   C1030   1.449   .     S
C985   O841    1.295   1_655 S
C986   C1029   1.450   .     S
O987   Cu993   1.954   .     S
O988   Cu994   1.954   .     S
O988   C852    1.299   1_655 S
O989   Cu994   1.938   .     S
O989   C991    1.296   .     A
O990   C992    1.295   .     A
O990   Cu993   1.938   .     S
C991   C995    1.469   .     S
C991   O847    1.300   1_655 S
C992   C996    1.467   .     S
Cu993  N1037   2.018   .     S
Cu994  N1038   2.018   .     S
Cu994  Cu853   2.685   1_655 S
C995   C999    1.398   .     A
C995   C1001   1.400   .     A
C996   C1000   1.398   .     A
C996   C1002   1.399   .     A
C997   C1005   1.404   .     A
C997   C999    1.391   .     A
C997   H1019   1.083   .     S
C998   C1000   1.392   .     A
C998   C1006   1.404   .     A
C998   H1020   1.084   .     S
C999   H878    1.082   1_655 S
C1001  C1003   1.406   .     A
C1001  H1016   1.074   .     S
C1002  H1015   1.075   .     S
C1002  C1004   1.406   .     A
C1003  C1007   1.429   .     A
C1003  C1005   1.419   .     A
C1004  C1006   1.418   .     A
C1004  C1008   1.428   .     A
C1005  C381    1.390   1_556 S
C1007  C1010   1.418   .     A
C1007  C378    1.426   1_556 S
C1008  C1009   1.417   .     A
C1009  H1021   1.076   .     S
C1009  C1011   1.386   .     A
C1010  C1012   1.386   .     A
C1010  H1022   1.075   .     S
C1011  H1013   1.084   .     S
C1012  H1014   1.085   .     S
C1012  C376    1.390   1_556 S
H1017  C860    1.083   1_655 S
C1023  C1030   1.409   .     A
C1023  N1039   1.434   .     S
C1024  C1029   1.409   .     A
C1024  N1042   1.434   .     S
C1024  C1236   1.389   .     S
C1025  H1027   1.084   .     S
C1025  C1233   1.389   .     S
C1025  C889    1.399   1_655 S
C1026  H1028   1.084   .     S
C1030  C886    1.399   1_655 S
C1031  C1035   1.417   .     A
C1031  H1033   1.082   .     S
C1031  N1038   1.361   .     A
C1032  H1034   1.082   .     S
C1032  N1037   1.362   .     A
C1032  C1036   1.417   .     A
C1035  N1037   1.377   .     A
C1035  N1045   1.426   .     S
C1036  N1038   1.377   .     A
C1036  N1048   1.426   .     S
N1039  H1040   1.046   .     S
N1039  H1041   1.046   .     S
N1042  H1043   1.046   .     S
N1042  H1044   1.046   .     S
N1045  O1047   1.300   .     A
N1045  O1046   1.300   .     A
N1048  O1050   1.300   .     A
N1048  O1049   1.300   .     A
O1051  Cu1063  1.964   .     S
O1051  C1195   1.295   1_455 S
O1052  Cu1064  1.964   .     S
O1052  C1126   1.295   .     S
O1053  Cu1064  1.964   .     S
O1053  C1055   1.290   .     A
O1054  C1056   1.290   .     A
O1054  Cu1063  1.964   .     S
C1055  C1100   1.449   .     S
C1055  O1121   1.295   .     S
C1056  C1099   1.450   .     S
C1056  O1192   1.295   1_455 S
O1057  Cu1063  1.954   .     S
O1057  C1201   1.300   1_455 S
O1058  Cu1064  1.954   .     S
O1058  C1132   1.299   .     S
O1059  Cu1064  1.938   .     S
O1059  C1061   1.296   .     A
O1060  C1062   1.295   .     A
O1060  Cu1063  1.938   .     S
C1061  C1065   1.469   .     S
C1061  O1127   1.300   .     S
C1062  C1066   1.467   .     S
C1062  O1198   1.299   1_455 S
Cu1063 N1107   2.018   .     S
Cu1063 Cu1204  2.685   1_455 S
Cu1064 N1108   2.018   .     S
Cu1064 Cu1133  2.685   .     S
C1065  C1069   1.398   .     A
C1065  C1071   1.400   .     A
C1066  C1070   1.398   .     A
C1066  C1072   1.399   .     A
C1067  C1075   1.404   .     A
C1067  C1069   1.391   .     A
C1067  H1089   1.083   .     S
C1068  C1070   1.392   .     A
C1068  C1076   1.404   .     A
C1068  H1090   1.084   .     S
C1069  H1158   1.082   .     S
C1070  H1227   1.083   1_455 S
C1071  C1073   1.406   .     A
C1071  H1086   1.074   .     S
C1072  H1085   1.075   .     S
C1072  C1074   1.406   .     A
C1073  C1077   1.429   .     A
C1073  C1075   1.419   .     A
C1074  C1076   1.418   .     A
C1074  C1078   1.428   .     A
C1075  C451    1.390   1_556 S
C1077  C1080   1.418   .     A
C1077  C448    1.426   1_556 S
C1078  C1079   1.417   .     A
C1079  H1091   1.076   .     S
C1079  C1081   1.386   .     A
C1080  C1082   1.386   .     A
C1080  H1092   1.075   .     S
C1081  H1083   1.084   .     S
C1082  H1084   1.085   .     S
C1082  C446    1.390   1_556 S
H1087  C1140   1.083   .     S
H1088  C1209   1.082   1_455 S
C1093  C1100   1.409   .     A
C1093  N1109   1.434   .     S
C1094  C1099   1.409   .     A
C1094  N1112   1.434   .     S
C1094  C676    1.389   1_565 S
C1095  H1097   1.084   .     S
C1095  C673    1.389   1_565 S
C1095  C1169   1.399   .     S
C1096  H1098   1.084   .     S
C1096  C1240   1.399   1_455 S
C1099  C1235   1.399   1_455 S
C1100  C1166   1.399   .     S
C1101  C1105   1.417   .     A
C1101  H1103   1.082   .     S
C1101  N1108   1.361   .     A
C1102  H1104   1.082   .     S
C1102  N1107   1.362   .     A
C1102  C1106   1.417   .     A
C1105  N1107   1.377   .     A
C1105  N1115   1.426   .     S
C1106  N1108   1.377   .     A
C1106  N1118   1.426   .     S
N1109  H1110   1.046   .     S
N1109  H1111   1.046   .     S
N1112  H1113   1.046   .     S
N1112  H1114   1.046   .     S
N1115  O1117   1.300   .     A
N1115  O1116   1.300   .     A
N1118  O1120   1.300   .     A
N1118  O1119   1.300   .     A
O1121  Cu1133  1.964   .     S
O1122  Cu1134  1.964   .     S
O1122  C1196   1.295   .     S
O1123  Cu1134  1.964   .     S
O1123  C1125   1.290   .     A
O1124  C1126   1.290   .     A
O1124  Cu1133  1.964   .     S
C1125  C1170   1.449   .     S
C1125  O1191   1.295   .     S
C1126  C1169   1.450   .     S
O1127  Cu1133  1.954   .     S
O1128  Cu1134  1.954   .     S
O1128  C1202   1.299   .     S
O1129  Cu1134  1.938   .     S
O1129  C1131   1.296   .     A
O1130  C1132   1.295   .     A
O1130  Cu1133  1.938   .     S
C1131  C1135   1.469   .     S
C1131  O1197   1.300   .     S
C1132  C1136   1.467   .     S
Cu1133 N1177   2.018   .     S
Cu1134 N1178   2.018   .     S
Cu1134 Cu1203  2.685   .     S
C1135  C1139   1.398   .     A
C1135  C1141   1.400   .     A
C1136  C1140   1.398   .     A
C1136  C1142   1.399   .     A
C1137  C1145   1.404   .     A
C1137  C1139   1.391   .     A
C1137  H1159   1.083   .     S
C1138  C1140   1.392   .     A
C1138  C1146   1.404   .     A
C1138  H1160   1.084   .     S
C1139  H1228   1.082   .     S
C1141  C1143   1.406   .     A
C1141  H1156   1.074   .     S
C1142  H1155   1.075   .     S
C1142  C1144   1.406   .     A
C1143  C1147   1.429   .     A
C1143  C1145   1.419   .     A
C1144  C1146   1.418   .     A
C1144  C1148   1.428   .     A
C1145  C521    1.390   1_556 S
C1147  C1150   1.418   .     A
C1147  C518    1.426   1_556 S
C1148  C1149   1.417   .     A
C1149  H1161   1.076   .     S
C1149  C1151   1.386   .     A
C1150  C1152   1.386   .     A
C1150  H1162   1.075   .     S
C1151  H1153   1.084   .     S
C1152  H1154   1.085   .     S
C1152  C516    1.390   1_556 S
H1157  C1210   1.083   .     S
C1163  C1170   1.409   .     A
C1163  N1179   1.434   .     S
C1164  C1169   1.409   .     A
C1164  N1182   1.434   .     S
C1164  C746    1.389   1_565 S
C1165  H1167   1.084   .     S
C1165  C743    1.389   1_565 S
C1165  C1239   1.399   .     S
C1166  H1168   1.084   .     S
C1170  C1236   1.399   .     S
C1171  C1175   1.417   .     A
C1171  H1173   1.082   .     S
C1171  N1178   1.361   .     A
C1172  H1174   1.082   .     S
C1172  N1177   1.362   .     A
C1172  C1176   1.417   .     A
C1175  N1177   1.377   .     A
C1175  N1185   1.426   .     S
C1176  N1178   1.377   .     A
C1176  N1188   1.426   .     S
N1179  H1180   1.046   .     S
N1179  H1181   1.046   .     S
N1182  H1183   1.046   .     S
N1182  H1184   1.046   .     S
N1185  O1187   1.300   .     A
N1185  O1186   1.300   .     A
N1188  O1190   1.300   .     A
N1188  O1189   1.300   .     A
O1191  Cu1203  1.964   .     S
O1192  Cu1204  1.964   .     S
O1192  C1056   1.295   1_655 S
O1193  Cu1204  1.964   .     S
O1193  C1195   1.290   .     A
O1194  C1196   1.290   .     A
O1194  Cu1203  1.964   .     S
C1195  C1240   1.449   .     S
C1195  O1051   1.295   1_655 S
C1196  C1239   1.450   .     S
O1197  Cu1203  1.954   .     S
O1198  Cu1204  1.954   .     S
O1198  C1062   1.299   1_655 S
O1199  Cu1204  1.938   .     S
O1199  C1201   1.296   .     A
O1200  C1202   1.295   .     A
O1200  Cu1203  1.938   .     S
C1201  C1205   1.469   .     S
C1201  O1057   1.300   1_655 S
C1202  C1206   1.467   .     S
Cu1203 N1247   2.018   .     S
Cu1204 N1248   2.018   .     S
Cu1204 Cu1063  2.685   1_655 S
C1205  C1209   1.398   .     A
C1205  C1211   1.400   .     A
C1206  C1210   1.398   .     A
C1206  C1212   1.399   .     A
C1207  C1215   1.404   .     A
C1207  C1209   1.391   .     A
C1207  H1229   1.083   .     S
C1208  C1210   1.392   .     A
C1208  C1216   1.404   .     A
C1208  H1230   1.084   .     S
C1209  H1088   1.082   1_655 S
C1211  C1213   1.406   .     A
C1211  H1226   1.074   .     S
C1212  H1225   1.075   .     S
C1212  C1214   1.406   .     A
C1213  C1217   1.429   .     A
C1213  C1215   1.419   .     A
C1214  C1216   1.418   .     A
C1214  C1218   1.428   .     A
C1215  C591    1.390   1_556 S
C1217  C1220   1.418   .     A
C1217  C588    1.426   1_556 S
C1218  C1219   1.417   .     A
C1219  H1231   1.076   .     S
C1219  C1221   1.386   .     A
C1220  C1222   1.386   .     A
C1220  H1232   1.075   .     S
C1221  H1223   1.084   .     S
C1222  H1224   1.085   .     S
C1222  C586    1.390   1_556 S
H1227  C1070   1.083   1_655 S
C1233  C1240   1.409   .     A
C1233  N1249   1.434   .     S
C1234  C1239   1.409   .     A
C1234  N1252   1.434   .     S
C1234  C816    1.389   1_565 S
C1235  H1237   1.084   .     S
C1235  C813    1.389   1_565 S
C1235  C1099   1.399   1_655 S
C1236  H1238   1.084   .     S
C1240  C1096   1.399   1_655 S
C1241  C1245   1.417   .     A
C1241  H1243   1.082   .     S
C1241  N1248   1.361   .     A
C1242  H1244   1.082   .     S
C1242  N1247   1.362   .     A
C1242  C1246   1.417   .     A
C1245  N1247   1.377   .     A
C1245  N1255   1.426   .     S
C1246  N1248   1.377   .     A
C1246  N1258   1.426   .     S
N1249  H1250   1.046   .     S
N1249  H1251   1.046   .     S
N1252  H1253   1.046   .     S
N1252  H1254   1.046   .     S
N1255  O1257   1.300   .     A
N1255  O1256   1.300   .     A
N1258  O1260   1.300   .     A
N1258  O1259   1.300   .     A
