data_str_m3_o2_o5_pcu_sym.117
_audit_creation_date              2020-01-03
_audit_creation_method            'Materials Studio'
_symmetry_space_group_name_H-M    'P1'
_symmetry_Int_Tables_number       1
_symmetry_cell_setting            triclinic
loop_
_symmetry_equiv_pos_as_xyz
  x,y,z
_cell_length_a                    30.0253
_cell_length_b                    28.3005
_cell_length_c                    26.7533
_cell_angle_alpha                 89.9999
_cell_angle_beta                  89.9973
_cell_angle_gamma                 90.0000
loop_
_atom_site_label
_atom_site_type_symbol
_atom_site_fract_x
_atom_site_fract_y
_atom_site_fract_z
_atom_site_U_iso_or_equiv
_atom_site_adp_type
_atom_site_occupancy
C1     C     0.16386   0.25000   0.16667   0.00000  Uiso   1.00
C2     C     0.33614   0.25000   0.16666   0.00000  Uiso   1.00
C3     C     0.27648   0.10220   0.13400   0.00000  Uiso   1.00
C4     C     0.27650   0.39780   0.19932   0.00000  Uiso   1.00
C5     C     0.22352   0.10220   0.19933   0.00000  Uiso   1.00
C6     C     0.22350   0.39780   0.13402   0.00000  Uiso   1.00
C7     C     0.27703   0.05241   0.13320   0.00000  Uiso   1.00
C8     C     0.27705   0.44759   0.20011   0.00000  Uiso   1.00
C9     C     0.22297   0.05241   0.20013   0.00000  Uiso   1.00
C10    C     0.22295   0.44759   0.13322   0.00000  Uiso   1.00
C11    C     0.25000   0.25000   0.07282   0.00000  Uiso   1.00
C12    C     0.25000   0.25000   0.26051   0.00000  Uiso   1.00
C13    C     0.25000   0.02663   0.16667   0.00000  Uiso   1.00
C14    C     0.25000   0.47337   0.16667   0.00000  Uiso   1.00
C15    C     0.25000   0.25000   0.02178   0.00000  Uiso   1.00
C16    C     0.25000   0.25000   0.31156   0.00000  Uiso   1.00
C17    C     0.04704   0.28969   0.14915   0.00000  Uiso   1.00
C18    C     0.45296   0.21031   0.14915   0.00000  Uiso   1.00
C19    C     0.45296   0.28969   0.18418   0.00000  Uiso   1.00
C20    C     0.04704   0.21031   0.18418   0.00000  Uiso   1.00
C21    C     0.09302   0.28980   0.14943   0.00000  Uiso   1.00
C22    C     0.40698   0.21020   0.14942   0.00000  Uiso   1.00
C23    C     0.40698   0.28980   0.18390   0.00000  Uiso   1.00
C24    C     0.09302   0.21020   0.18391   0.00000  Uiso   1.00
C25    C     0.11599   0.25000   0.16667   0.00000  Uiso   1.00
C26    C     0.38401   0.25000   0.16666   0.00000  Uiso   1.00
C27    C     0.02405   0.25000   0.16667   0.00000  Uiso   1.00
C28    C     0.47595   0.25000   0.16666   0.00000  Uiso   1.00
H29    H     0.02945   0.32027   0.13488   0.00000  Uiso   1.00
H30    H     0.47055   0.17973   0.13488   0.00000  Uiso   1.00
H31    H     0.47055   0.32027   0.19845   0.00000  Uiso   1.00
H32    H     0.02945   0.17973   0.19845   0.00000  Uiso   1.00
N33    N     0.25000   0.12624   0.16667   0.00000  Uiso   1.00
N34    N     0.25000   0.37377   0.16667   0.00000  Uiso   1.00
O35    O     0.18453   0.28974   0.16667   0.00000  Uiso   1.00
O36    O     0.31547   0.21026   0.16666   0.00000  Uiso   1.00
O37    O     0.31547   0.28974   0.16666   0.00000  Uiso   1.00
O38    O     0.18453   0.21026   0.16667   0.00000  Uiso   1.00
O39    O     0.25000   0.28973   0.09511   0.00000  Uiso   1.00
O40    O     0.25000   0.21027   0.23822   0.00000  Uiso   1.00
O41    O     0.25000   0.28973   0.23822   0.00000  Uiso   1.00
O42    O     0.25000   0.21027   0.09511   0.00000  Uiso   1.00
Zn43   Zn    0.25000   0.30307   0.16667   0.00000  Uiso   1.00
Zn44   Zn    0.25000   0.19693   0.16667   0.00000  Uiso   1.00
H45    H     0.29734   0.12183   0.10837   0.00000  Uiso   1.00
H46    H     0.29737   0.37817   0.22493   0.00000  Uiso   1.00
H47    H     0.20266   0.12183   0.22496   0.00000  Uiso   1.00
H48    H     0.20263   0.37817   0.10840   0.00000  Uiso   1.00
H49    H     0.11055   0.32061   0.13560   0.00000  Uiso   1.00
H50    H     0.38945   0.17939   0.13559   0.00000  Uiso   1.00
H51    H     0.38945   0.32061   0.19774   0.00000  Uiso   1.00
H52    H     0.11055   0.17939   0.19774   0.00000  Uiso   1.00
Cl53   Cl    0.31198   0.02349   0.09017   0.00000  Uiso   1.00
Cl54   Cl    0.31201   0.47651   0.24312   0.00000  Uiso   1.00
Cl55   Cl    0.18803   0.02349   0.24316   0.00000  Uiso   1.00
Cl56   Cl    0.18799   0.47651   0.09021   0.00000  Uiso   1.00
C57    C     0.66386   0.25000   0.16667   0.00000  Uiso   1.00
C58    C     0.83614   0.25000   0.16666   0.00000  Uiso   1.00
C59    C     0.77648   0.10220   0.13400   0.00000  Uiso   1.00
C60    C     0.77650   0.39780   0.19932   0.00000  Uiso   1.00
C61    C     0.72352   0.10220   0.19933   0.00000  Uiso   1.00
C62    C     0.72350   0.39780   0.13402   0.00000  Uiso   1.00
C63    C     0.77703   0.05241   0.13320   0.00000  Uiso   1.00
C64    C     0.77705   0.44759   0.20011   0.00000  Uiso   1.00
C65    C     0.72297   0.05241   0.20013   0.00000  Uiso   1.00
C66    C     0.72295   0.44759   0.13322   0.00000  Uiso   1.00
C67    C     0.75000   0.25000   0.07282   0.00000  Uiso   1.00
C68    C     0.75000   0.25000   0.26051   0.00000  Uiso   1.00
C69    C     0.75000   0.02663   0.16667   0.00000  Uiso   1.00
C70    C     0.75000   0.47337   0.16667   0.00000  Uiso   1.00
C71    C     0.75000   0.25000   0.02178   0.00000  Uiso   1.00
C72    C     0.75000   0.25000   0.31156   0.00000  Uiso   1.00
C73    C     0.54704   0.28969   0.14915   0.00000  Uiso   1.00
C74    C     0.95296   0.21031   0.14915   0.00000  Uiso   1.00
C75    C     0.95296   0.28969   0.18418   0.00000  Uiso   1.00
C76    C     0.54704   0.21031   0.18418   0.00000  Uiso   1.00
C77    C     0.59302   0.28980   0.14943   0.00000  Uiso   1.00
C78    C     0.90698   0.21020   0.14942   0.00000  Uiso   1.00
C79    C     0.90698   0.28980   0.18390   0.00000  Uiso   1.00
C80    C     0.59302   0.21020   0.18391   0.00000  Uiso   1.00
C81    C     0.61599   0.25000   0.16667   0.00000  Uiso   1.00
C82    C     0.88401   0.25000   0.16666   0.00000  Uiso   1.00
C83    C     0.52405   0.25000   0.16667   0.00000  Uiso   1.00
C84    C     0.97595   0.25000   0.16666   0.00000  Uiso   1.00
H85    H     0.52945   0.32027   0.13488   0.00000  Uiso   1.00
H86    H     0.97055   0.17973   0.13488   0.00000  Uiso   1.00
H87    H     0.97055   0.32027   0.19845   0.00000  Uiso   1.00
H88    H     0.52945   0.17973   0.19845   0.00000  Uiso   1.00
N89    N     0.75000   0.12624   0.16667   0.00000  Uiso   1.00
N90    N     0.75000   0.37377   0.16667   0.00000  Uiso   1.00
O91    O     0.68453   0.28974   0.16667   0.00000  Uiso   1.00
O92    O     0.81547   0.21026   0.16666   0.00000  Uiso   1.00
O93    O     0.81547   0.28974   0.16666   0.00000  Uiso   1.00
O94    O     0.68453   0.21026   0.16667   0.00000  Uiso   1.00
O95    O     0.75000   0.28973   0.09511   0.00000  Uiso   1.00
O96    O     0.75000   0.21027   0.23822   0.00000  Uiso   1.00
O97    O     0.75000   0.28973   0.23822   0.00000  Uiso   1.00
O98    O     0.75000   0.21027   0.09511   0.00000  Uiso   1.00
Zn99   Zn    0.75000   0.30307   0.16667   0.00000  Uiso   1.00
Zn100  Zn    0.75000   0.19693   0.16667   0.00000  Uiso   1.00
H101   H     0.79734   0.12183   0.10837   0.00000  Uiso   1.00
H102   H     0.79737   0.37817   0.22493   0.00000  Uiso   1.00
H103   H     0.70266   0.12183   0.22496   0.00000  Uiso   1.00
H104   H     0.70263   0.37817   0.10840   0.00000  Uiso   1.00
H105   H     0.61055   0.32061   0.13560   0.00000  Uiso   1.00
H106   H     0.88945   0.17939   0.13559   0.00000  Uiso   1.00
H107   H     0.88945   0.32061   0.19774   0.00000  Uiso   1.00
H108   H     0.61055   0.17939   0.19774   0.00000  Uiso   1.00
Cl109  Cl    0.81198   0.02349   0.09017   0.00000  Uiso   1.00
Cl110  Cl    0.81201   0.47651   0.24312   0.00000  Uiso   1.00
Cl111  Cl    0.68803   0.02349   0.24316   0.00000  Uiso   1.00
Cl112  Cl    0.68799   0.47651   0.09021   0.00000  Uiso   1.00
C113   C     0.16386   0.75000   0.16667   0.00000  Uiso   1.00
C114   C     0.33614   0.75000   0.16666   0.00000  Uiso   1.00
C115   C     0.27648   0.60220   0.13400   0.00000  Uiso   1.00
C116   C     0.27650   0.89780   0.19932   0.00000  Uiso   1.00
C117   C     0.22352   0.60220   0.19933   0.00000  Uiso   1.00
C118   C     0.22350   0.89780   0.13402   0.00000  Uiso   1.00
C119   C     0.27703   0.55241   0.13320   0.00000  Uiso   1.00
C120   C     0.27705   0.94759   0.20011   0.00000  Uiso   1.00
C121   C     0.22297   0.55241   0.20013   0.00000  Uiso   1.00
C122   C     0.22295   0.94759   0.13322   0.00000  Uiso   1.00
C123   C     0.25000   0.75000   0.07282   0.00000  Uiso   1.00
C124   C     0.25000   0.75000   0.26051   0.00000  Uiso   1.00
C125   C     0.25000   0.52663   0.16667   0.00000  Uiso   1.00
C126   C     0.25000   0.97337   0.16667   0.00000  Uiso   1.00
C127   C     0.25000   0.75000   0.02178   0.00000  Uiso   1.00
C128   C     0.25000   0.75000   0.31156   0.00000  Uiso   1.00
C129   C     0.04704   0.78969   0.14915   0.00000  Uiso   1.00
C130   C     0.45296   0.71031   0.14915   0.00000  Uiso   1.00
C131   C     0.45296   0.78969   0.18418   0.00000  Uiso   1.00
C132   C     0.04704   0.71031   0.18418   0.00000  Uiso   1.00
C133   C     0.09302   0.78980   0.14943   0.00000  Uiso   1.00
C134   C     0.40698   0.71020   0.14942   0.00000  Uiso   1.00
C135   C     0.40698   0.78980   0.18390   0.00000  Uiso   1.00
C136   C     0.09302   0.71020   0.18391   0.00000  Uiso   1.00
C137   C     0.11599   0.75000   0.16667   0.00000  Uiso   1.00
C138   C     0.38401   0.75000   0.16666   0.00000  Uiso   1.00
C139   C     0.02405   0.75000   0.16667   0.00000  Uiso   1.00
C140   C     0.47595   0.75000   0.16666   0.00000  Uiso   1.00
H141   H     0.02945   0.82027   0.13488   0.00000  Uiso   1.00
H142   H     0.47055   0.67973   0.13488   0.00000  Uiso   1.00
H143   H     0.47055   0.82027   0.19845   0.00000  Uiso   1.00
H144   H     0.02945   0.67973   0.19845   0.00000  Uiso   1.00
N145   N     0.25000   0.62624   0.16667   0.00000  Uiso   1.00
N146   N     0.25000   0.87377   0.16667   0.00000  Uiso   1.00
O147   O     0.18453   0.78974   0.16667   0.00000  Uiso   1.00
O148   O     0.31547   0.71026   0.16666   0.00000  Uiso   1.00
O149   O     0.31547   0.78974   0.16666   0.00000  Uiso   1.00
O150   O     0.18453   0.71026   0.16667   0.00000  Uiso   1.00
O151   O     0.25000   0.78973   0.09511   0.00000  Uiso   1.00
O152   O     0.25000   0.71027   0.23822   0.00000  Uiso   1.00
O153   O     0.25000   0.78973   0.23822   0.00000  Uiso   1.00
O154   O     0.25000   0.71027   0.09511   0.00000  Uiso   1.00
Zn155  Zn    0.25000   0.80307   0.16667   0.00000  Uiso   1.00
Zn156  Zn    0.25000   0.69693   0.16667   0.00000  Uiso   1.00
H157   H     0.29734   0.62183   0.10837   0.00000  Uiso   1.00
H158   H     0.29737   0.87817   0.22493   0.00000  Uiso   1.00
H159   H     0.20266   0.62183   0.22496   0.00000  Uiso   1.00
H160   H     0.20263   0.87817   0.10840   0.00000  Uiso   1.00
H161   H     0.11055   0.82061   0.13560   0.00000  Uiso   1.00
H162   H     0.38945   0.67939   0.13559   0.00000  Uiso   1.00
H163   H     0.38945   0.82061   0.19774   0.00000  Uiso   1.00
H164   H     0.11055   0.67939   0.19774   0.00000  Uiso   1.00
Cl165  Cl    0.31198   0.52349   0.09017   0.00000  Uiso   1.00
Cl166  Cl    0.31201   0.97651   0.24312   0.00000  Uiso   1.00
Cl167  Cl    0.18803   0.52349   0.24316   0.00000  Uiso   1.00
Cl168  Cl    0.18799   0.97651   0.09021   0.00000  Uiso   1.00
C169   C     0.66386   0.75000   0.16667   0.00000  Uiso   1.00
C170   C     0.83614   0.75000   0.16666   0.00000  Uiso   1.00
C171   C     0.77648   0.60220   0.13400   0.00000  Uiso   1.00
C172   C     0.77650   0.89780   0.19932   0.00000  Uiso   1.00
C173   C     0.72352   0.60220   0.19933   0.00000  Uiso   1.00
C174   C     0.72350   0.89780   0.13402   0.00000  Uiso   1.00
C175   C     0.77703   0.55241   0.13320   0.00000  Uiso   1.00
C176   C     0.77705   0.94759   0.20011   0.00000  Uiso   1.00
C177   C     0.72297   0.55241   0.20013   0.00000  Uiso   1.00
C178   C     0.72295   0.94759   0.13322   0.00000  Uiso   1.00
C179   C     0.75000   0.75000   0.07282   0.00000  Uiso   1.00
C180   C     0.75000   0.75000   0.26051   0.00000  Uiso   1.00
C181   C     0.75000   0.52663   0.16667   0.00000  Uiso   1.00
C182   C     0.75000   0.97337   0.16667   0.00000  Uiso   1.00
C183   C     0.75000   0.75000   0.02178   0.00000  Uiso   1.00
C184   C     0.75000   0.75000   0.31156   0.00000  Uiso   1.00
C185   C     0.54704   0.78969   0.14915   0.00000  Uiso   1.00
C186   C     0.95296   0.71031   0.14915   0.00000  Uiso   1.00
C187   C     0.95296   0.78969   0.18418   0.00000  Uiso   1.00
C188   C     0.54704   0.71031   0.18418   0.00000  Uiso   1.00
C189   C     0.59302   0.78980   0.14943   0.00000  Uiso   1.00
C190   C     0.90698   0.71020   0.14942   0.00000  Uiso   1.00
C191   C     0.90698   0.78980   0.18390   0.00000  Uiso   1.00
C192   C     0.59302   0.71020   0.18391   0.00000  Uiso   1.00
C193   C     0.61599   0.75000   0.16667   0.00000  Uiso   1.00
C194   C     0.88401   0.75000   0.16666   0.00000  Uiso   1.00
C195   C     0.52405   0.75000   0.16667   0.00000  Uiso   1.00
C196   C     0.97595   0.75000   0.16666   0.00000  Uiso   1.00
H197   H     0.52945   0.82027   0.13488   0.00000  Uiso   1.00
H198   H     0.97055   0.67973   0.13488   0.00000  Uiso   1.00
H199   H     0.97055   0.82027   0.19845   0.00000  Uiso   1.00
H200   H     0.52945   0.67973   0.19845   0.00000  Uiso   1.00
N201   N     0.75000   0.62624   0.16667   0.00000  Uiso   1.00
N202   N     0.75000   0.87377   0.16667   0.00000  Uiso   1.00
O203   O     0.68453   0.78974   0.16667   0.00000  Uiso   1.00
O204   O     0.81547   0.71026   0.16666   0.00000  Uiso   1.00
O205   O     0.81547   0.78974   0.16666   0.00000  Uiso   1.00
O206   O     0.68453   0.71026   0.16667   0.00000  Uiso   1.00
O207   O     0.75000   0.78973   0.09511   0.00000  Uiso   1.00
O208   O     0.75000   0.71027   0.23822   0.00000  Uiso   1.00
O209   O     0.75000   0.78973   0.23822   0.00000  Uiso   1.00
O210   O     0.75000   0.71027   0.09511   0.00000  Uiso   1.00
Zn211  Zn    0.75000   0.80307   0.16667   0.00000  Uiso   1.00
Zn212  Zn    0.75000   0.69693   0.16667   0.00000  Uiso   1.00
H213   H     0.79734   0.62183   0.10837   0.00000  Uiso   1.00
H214   H     0.79737   0.87817   0.22493   0.00000  Uiso   1.00
H215   H     0.70266   0.62183   0.22496   0.00000  Uiso   1.00
H216   H     0.70263   0.87817   0.10840   0.00000  Uiso   1.00
H217   H     0.61055   0.82061   0.13560   0.00000  Uiso   1.00
H218   H     0.88945   0.67939   0.13559   0.00000  Uiso   1.00
H219   H     0.88945   0.82061   0.19774   0.00000  Uiso   1.00
H220   H     0.61055   0.67939   0.19774   0.00000  Uiso   1.00
Cl221  Cl    0.81198   0.52349   0.09017   0.00000  Uiso   1.00
Cl222  Cl    0.81201   0.97651   0.24312   0.00000  Uiso   1.00
Cl223  Cl    0.68803   0.52349   0.24316   0.00000  Uiso   1.00
Cl224  Cl    0.68799   0.97651   0.09021   0.00000  Uiso   1.00
C225   C     0.16386   0.25000   0.50000   0.00000  Uiso   1.00
C226   C     0.33614   0.25000   0.50000   0.00000  Uiso   1.00
C227   C     0.27648   0.10220   0.46733   0.00000  Uiso   1.00
C228   C     0.27650   0.39780   0.53265   0.00000  Uiso   1.00
C229   C     0.22352   0.10220   0.53267   0.00000  Uiso   1.00
C230   C     0.22350   0.39780   0.46735   0.00000  Uiso   1.00
C231   C     0.27703   0.05241   0.46654   0.00000  Uiso   1.00
C232   C     0.27705   0.44759   0.53344   0.00000  Uiso   1.00
C233   C     0.22297   0.05241   0.53346   0.00000  Uiso   1.00
C234   C     0.22295   0.44759   0.46656   0.00000  Uiso   1.00
C235   C     0.25000   0.25000   0.40616   0.00000  Uiso   1.00
C236   C     0.25000   0.25000   0.59384   0.00000  Uiso   1.00
C237   C     0.25000   0.02663   0.50000   0.00000  Uiso   1.00
C238   C     0.25000   0.47337   0.50000   0.00000  Uiso   1.00
C239   C     0.25000   0.25000   0.35511   0.00000  Uiso   1.00
C240   C     0.25000   0.25000   0.64489   0.00000  Uiso   1.00
C241   C     0.04704   0.28969   0.48249   0.00000  Uiso   1.00
C242   C     0.45296   0.21031   0.48248   0.00000  Uiso   1.00
C243   C     0.45296   0.28969   0.51751   0.00000  Uiso   1.00
C244   C     0.04704   0.21031   0.51751   0.00000  Uiso   1.00
C245   C     0.09302   0.28980   0.48276   0.00000  Uiso   1.00
C246   C     0.40698   0.21020   0.48276   0.00000  Uiso   1.00
C247   C     0.40698   0.28980   0.51723   0.00000  Uiso   1.00
C248   C     0.09302   0.21020   0.51724   0.00000  Uiso   1.00
C249   C     0.11599   0.25000   0.50000   0.00000  Uiso   1.00
C250   C     0.38401   0.25000   0.49999   0.00000  Uiso   1.00
C251   C     0.02405   0.25000   0.50000   0.00000  Uiso   1.00
C252   C     0.47595   0.25000   0.50000   0.00000  Uiso   1.00
H253   H     0.02945   0.32027   0.46821   0.00000  Uiso   1.00
H254   H     0.47055   0.17973   0.46821   0.00000  Uiso   1.00
H255   H     0.47055   0.32027   0.53178   0.00000  Uiso   1.00
H256   H     0.02945   0.17973   0.53178   0.00000  Uiso   1.00
N257   N     0.25000   0.12624   0.50000   0.00000  Uiso   1.00
N258   N     0.25000   0.37377   0.50000   0.00000  Uiso   1.00
O259   O     0.18453   0.28974   0.50000   0.00000  Uiso   1.00
O260   O     0.31547   0.21026   0.50000   0.00000  Uiso   1.00
O261   O     0.31547   0.28974   0.50000   0.00000  Uiso   1.00
O262   O     0.18453   0.21026   0.50000   0.00000  Uiso   1.00
O263   O     0.25000   0.28973   0.42845   0.00000  Uiso   1.00
O264   O     0.25000   0.21027   0.57155   0.00000  Uiso   1.00
O265   O     0.25000   0.28973   0.57155   0.00000  Uiso   1.00
O266   O     0.25000   0.21027   0.42845   0.00000  Uiso   1.00
Zn267  Zn    0.25000   0.30307   0.50000   0.00000  Uiso   1.00
Zn268  Zn    0.25000   0.19693   0.50000   0.00000  Uiso   1.00
H269   H     0.29734   0.12183   0.44170   0.00000  Uiso   1.00
H270   H     0.29737   0.37817   0.55826   0.00000  Uiso   1.00
H271   H     0.20266   0.12183   0.55830   0.00000  Uiso   1.00
H272   H     0.20263   0.37817   0.44174   0.00000  Uiso   1.00
H273   H     0.11055   0.32061   0.46893   0.00000  Uiso   1.00
H274   H     0.38945   0.17939   0.46892   0.00000  Uiso   1.00
H275   H     0.38945   0.32061   0.53107   0.00000  Uiso   1.00
H276   H     0.11055   0.17939   0.53108   0.00000  Uiso   1.00
Cl277  Cl    0.31198   0.02349   0.42350   0.00000  Uiso   1.00
Cl278  Cl    0.31201   0.47651   0.57645   0.00000  Uiso   1.00
Cl279  Cl    0.18803   0.02349   0.57650   0.00000  Uiso   1.00
Cl280  Cl    0.18799   0.47651   0.42355   0.00000  Uiso   1.00
C281   C     0.66386   0.25000   0.50000   0.00000  Uiso   1.00
C282   C     0.83614   0.25000   0.50000   0.00000  Uiso   1.00
C283   C     0.77648   0.10220   0.46733   0.00000  Uiso   1.00
C284   C     0.77650   0.39780   0.53265   0.00000  Uiso   1.00
C285   C     0.72352   0.10220   0.53267   0.00000  Uiso   1.00
C286   C     0.72350   0.39780   0.46735   0.00000  Uiso   1.00
C287   C     0.77703   0.05241   0.46654   0.00000  Uiso   1.00
C288   C     0.77705   0.44759   0.53344   0.00000  Uiso   1.00
C289   C     0.72297   0.05241   0.53346   0.00000  Uiso   1.00
C290   C     0.72295   0.44759   0.46656   0.00000  Uiso   1.00
C291   C     0.75000   0.25000   0.40616   0.00000  Uiso   1.00
C292   C     0.75000   0.25000   0.59384   0.00000  Uiso   1.00
C293   C     0.75000   0.02663   0.50000   0.00000  Uiso   1.00
C294   C     0.75000   0.47337   0.50000   0.00000  Uiso   1.00
C295   C     0.75000   0.25000   0.35511   0.00000  Uiso   1.00
C296   C     0.75000   0.25000   0.64489   0.00000  Uiso   1.00
C297   C     0.54704   0.28969   0.48249   0.00000  Uiso   1.00
C298   C     0.95296   0.21031   0.48248   0.00000  Uiso   1.00
C299   C     0.95296   0.28969   0.51751   0.00000  Uiso   1.00
C300   C     0.54704   0.21031   0.51751   0.00000  Uiso   1.00
C301   C     0.59302   0.28980   0.48276   0.00000  Uiso   1.00
C302   C     0.90698   0.21020   0.48276   0.00000  Uiso   1.00
C303   C     0.90698   0.28980   0.51723   0.00000  Uiso   1.00
C304   C     0.59302   0.21020   0.51724   0.00000  Uiso   1.00
C305   C     0.61599   0.25000   0.50000   0.00000  Uiso   1.00
C306   C     0.88401   0.25000   0.49999   0.00000  Uiso   1.00
C307   C     0.52405   0.25000   0.50000   0.00000  Uiso   1.00
C308   C     0.97595   0.25000   0.50000   0.00000  Uiso   1.00
H309   H     0.52945   0.32027   0.46821   0.00000  Uiso   1.00
H310   H     0.97055   0.17973   0.46821   0.00000  Uiso   1.00
H311   H     0.97055   0.32027   0.53178   0.00000  Uiso   1.00
H312   H     0.52945   0.17973   0.53178   0.00000  Uiso   1.00
N313   N     0.75000   0.12624   0.50000   0.00000  Uiso   1.00
N314   N     0.75000   0.37377   0.50000   0.00000  Uiso   1.00
O315   O     0.68453   0.28974   0.50000   0.00000  Uiso   1.00
O316   O     0.81547   0.21026   0.50000   0.00000  Uiso   1.00
O317   O     0.81547   0.28974   0.50000   0.00000  Uiso   1.00
O318   O     0.68453   0.21026   0.50000   0.00000  Uiso   1.00
O319   O     0.75000   0.28973   0.42845   0.00000  Uiso   1.00
O320   O     0.75000   0.21027   0.57155   0.00000  Uiso   1.00
O321   O     0.75000   0.28973   0.57155   0.00000  Uiso   1.00
O322   O     0.75000   0.21027   0.42845   0.00000  Uiso   1.00
Zn323  Zn    0.75000   0.30307   0.50000   0.00000  Uiso   1.00
Zn324  Zn    0.75000   0.19693   0.50000   0.00000  Uiso   1.00
H325   H     0.79734   0.12183   0.44170   0.00000  Uiso   1.00
H326   H     0.79737   0.37817   0.55826   0.00000  Uiso   1.00
H327   H     0.70266   0.12183   0.55830   0.00000  Uiso   1.00
H328   H     0.70263   0.37817   0.44174   0.00000  Uiso   1.00
H329   H     0.61055   0.32061   0.46893   0.00000  Uiso   1.00
H330   H     0.88945   0.17939   0.46892   0.00000  Uiso   1.00
H331   H     0.88945   0.32061   0.53107   0.00000  Uiso   1.00
H332   H     0.61055   0.17939   0.53108   0.00000  Uiso   1.00
Cl333  Cl    0.81198   0.02349   0.42350   0.00000  Uiso   1.00
Cl334  Cl    0.81201   0.47651   0.57645   0.00000  Uiso   1.00
Cl335  Cl    0.68803   0.02349   0.57650   0.00000  Uiso   1.00
Cl336  Cl    0.68799   0.47651   0.42355   0.00000  Uiso   1.00
C337   C     0.16386   0.75000   0.50000   0.00000  Uiso   1.00
C338   C     0.33614   0.75000   0.50000   0.00000  Uiso   1.00
C339   C     0.27648   0.60220   0.46733   0.00000  Uiso   1.00
C340   C     0.27650   0.89780   0.53265   0.00000  Uiso   1.00
C341   C     0.22352   0.60220   0.53267   0.00000  Uiso   1.00
C342   C     0.22350   0.89780   0.46735   0.00000  Uiso   1.00
C343   C     0.27703   0.55241   0.46654   0.00000  Uiso   1.00
C344   C     0.27705   0.94759   0.53344   0.00000  Uiso   1.00
C345   C     0.22297   0.55241   0.53346   0.00000  Uiso   1.00
C346   C     0.22295   0.94759   0.46656   0.00000  Uiso   1.00
C347   C     0.25000   0.75000   0.40616   0.00000  Uiso   1.00
C348   C     0.25000   0.75000   0.59384   0.00000  Uiso   1.00
C349   C     0.25000   0.52663   0.50000   0.00000  Uiso   1.00
C350   C     0.25000   0.97337   0.50000   0.00000  Uiso   1.00
C351   C     0.25000   0.75000   0.35511   0.00000  Uiso   1.00
C352   C     0.25000   0.75000   0.64489   0.00000  Uiso   1.00
C353   C     0.04704   0.78969   0.48249   0.00000  Uiso   1.00
C354   C     0.45296   0.71031   0.48248   0.00000  Uiso   1.00
C355   C     0.45296   0.78969   0.51751   0.00000  Uiso   1.00
C356   C     0.04704   0.71031   0.51751   0.00000  Uiso   1.00
C357   C     0.09302   0.78980   0.48276   0.00000  Uiso   1.00
C358   C     0.40698   0.71020   0.48276   0.00000  Uiso   1.00
C359   C     0.40698   0.78980   0.51723   0.00000  Uiso   1.00
C360   C     0.09302   0.71020   0.51724   0.00000  Uiso   1.00
C361   C     0.11599   0.75000   0.50000   0.00000  Uiso   1.00
C362   C     0.38401   0.75000   0.49999   0.00000  Uiso   1.00
C363   C     0.02405   0.75000   0.50000   0.00000  Uiso   1.00
C364   C     0.47595   0.75000   0.50000   0.00000  Uiso   1.00
H365   H     0.02945   0.82027   0.46821   0.00000  Uiso   1.00
H366   H     0.47055   0.67973   0.46821   0.00000  Uiso   1.00
H367   H     0.47055   0.82027   0.53178   0.00000  Uiso   1.00
H368   H     0.02945   0.67973   0.53178   0.00000  Uiso   1.00
N369   N     0.25000   0.62624   0.50000   0.00000  Uiso   1.00
N370   N     0.25000   0.87377   0.50000   0.00000  Uiso   1.00
O371   O     0.18453   0.78974   0.50000   0.00000  Uiso   1.00
O372   O     0.31547   0.71026   0.50000   0.00000  Uiso   1.00
O373   O     0.31547   0.78974   0.50000   0.00000  Uiso   1.00
O374   O     0.18453   0.71026   0.50000   0.00000  Uiso   1.00
O375   O     0.25000   0.78973   0.42845   0.00000  Uiso   1.00
O376   O     0.25000   0.71027   0.57155   0.00000  Uiso   1.00
O377   O     0.25000   0.78973   0.57155   0.00000  Uiso   1.00
O378   O     0.25000   0.71027   0.42845   0.00000  Uiso   1.00
Zn379  Zn    0.25000   0.80307   0.50000   0.00000  Uiso   1.00
Zn380  Zn    0.25000   0.69693   0.50000   0.00000  Uiso   1.00
H381   H     0.29734   0.62183   0.44170   0.00000  Uiso   1.00
H382   H     0.29737   0.87817   0.55826   0.00000  Uiso   1.00
H383   H     0.20266   0.62183   0.55830   0.00000  Uiso   1.00
H384   H     0.20263   0.87817   0.44174   0.00000  Uiso   1.00
H385   H     0.11055   0.82061   0.46893   0.00000  Uiso   1.00
H386   H     0.38945   0.67939   0.46892   0.00000  Uiso   1.00
H387   H     0.38945   0.82061   0.53107   0.00000  Uiso   1.00
H388   H     0.11055   0.67939   0.53108   0.00000  Uiso   1.00
Cl389  Cl    0.31198   0.52349   0.42350   0.00000  Uiso   1.00
Cl390  Cl    0.31201   0.97651   0.57645   0.00000  Uiso   1.00
Cl391  Cl    0.18803   0.52349   0.57650   0.00000  Uiso   1.00
Cl392  Cl    0.18799   0.97651   0.42355   0.00000  Uiso   1.00
C393   C     0.66386   0.75000   0.50000   0.00000  Uiso   1.00
C394   C     0.83614   0.75000   0.50000   0.00000  Uiso   1.00
C395   C     0.77648   0.60220   0.46733   0.00000  Uiso   1.00
C396   C     0.77650   0.89780   0.53265   0.00000  Uiso   1.00
C397   C     0.72352   0.60220   0.53267   0.00000  Uiso   1.00
C398   C     0.72350   0.89780   0.46735   0.00000  Uiso   1.00
C399   C     0.77703   0.55241   0.46654   0.00000  Uiso   1.00
C400   C     0.77705   0.94759   0.53344   0.00000  Uiso   1.00
C401   C     0.72297   0.55241   0.53346   0.00000  Uiso   1.00
C402   C     0.72295   0.94759   0.46656   0.00000  Uiso   1.00
C403   C     0.75000   0.75000   0.40616   0.00000  Uiso   1.00
C404   C     0.75000   0.75000   0.59384   0.00000  Uiso   1.00
C405   C     0.75000   0.52663   0.50000   0.00000  Uiso   1.00
C406   C     0.75000   0.97337   0.50000   0.00000  Uiso   1.00
C407   C     0.75000   0.75000   0.35511   0.00000  Uiso   1.00
C408   C     0.75000   0.75000   0.64489   0.00000  Uiso   1.00
C409   C     0.54704   0.78969   0.48249   0.00000  Uiso   1.00
C410   C     0.95296   0.71031   0.48248   0.00000  Uiso   1.00
C411   C     0.95296   0.78969   0.51751   0.00000  Uiso   1.00
C412   C     0.54704   0.71031   0.51751   0.00000  Uiso   1.00
C413   C     0.59302   0.78980   0.48276   0.00000  Uiso   1.00
C414   C     0.90698   0.71020   0.48276   0.00000  Uiso   1.00
C415   C     0.90698   0.78980   0.51723   0.00000  Uiso   1.00
C416   C     0.59302   0.71020   0.51724   0.00000  Uiso   1.00
C417   C     0.61599   0.75000   0.50000   0.00000  Uiso   1.00
C418   C     0.88401   0.75000   0.49999   0.00000  Uiso   1.00
C419   C     0.52405   0.75000   0.50000   0.00000  Uiso   1.00
C420   C     0.97595   0.75000   0.50000   0.00000  Uiso   1.00
H421   H     0.52945   0.82027   0.46821   0.00000  Uiso   1.00
H422   H     0.97055   0.67973   0.46821   0.00000  Uiso   1.00
H423   H     0.97055   0.82027   0.53178   0.00000  Uiso   1.00
H424   H     0.52945   0.67973   0.53178   0.00000  Uiso   1.00
N425   N     0.75000   0.62624   0.50000   0.00000  Uiso   1.00
N426   N     0.75000   0.87377   0.50000   0.00000  Uiso   1.00
O427   O     0.68453   0.78974   0.50000   0.00000  Uiso   1.00
O428   O     0.81547   0.71026   0.50000   0.00000  Uiso   1.00
O429   O     0.81547   0.78974   0.50000   0.00000  Uiso   1.00
O430   O     0.68453   0.71026   0.50000   0.00000  Uiso   1.00
O431   O     0.75000   0.78973   0.42845   0.00000  Uiso   1.00
O432   O     0.75000   0.71027   0.57155   0.00000  Uiso   1.00
O433   O     0.75000   0.78973   0.57155   0.00000  Uiso   1.00
O434   O     0.75000   0.71027   0.42845   0.00000  Uiso   1.00
Zn435  Zn    0.75000   0.80307   0.50000   0.00000  Uiso   1.00
Zn436  Zn    0.75000   0.69693   0.50000   0.00000  Uiso   1.00
H437   H     0.79734   0.62183   0.44170   0.00000  Uiso   1.00
H438   H     0.79737   0.87817   0.55826   0.00000  Uiso   1.00
H439   H     0.70266   0.62183   0.55830   0.00000  Uiso   1.00
H440   H     0.70263   0.87817   0.44174   0.00000  Uiso   1.00
H441   H     0.61055   0.82061   0.46893   0.00000  Uiso   1.00
H442   H     0.88945   0.67939   0.46892   0.00000  Uiso   1.00
H443   H     0.88945   0.82061   0.53107   0.00000  Uiso   1.00
H444   H     0.61055   0.67939   0.53108   0.00000  Uiso   1.00
Cl445  Cl    0.81198   0.52349   0.42350   0.00000  Uiso   1.00
Cl446  Cl    0.81201   0.97651   0.57645   0.00000  Uiso   1.00
Cl447  Cl    0.68803   0.52349   0.57650   0.00000  Uiso   1.00
Cl448  Cl    0.68799   0.97651   0.42355   0.00000  Uiso   1.00
C449   C     0.16386   0.25000   0.83334   0.00000  Uiso   1.00
C450   C     0.33614   0.25000   0.83333   0.00000  Uiso   1.00
C451   C     0.27648   0.10220   0.80067   0.00000  Uiso   1.00
C452   C     0.27650   0.39780   0.86598   0.00000  Uiso   1.00
C453   C     0.22352   0.10220   0.86600   0.00000  Uiso   1.00
C454   C     0.22350   0.39780   0.80068   0.00000  Uiso   1.00
C455   C     0.27703   0.05241   0.79987   0.00000  Uiso   1.00
C456   C     0.27705   0.44759   0.86678   0.00000  Uiso   1.00
C457   C     0.22297   0.05241   0.86680   0.00000  Uiso   1.00
C458   C     0.22295   0.44759   0.79989   0.00000  Uiso   1.00
C459   C     0.25000   0.25000   0.73949   0.00000  Uiso   1.00
C460   C     0.25000   0.25000   0.92718   0.00000  Uiso   1.00
C461   C     0.25000   0.02663   0.83333   0.00000  Uiso   1.00
C462   C     0.25000   0.47337   0.83333   0.00000  Uiso   1.00
C463   C     0.25000   0.25000   0.68844   0.00000  Uiso   1.00
C464   C     0.25000   0.25000   0.97822   0.00000  Uiso   1.00
C465   C     0.04704   0.28969   0.81582   0.00000  Uiso   1.00
C466   C     0.45296   0.21031   0.81582   0.00000  Uiso   1.00
C467   C     0.45296   0.28969   0.85084   0.00000  Uiso   1.00
C468   C     0.04704   0.21031   0.85085   0.00000  Uiso   1.00
C469   C     0.09302   0.28980   0.81610   0.00000  Uiso   1.00
C470   C     0.40698   0.21020   0.81609   0.00000  Uiso   1.00
C471   C     0.40698   0.28980   0.85057   0.00000  Uiso   1.00
C472   C     0.09302   0.21020   0.85057   0.00000  Uiso   1.00
C473   C     0.11599   0.25000   0.83334   0.00000  Uiso   1.00
C474   C     0.38401   0.25000   0.83333   0.00000  Uiso   1.00
C475   C     0.02405   0.25000   0.83333   0.00000  Uiso   1.00
C476   C     0.47595   0.25000   0.83333   0.00000  Uiso   1.00
H477   H     0.02945   0.32027   0.80155   0.00000  Uiso   1.00
H478   H     0.47055   0.17973   0.80154   0.00000  Uiso   1.00
H479   H     0.47055   0.32027   0.86512   0.00000  Uiso   1.00
H480   H     0.02945   0.17973   0.86512   0.00000  Uiso   1.00
N481   N     0.25000   0.12624   0.83333   0.00000  Uiso   1.00
N482   N     0.25000   0.37377   0.83333   0.00000  Uiso   1.00
O483   O     0.18453   0.28974   0.83334   0.00000  Uiso   1.00
O484   O     0.31547   0.21026   0.83333   0.00000  Uiso   1.00
O485   O     0.31547   0.28974   0.83333   0.00000  Uiso   1.00
O486   O     0.18453   0.21026   0.83334   0.00000  Uiso   1.00
O487   O     0.25000   0.28973   0.76178   0.00000  Uiso   1.00
O488   O     0.25000   0.21027   0.90489   0.00000  Uiso   1.00
O489   O     0.25000   0.28973   0.90489   0.00000  Uiso   1.00
O490   O     0.25000   0.21027   0.76178   0.00000  Uiso   1.00
Zn491  Zn    0.25000   0.30307   0.83333   0.00000  Uiso   1.00
Zn492  Zn    0.25000   0.19693   0.83333   0.00000  Uiso   1.00
H493   H     0.29734   0.12183   0.77504   0.00000  Uiso   1.00
H494   H     0.29737   0.37817   0.89160   0.00000  Uiso   1.00
H495   H     0.20266   0.12183   0.89163   0.00000  Uiso   1.00
H496   H     0.20263   0.37817   0.77507   0.00000  Uiso   1.00
H497   H     0.11055   0.32061   0.80226   0.00000  Uiso   1.00
H498   H     0.38945   0.17939   0.80225   0.00000  Uiso   1.00
H499   H     0.38945   0.32061   0.86440   0.00000  Uiso   1.00
H500   H     0.11055   0.17939   0.86441   0.00000  Uiso   1.00
Cl501  Cl    0.31198   0.02349   0.75684   0.00000  Uiso   1.00
Cl502  Cl    0.31201   0.47651   0.90979   0.00000  Uiso   1.00
Cl503  Cl    0.18803   0.02349   0.90983   0.00000  Uiso   1.00
Cl504  Cl    0.18799   0.47651   0.75688   0.00000  Uiso   1.00
C505   C     0.66386   0.25000   0.83334   0.00000  Uiso   1.00
C506   C     0.83614   0.25000   0.83333   0.00000  Uiso   1.00
C507   C     0.77648   0.10220   0.80067   0.00000  Uiso   1.00
C508   C     0.77650   0.39780   0.86598   0.00000  Uiso   1.00
C509   C     0.72352   0.10220   0.86600   0.00000  Uiso   1.00
C510   C     0.72350   0.39780   0.80068   0.00000  Uiso   1.00
C511   C     0.77703   0.05241   0.79987   0.00000  Uiso   1.00
C512   C     0.77705   0.44759   0.86678   0.00000  Uiso   1.00
C513   C     0.72297   0.05241   0.86680   0.00000  Uiso   1.00
C514   C     0.72295   0.44759   0.79989   0.00000  Uiso   1.00
C515   C     0.75000   0.25000   0.73949   0.00000  Uiso   1.00
C516   C     0.75000   0.25000   0.92718   0.00000  Uiso   1.00
C517   C     0.75000   0.02663   0.83333   0.00000  Uiso   1.00
C518   C     0.75000   0.47337   0.83333   0.00000  Uiso   1.00
C519   C     0.75000   0.25000   0.68844   0.00000  Uiso   1.00
C520   C     0.75000   0.25000   0.97822   0.00000  Uiso   1.00
C521   C     0.54704   0.28969   0.81582   0.00000  Uiso   1.00
C522   C     0.95296   0.21031   0.81582   0.00000  Uiso   1.00
C523   C     0.95296   0.28969   0.85084   0.00000  Uiso   1.00
C524   C     0.54704   0.21031   0.85085   0.00000  Uiso   1.00
C525   C     0.59302   0.28980   0.81610   0.00000  Uiso   1.00
C526   C     0.90698   0.21020   0.81609   0.00000  Uiso   1.00
C527   C     0.90698   0.28980   0.85057   0.00000  Uiso   1.00
C528   C     0.59302   0.21020   0.85057   0.00000  Uiso   1.00
C529   C     0.61599   0.25000   0.83334   0.00000  Uiso   1.00
C530   C     0.88401   0.25000   0.83333   0.00000  Uiso   1.00
C531   C     0.52405   0.25000   0.83333   0.00000  Uiso   1.00
C532   C     0.97595   0.25000   0.83333   0.00000  Uiso   1.00
H533   H     0.52945   0.32027   0.80155   0.00000  Uiso   1.00
H534   H     0.97055   0.17973   0.80154   0.00000  Uiso   1.00
H535   H     0.97055   0.32027   0.86512   0.00000  Uiso   1.00
H536   H     0.52945   0.17973   0.86512   0.00000  Uiso   1.00
N537   N     0.75000   0.12624   0.83333   0.00000  Uiso   1.00
N538   N     0.75000   0.37377   0.83333   0.00000  Uiso   1.00
O539   O     0.68453   0.28974   0.83334   0.00000  Uiso   1.00
O540   O     0.81547   0.21026   0.83333   0.00000  Uiso   1.00
O541   O     0.81547   0.28974   0.83333   0.00000  Uiso   1.00
O542   O     0.68453   0.21026   0.83334   0.00000  Uiso   1.00
O543   O     0.75000   0.28973   0.76178   0.00000  Uiso   1.00
O544   O     0.75000   0.21027   0.90489   0.00000  Uiso   1.00
O545   O     0.75000   0.28973   0.90489   0.00000  Uiso   1.00
O546   O     0.75000   0.21027   0.76178   0.00000  Uiso   1.00
Zn547  Zn    0.75000   0.30307   0.83333   0.00000  Uiso   1.00
Zn548  Zn    0.75000   0.19693   0.83333   0.00000  Uiso   1.00
H549   H     0.79734   0.12183   0.77504   0.00000  Uiso   1.00
H550   H     0.79737   0.37817   0.89160   0.00000  Uiso   1.00
H551   H     0.70266   0.12183   0.89163   0.00000  Uiso   1.00
H552   H     0.70263   0.37817   0.77507   0.00000  Uiso   1.00
H553   H     0.61055   0.32061   0.80226   0.00000  Uiso   1.00
H554   H     0.88945   0.17939   0.80225   0.00000  Uiso   1.00
H555   H     0.88945   0.32061   0.86440   0.00000  Uiso   1.00
H556   H     0.61055   0.17939   0.86441   0.00000  Uiso   1.00
Cl557  Cl    0.81198   0.02349   0.75684   0.00000  Uiso   1.00
Cl558  Cl    0.81201   0.47651   0.90979   0.00000  Uiso   1.00
Cl559  Cl    0.68803   0.02349   0.90983   0.00000  Uiso   1.00
Cl560  Cl    0.68799   0.47651   0.75688   0.00000  Uiso   1.00
C561   C     0.16386   0.75000   0.83334   0.00000  Uiso   1.00
C562   C     0.33614   0.75000   0.83333   0.00000  Uiso   1.00
C563   C     0.27648   0.60220   0.80067   0.00000  Uiso   1.00
C564   C     0.27650   0.89780   0.86598   0.00000  Uiso   1.00
C565   C     0.22352   0.60220   0.86600   0.00000  Uiso   1.00
C566   C     0.22350   0.89780   0.80068   0.00000  Uiso   1.00
C567   C     0.27703   0.55241   0.79987   0.00000  Uiso   1.00
C568   C     0.27705   0.94759   0.86678   0.00000  Uiso   1.00
C569   C     0.22297   0.55241   0.86680   0.00000  Uiso   1.00
C570   C     0.22295   0.94759   0.79989   0.00000  Uiso   1.00
C571   C     0.25000   0.75000   0.73949   0.00000  Uiso   1.00
C572   C     0.25000   0.75000   0.92718   0.00000  Uiso   1.00
C573   C     0.25000   0.52663   0.83333   0.00000  Uiso   1.00
C574   C     0.25000   0.97337   0.83333   0.00000  Uiso   1.00
C575   C     0.25000   0.75000   0.68844   0.00000  Uiso   1.00
C576   C     0.25000   0.75000   0.97822   0.00000  Uiso   1.00
C577   C     0.04704   0.78969   0.81582   0.00000  Uiso   1.00
C578   C     0.45296   0.71031   0.81582   0.00000  Uiso   1.00
C579   C     0.45296   0.78969   0.85084   0.00000  Uiso   1.00
C580   C     0.04704   0.71031   0.85085   0.00000  Uiso   1.00
C581   C     0.09302   0.78980   0.81610   0.00000  Uiso   1.00
C582   C     0.40698   0.71020   0.81609   0.00000  Uiso   1.00
C583   C     0.40698   0.78980   0.85057   0.00000  Uiso   1.00
C584   C     0.09302   0.71020   0.85057   0.00000  Uiso   1.00
C585   C     0.11599   0.75000   0.83334   0.00000  Uiso   1.00
C586   C     0.38401   0.75000   0.83333   0.00000  Uiso   1.00
C587   C     0.02405   0.75000   0.83333   0.00000  Uiso   1.00
C588   C     0.47595   0.75000   0.83333   0.00000  Uiso   1.00
H589   H     0.02945   0.82027   0.80155   0.00000  Uiso   1.00
H590   H     0.47055   0.67973   0.80154   0.00000  Uiso   1.00
H591   H     0.47055   0.82027   0.86512   0.00000  Uiso   1.00
H592   H     0.02945   0.67973   0.86512   0.00000  Uiso   1.00
N593   N     0.25000   0.62624   0.83333   0.00000  Uiso   1.00
N594   N     0.25000   0.87377   0.83333   0.00000  Uiso   1.00
O595   O     0.18453   0.78974   0.83334   0.00000  Uiso   1.00
O596   O     0.31547   0.71026   0.83333   0.00000  Uiso   1.00
O597   O     0.31547   0.78974   0.83333   0.00000  Uiso   1.00
O598   O     0.18453   0.71026   0.83334   0.00000  Uiso   1.00
O599   O     0.25000   0.78973   0.76178   0.00000  Uiso   1.00
O600   O     0.25000   0.71027   0.90489   0.00000  Uiso   1.00
O601   O     0.25000   0.78973   0.90489   0.00000  Uiso   1.00
O602   O     0.25000   0.71027   0.76178   0.00000  Uiso   1.00
Zn603  Zn    0.25000   0.80307   0.83333   0.00000  Uiso   1.00
Zn604  Zn    0.25000   0.69693   0.83333   0.00000  Uiso   1.00
H605   H     0.29734   0.62183   0.77504   0.00000  Uiso   1.00
H606   H     0.29737   0.87817   0.89160   0.00000  Uiso   1.00
H607   H     0.20266   0.62183   0.89163   0.00000  Uiso   1.00
H608   H     0.20263   0.87817   0.77507   0.00000  Uiso   1.00
H609   H     0.11055   0.82061   0.80226   0.00000  Uiso   1.00
H610   H     0.38945   0.67939   0.80225   0.00000  Uiso   1.00
H611   H     0.38945   0.82061   0.86440   0.00000  Uiso   1.00
H612   H     0.11055   0.67939   0.86441   0.00000  Uiso   1.00
Cl613  Cl    0.31198   0.52349   0.75684   0.00000  Uiso   1.00
Cl614  Cl    0.31201   0.97651   0.90979   0.00000  Uiso   1.00
Cl615  Cl    0.18803   0.52349   0.90983   0.00000  Uiso   1.00
Cl616  Cl    0.18799   0.97651   0.75688   0.00000  Uiso   1.00
C617   C     0.66386   0.75000   0.83334   0.00000  Uiso   1.00
C618   C     0.83614   0.75000   0.83333   0.00000  Uiso   1.00
C619   C     0.77648   0.60220   0.80067   0.00000  Uiso   1.00
C620   C     0.77650   0.89780   0.86598   0.00000  Uiso   1.00
C621   C     0.72352   0.60220   0.86600   0.00000  Uiso   1.00
C622   C     0.72350   0.89780   0.80068   0.00000  Uiso   1.00
C623   C     0.77703   0.55241   0.79987   0.00000  Uiso   1.00
C624   C     0.77705   0.94759   0.86678   0.00000  Uiso   1.00
C625   C     0.72297   0.55241   0.86680   0.00000  Uiso   1.00
C626   C     0.72295   0.94759   0.79989   0.00000  Uiso   1.00
C627   C     0.75000   0.75000   0.73949   0.00000  Uiso   1.00
C628   C     0.75000   0.75000   0.92718   0.00000  Uiso   1.00
C629   C     0.75000   0.52663   0.83333   0.00000  Uiso   1.00
C630   C     0.75000   0.97337   0.83333   0.00000  Uiso   1.00
C631   C     0.75000   0.75000   0.68844   0.00000  Uiso   1.00
C632   C     0.75000   0.75000   0.97822   0.00000  Uiso   1.00
C633   C     0.54704   0.78969   0.81582   0.00000  Uiso   1.00
C634   C     0.95296   0.71031   0.81582   0.00000  Uiso   1.00
C635   C     0.95296   0.78969   0.85084   0.00000  Uiso   1.00
C636   C     0.54704   0.71031   0.85085   0.00000  Uiso   1.00
C637   C     0.59302   0.78980   0.81610   0.00000  Uiso   1.00
C638   C     0.90698   0.71020   0.81609   0.00000  Uiso   1.00
C639   C     0.90698   0.78980   0.85057   0.00000  Uiso   1.00
C640   C     0.59302   0.71020   0.85057   0.00000  Uiso   1.00
C641   C     0.61599   0.75000   0.83334   0.00000  Uiso   1.00
C642   C     0.88401   0.75000   0.83333   0.00000  Uiso   1.00
C643   C     0.52405   0.75000   0.83333   0.00000  Uiso   1.00
C644   C     0.97595   0.75000   0.83333   0.00000  Uiso   1.00
H645   H     0.52945   0.82027   0.80155   0.00000  Uiso   1.00
H646   H     0.97055   0.67973   0.80154   0.00000  Uiso   1.00
H647   H     0.97055   0.82027   0.86512   0.00000  Uiso   1.00
H648   H     0.52945   0.67973   0.86512   0.00000  Uiso   1.00
N649   N     0.75000   0.62624   0.83333   0.00000  Uiso   1.00
N650   N     0.75000   0.87377   0.83333   0.00000  Uiso   1.00
O651   O     0.68453   0.78974   0.83334   0.00000  Uiso   1.00
O652   O     0.81547   0.71026   0.83333   0.00000  Uiso   1.00
O653   O     0.81547   0.78974   0.83333   0.00000  Uiso   1.00
O654   O     0.68453   0.71026   0.83334   0.00000  Uiso   1.00
O655   O     0.75000   0.78973   0.76178   0.00000  Uiso   1.00
O656   O     0.75000   0.71027   0.90489   0.00000  Uiso   1.00
O657   O     0.75000   0.78973   0.90489   0.00000  Uiso   1.00
O658   O     0.75000   0.71027   0.76178   0.00000  Uiso   1.00
Zn659  Zn    0.75000   0.80307   0.83333   0.00000  Uiso   1.00
Zn660  Zn    0.75000   0.69693   0.83333   0.00000  Uiso   1.00
H661   H     0.79734   0.62183   0.77504   0.00000  Uiso   1.00
H662   H     0.79737   0.87817   0.89160   0.00000  Uiso   1.00
H663   H     0.70266   0.62183   0.89163   0.00000  Uiso   1.00
H664   H     0.70263   0.87817   0.77507   0.00000  Uiso   1.00
H665   H     0.61055   0.82061   0.80226   0.00000  Uiso   1.00
H666   H     0.88945   0.67939   0.80225   0.00000  Uiso   1.00
H667   H     0.88945   0.82061   0.86440   0.00000  Uiso   1.00
H668   H     0.61055   0.67939   0.86441   0.00000  Uiso   1.00
Cl669  Cl    0.81198   0.52349   0.75684   0.00000  Uiso   1.00
Cl670  Cl    0.81201   0.97651   0.90979   0.00000  Uiso   1.00
Cl671  Cl    0.68803   0.52349   0.90983   0.00000  Uiso   1.00
Cl672  Cl    0.68799   0.97651   0.75688   0.00000  Uiso   1.00
loop_
_geom_bond_atom_site_label_1
_geom_bond_atom_site_label_2
_geom_bond_distance
_geom_bond_site_symmetry_2
_ccdc_geom_bond_type
C1     C25     1.437   .     S
C1     O38     1.284   .     A
C1     O35     1.284   .     A
C2     C26     1.437   .     S
C2     O37     1.284   .     A
C2     O36     1.284   .     A
C3     C7      1.409   .     A
C3     N33     1.363   .     A
C3     H45     1.082   .     S
C4     C8      1.409   .     A
C4     H46     1.082   .     S
C4     N34     1.363   .     A
C5     C9      1.409   .     A
C5     H47     1.082   .     S
C5     N33     1.363   .     A
C6     H48     1.082   .     S
C6     N34     1.363   .     A
C6     C10     1.409   .     A
C7     Cl53    1.760   .     S
C7     C13     1.412   .     A
C8     Cl54    1.760   .     S
C8     C14     1.412   .     A
C9     Cl55    1.760   .     S
C9     C13     1.412   .     A
C10    Cl56    1.760   .     S
C10    C14     1.412   .     A
C11    O39     1.273   .     A
C11    O42     1.273   .     A
C11    C15     1.366   .     S
C12    O41     1.273   .     A
C12    O40     1.273   .     A
C12    C16     1.366   .     S
C13    C126    1.508   1_545 S
C14    C125    1.508   .     S
C15    C464    1.165   1_554 S
C16    C239    1.165   .     S
C17    H29     1.083   .     S
C17    C27     1.399   .     A
C17    C21     1.381   .     A
C18    C22     1.381   .     A
C18    H30     1.083   .     S
C18    C28     1.399   .     A
C19    H31     1.083   .     S
C19    C28     1.399   .     A
C19    C23     1.381   .     A
C20    C27     1.399   .     A
C20    C24     1.381   .     A
C20    H32     1.083   .     S
C21    H49     1.084   .     S
C21    C25     1.399   .     A
C22    H50     1.084   .     S
C22    C26     1.399   .     A
C23    H51     1.084   .     S
C23    C26     1.399   .     A
C24    H52     1.084   .     S
C24    C25     1.399   .     A
C27    C84     1.444   1_455 S
C28    C83     1.444   .     S
N33    Zn44    2.001   .     S
N34    Zn43    2.001   .     S
O35    Zn43    2.002   .     S
O36    Zn44    2.002   .     S
O37    Zn43    2.002   .     S
O38    Zn44    2.002   .     S
O39    Zn43    1.951   .     S
O40    Zn44    1.951   .     S
O41    Zn43    1.951   .     S
O42    Zn44    1.951   .     S
C57    C81     1.437   .     S
C57    O94     1.284   .     A
C57    O91     1.284   .     A
C58    C82     1.437   .     S
C58    O93     1.284   .     A
C58    O92     1.284   .     A
C59    C63     1.409   .     A
C59    N89     1.363   .     A
C59    H101    1.082   .     S
C60    C64     1.409   .     A
C60    H102    1.082   .     S
C60    N90     1.363   .     A
C61    C65     1.409   .     A
C61    H103    1.082   .     S
C61    N89     1.363   .     A
C62    H104    1.082   .     S
C62    N90     1.363   .     A
C62    C66     1.409   .     A
C63    Cl109   1.760   .     S
C63    C69     1.412   .     A
C64    Cl110   1.760   .     S
C64    C70     1.412   .     A
C65    Cl111   1.760   .     S
C65    C69     1.412   .     A
C66    Cl112   1.760   .     S
C66    C70     1.412   .     A
C67    O95     1.273   .     A
C67    O98     1.273   .     A
C67    C71     1.366   .     S
C68    O97     1.273   .     A
C68    O96     1.273   .     A
C68    C72     1.366   .     S
C69    C182    1.508   1_545 S
C70    C181    1.508   .     S
C71    C520    1.165   1_554 S
C72    C295    1.165   .     S
C73    H85     1.083   .     S
C73    C83     1.399   .     A
C73    C77     1.381   .     A
C74    C78     1.381   .     A
C74    H86     1.083   .     S
C74    C84     1.399   .     A
C75    H87     1.083   .     S
C75    C84     1.399   .     A
C75    C79     1.381   .     A
C76    C83     1.399   .     A
C76    C80     1.381   .     A
C76    H88     1.083   .     S
C77    H105    1.084   .     S
C77    C81     1.399   .     A
C78    H106    1.084   .     S
C78    C82     1.399   .     A
C79    H107    1.084   .     S
C79    C82     1.399   .     A
C80    H108    1.084   .     S
C80    C81     1.399   .     A
C84    C27     1.444   1_655 S
N89    Zn100   2.001   .     S
N90    Zn99    2.001   .     S
O91    Zn99    2.002   .     S
O92    Zn100   2.002   .     S
O93    Zn99    2.002   .     S
O94    Zn100   2.002   .     S
O95    Zn99    1.951   .     S
O96    Zn100   1.951   .     S
O97    Zn99    1.951   .     S
O98    Zn100   1.951   .     S
C113   C137    1.437   .     S
C113   O150    1.284   .     A
C113   O147    1.284   .     A
C114   C138    1.437   .     S
C114   O149    1.284   .     A
C114   O148    1.284   .     A
C115   C119    1.409   .     A
C115   N145    1.363   .     A
C115   H157    1.082   .     S
C116   C120    1.409   .     A
C116   H158    1.082   .     S
C116   N146    1.363   .     A
C117   C121    1.409   .     A
C117   H159    1.082   .     S
C117   N145    1.363   .     A
C118   H160    1.082   .     S
C118   N146    1.363   .     A
C118   C122    1.409   .     A
C119   Cl165   1.760   .     S
C119   C125    1.412   .     A
C120   Cl166   1.760   .     S
C120   C126    1.412   .     A
C121   Cl167   1.760   .     S
C121   C125    1.412   .     A
C122   Cl168   1.760   .     S
C122   C126    1.412   .     A
C123   O151    1.273   .     A
C123   O154    1.273   .     A
C123   C127    1.366   .     S
C124   O153    1.273   .     A
C124   O152    1.273   .     A
C124   C128    1.366   .     S
C126   C13     1.508   1_565 S
C127   C576    1.165   1_554 S
C128   C351    1.165   .     S
C129   H141    1.083   .     S
C129   C139    1.399   .     A
C129   C133    1.381   .     A
C130   C134    1.381   .     A
C130   H142    1.083   .     S
C130   C140    1.399   .     A
C131   H143    1.083   .     S
C131   C140    1.399   .     A
C131   C135    1.381   .     A
C132   C139    1.399   .     A
C132   C136    1.381   .     A
C132   H144    1.083   .     S
C133   H161    1.084   .     S
C133   C137    1.399   .     A
C134   H162    1.084   .     S
C134   C138    1.399   .     A
C135   H163    1.084   .     S
C135   C138    1.399   .     A
C136   H164    1.084   .     S
C136   C137    1.399   .     A
C139   C196    1.444   1_455 S
C140   C195    1.444   .     S
N145   Zn156   2.001   .     S
N146   Zn155   2.001   .     S
O147   Zn155   2.002   .     S
O148   Zn156   2.002   .     S
O149   Zn155   2.002   .     S
O150   Zn156   2.002   .     S
O151   Zn155   1.951   .     S
O152   Zn156   1.951   .     S
O153   Zn155   1.951   .     S
O154   Zn156   1.951   .     S
C169   C193    1.437   .     S
C169   O206    1.284   .     A
C169   O203    1.284   .     A
C170   C194    1.437   .     S
C170   O205    1.284   .     A
C170   O204    1.284   .     A
C171   C175    1.409   .     A
C171   N201    1.363   .     A
C171   H213    1.082   .     S
C172   C176    1.409   .     A
C172   H214    1.082   .     S
C172   N202    1.363   .     A
C173   C177    1.409   .     A
C173   H215    1.082   .     S
C173   N201    1.363   .     A
C174   H216    1.082   .     S
C174   N202    1.363   .     A
C174   C178    1.409   .     A
C175   Cl221   1.760   .     S
C175   C181    1.412   .     A
C176   Cl222   1.760   .     S
C176   C182    1.412   .     A
C177   Cl223   1.760   .     S
C177   C181    1.412   .     A
C178   Cl224   1.760   .     S
C178   C182    1.412   .     A
C179   O207    1.273   .     A
C179   O210    1.273   .     A
C179   C183    1.366   .     S
C180   O209    1.273   .     A
C180   O208    1.273   .     A
C180   C184    1.366   .     S
C182   C69     1.508   1_565 S
C183   C632    1.165   1_554 S
C184   C407    1.165   .     S
C185   H197    1.083   .     S
C185   C195    1.399   .     A
C185   C189    1.381   .     A
C186   C190    1.381   .     A
C186   H198    1.083   .     S
C186   C196    1.399   .     A
C187   H199    1.083   .     S
C187   C196    1.399   .     A
C187   C191    1.381   .     A
C188   C195    1.399   .     A
C188   C192    1.381   .     A
C188   H200    1.083   .     S
C189   H217    1.084   .     S
C189   C193    1.399   .     A
C190   H218    1.084   .     S
C190   C194    1.399   .     A
C191   H219    1.084   .     S
C191   C194    1.399   .     A
C192   H220    1.084   .     S
C192   C193    1.399   .     A
C196   C139    1.444   1_655 S
N201   Zn212   2.001   .     S
N202   Zn211   2.001   .     S
O203   Zn211   2.002   .     S
O204   Zn212   2.002   .     S
O205   Zn211   2.002   .     S
O206   Zn212   2.002   .     S
O207   Zn211   1.951   .     S
O208   Zn212   1.951   .     S
O209   Zn211   1.951   .     S
O210   Zn212   1.951   .     S
C225   C249    1.437   .     S
C225   O262    1.284   .     A
C225   O259    1.284   .     A
C226   C250    1.437   .     S
C226   O261    1.284   .     A
C226   O260    1.284   .     A
C227   C231    1.409   .     A
C227   N257    1.363   .     A
C227   H269    1.082   .     S
C228   C232    1.409   .     A
C228   H270    1.082   .     S
C228   N258    1.363   .     A
C229   C233    1.409   .     A
C229   H271    1.082   .     S
C229   N257    1.363   .     A
C230   H272    1.082   .     S
C230   N258    1.363   .     A
C230   C234    1.409   .     A
C231   Cl277   1.760   .     S
C231   C237    1.412   .     A
C232   Cl278   1.760   .     S
C232   C238    1.412   .     A
C233   Cl279   1.760   .     S
C233   C237    1.412   .     A
C234   Cl280   1.760   .     S
C234   C238    1.412   .     A
C235   O263    1.273   .     A
C235   O266    1.273   .     A
C235   C239    1.366   .     S
C236   O265    1.273   .     A
C236   O264    1.273   .     A
C236   C240    1.366   .     S
C237   C350    1.508   1_545 S
C238   C349    1.508   .     S
C240   C463    1.165   .     S
C241   H253    1.083   .     S
C241   C251    1.399   .     A
C241   C245    1.381   .     A
C242   C246    1.381   .     A
C242   H254    1.083   .     S
C242   C252    1.399   .     A
C243   H255    1.083   .     S
C243   C252    1.399   .     A
C243   C247    1.381   .     A
C244   C251    1.399   .     A
C244   C248    1.381   .     A
C244   H256    1.083   .     S
C245   H273    1.084   .     S
C245   C249    1.399   .     A
C246   H274    1.084   .     S
C246   C250    1.399   .     A
C247   H275    1.084   .     S
C247   C250    1.399   .     A
C248   H276    1.084   .     S
C248   C249    1.399   .     A
C251   C308    1.444   1_455 S
C252   C307    1.444   .     S
N257   Zn268   2.001   .     S
N258   Zn267   2.001   .     S
O259   Zn267   2.002   .     S
O260   Zn268   2.002   .     S
O261   Zn267   2.002   .     S
O262   Zn268   2.002   .     S
O263   Zn267   1.951   .     S
O264   Zn268   1.951   .     S
O265   Zn267   1.951   .     S
O266   Zn268   1.951   .     S
C281   C305    1.437   .     S
C281   O318    1.284   .     A
C281   O315    1.284   .     A
C282   C306    1.437   .     S
C282   O317    1.284   .     A
C282   O316    1.284   .     A
C283   C287    1.409   .     A
C283   N313    1.363   .     A
C283   H325    1.082   .     S
C284   C288    1.409   .     A
C284   H326    1.082   .     S
C284   N314    1.363   .     A
C285   C289    1.409   .     A
C285   H327    1.082   .     S
C285   N313    1.363   .     A
C286   H328    1.082   .     S
C286   N314    1.363   .     A
C286   C290    1.409   .     A
C287   Cl333   1.760   .     S
C287   C293    1.412   .     A
C288   Cl334   1.760   .     S
C288   C294    1.412   .     A
C289   Cl335   1.760   .     S
C289   C293    1.412   .     A
C290   Cl336   1.760   .     S
C290   C294    1.412   .     A
C291   O319    1.273   .     A
C291   O322    1.273   .     A
C291   C295    1.366   .     S
C292   O321    1.273   .     A
C292   O320    1.273   .     A
C292   C296    1.366   .     S
C293   C406    1.508   1_545 S
C294   C405    1.508   .     S
C296   C519    1.165   .     S
C297   H309    1.083   .     S
C297   C307    1.399   .     A
C297   C301    1.381   .     A
C298   C302    1.381   .     A
C298   H310    1.083   .     S
C298   C308    1.399   .     A
C299   H311    1.083   .     S
C299   C308    1.399   .     A
C299   C303    1.381   .     A
C300   C307    1.399   .     A
C300   C304    1.381   .     A
C300   H312    1.083   .     S
C301   H329    1.084   .     S
C301   C305    1.399   .     A
C302   H330    1.084   .     S
C302   C306    1.399   .     A
C303   H331    1.084   .     S
C303   C306    1.399   .     A
C304   H332    1.084   .     S
C304   C305    1.399   .     A
C308   C251    1.444   1_655 S
N313   Zn324   2.001   .     S
N314   Zn323   2.001   .     S
O315   Zn323   2.002   .     S
O316   Zn324   2.002   .     S
O317   Zn323   2.002   .     S
O318   Zn324   2.002   .     S
O319   Zn323   1.951   .     S
O320   Zn324   1.951   .     S
O321   Zn323   1.951   .     S
O322   Zn324   1.951   .     S
C337   C361    1.437   .     S
C337   O374    1.284   .     A
C337   O371    1.284   .     A
C338   C362    1.437   .     S
C338   O373    1.284   .     A
C338   O372    1.284   .     A
C339   C343    1.409   .     A
C339   N369    1.363   .     A
C339   H381    1.082   .     S
C340   C344    1.409   .     A
C340   H382    1.082   .     S
C340   N370    1.363   .     A
C341   C345    1.409   .     A
C341   H383    1.082   .     S
C341   N369    1.363   .     A
C342   H384    1.082   .     S
C342   N370    1.363   .     A
C342   C346    1.409   .     A
C343   Cl389   1.760   .     S
C343   C349    1.412   .     A
C344   Cl390   1.760   .     S
C344   C350    1.412   .     A
C345   Cl391   1.760   .     S
C345   C349    1.412   .     A
C346   Cl392   1.760   .     S
C346   C350    1.412   .     A
C347   O375    1.273   .     A
C347   O378    1.273   .     A
C347   C351    1.366   .     S
C348   O377    1.273   .     A
C348   O376    1.273   .     A
C348   C352    1.366   .     S
C350   C237    1.508   1_565 S
C352   C575    1.165   .     S
C353   H365    1.083   .     S
C353   C363    1.399   .     A
C353   C357    1.381   .     A
C354   C358    1.381   .     A
C354   H366    1.083   .     S
C354   C364    1.399   .     A
C355   H367    1.083   .     S
C355   C364    1.399   .     A
C355   C359    1.381   .     A
C356   C363    1.399   .     A
C356   C360    1.381   .     A
C356   H368    1.083   .     S
C357   H385    1.084   .     S
C357   C361    1.399   .     A
C358   H386    1.084   .     S
C358   C362    1.399   .     A
C359   H387    1.084   .     S
C359   C362    1.399   .     A
C360   H388    1.084   .     S
C360   C361    1.399   .     A
C363   C420    1.444   1_455 S
C364   C419    1.444   .     S
N369   Zn380   2.001   .     S
N370   Zn379   2.001   .     S
O371   Zn379   2.002   .     S
O372   Zn380   2.002   .     S
O373   Zn379   2.002   .     S
O374   Zn380   2.002   .     S
O375   Zn379   1.951   .     S
O376   Zn380   1.951   .     S
O377   Zn379   1.951   .     S
O378   Zn380   1.951   .     S
C393   C417    1.437   .     S
C393   O430    1.284   .     A
C393   O427    1.284   .     A
C394   C418    1.437   .     S
C394   O429    1.284   .     A
C394   O428    1.284   .     A
C395   C399    1.409   .     A
C395   N425    1.363   .     A
C395   H437    1.082   .     S
C396   C400    1.409   .     A
C396   H438    1.082   .     S
C396   N426    1.363   .     A
C397   C401    1.409   .     A
C397   H439    1.082   .     S
C397   N425    1.363   .     A
C398   H440    1.082   .     S
C398   N426    1.363   .     A
C398   C402    1.409   .     A
C399   Cl445   1.760   .     S
C399   C405    1.412   .     A
C400   Cl446   1.760   .     S
C400   C406    1.412   .     A
C401   Cl447   1.760   .     S
C401   C405    1.412   .     A
C402   Cl448   1.760   .     S
C402   C406    1.412   .     A
C403   O431    1.273   .     A
C403   O434    1.273   .     A
C403   C407    1.366   .     S
C404   O433    1.273   .     A
C404   O432    1.273   .     A
C404   C408    1.366   .     S
C406   C293    1.508   1_565 S
C408   C631    1.165   .     S
C409   H421    1.083   .     S
C409   C419    1.399   .     A
C409   C413    1.381   .     A
C410   C414    1.381   .     A
C410   H422    1.083   .     S
C410   C420    1.399   .     A
C411   H423    1.083   .     S
C411   C420    1.399   .     A
C411   C415    1.381   .     A
C412   C419    1.399   .     A
C412   C416    1.381   .     A
C412   H424    1.083   .     S
C413   H441    1.084   .     S
C413   C417    1.399   .     A
C414   H442    1.084   .     S
C414   C418    1.399   .     A
C415   H443    1.084   .     S
C415   C418    1.399   .     A
C416   H444    1.084   .     S
C416   C417    1.399   .     A
C420   C363    1.444   1_655 S
N425   Zn436   2.001   .     S
N426   Zn435   2.001   .     S
O427   Zn435   2.002   .     S
O428   Zn436   2.002   .     S
O429   Zn435   2.002   .     S
O430   Zn436   2.002   .     S
O431   Zn435   1.951   .     S
O432   Zn436   1.951   .     S
O433   Zn435   1.951   .     S
O434   Zn436   1.951   .     S
C449   C473    1.437   .     S
C449   O486    1.284   .     A
C449   O483    1.284   .     A
C450   C474    1.437   .     S
C450   O485    1.284   .     A
C450   O484    1.284   .     A
C451   C455    1.409   .     A
C451   N481    1.363   .     A
C451   H493    1.082   .     S
C452   C456    1.409   .     A
C452   H494    1.082   .     S
C452   N482    1.363   .     A
C453   C457    1.409   .     A
C453   H495    1.082   .     S
C453   N481    1.363   .     A
C454   H496    1.082   .     S
C454   N482    1.363   .     A
C454   C458    1.409   .     A
C455   Cl501   1.760   .     S
C455   C461    1.412   .     A
C456   Cl502   1.760   .     S
C456   C462    1.412   .     A
C457   Cl503   1.760   .     S
C457   C461    1.412   .     A
C458   Cl504   1.760   .     S
C458   C462    1.412   .     A
C459   O487    1.273   .     A
C459   O490    1.273   .     A
C459   C463    1.366   .     S
C460   O489    1.273   .     A
C460   O488    1.273   .     A
C460   C464    1.366   .     S
C461   C574    1.508   1_545 S
C462   C573    1.508   .     S
C464   C15     1.165   1_556 S
C465   H477    1.083   .     S
C465   C475    1.399   .     A
C465   C469    1.381   .     A
C466   C470    1.381   .     A
C466   H478    1.083   .     S
C466   C476    1.399   .     A
C467   H479    1.083   .     S
C467   C476    1.399   .     A
C467   C471    1.381   .     A
C468   C475    1.399   .     A
C468   C472    1.381   .     A
C468   H480    1.083   .     S
C469   H497    1.084   .     S
C469   C473    1.399   .     A
C470   H498    1.084   .     S
C470   C474    1.399   .     A
C471   H499    1.084   .     S
C471   C474    1.399   .     A
C472   H500    1.084   .     S
C472   C473    1.399   .     A
C475   C532    1.444   1_455 S
C476   C531    1.444   .     S
N481   Zn492   2.001   .     S
N482   Zn491   2.001   .     S
O483   Zn491   2.002   .     S
O484   Zn492   2.002   .     S
O485   Zn491   2.002   .     S
O486   Zn492   2.002   .     S
O487   Zn491   1.951   .     S
O488   Zn492   1.951   .     S
O489   Zn491   1.951   .     S
O490   Zn492   1.951   .     S
C505   C529    1.437   .     S
C505   O542    1.284   .     A
C505   O539    1.284   .     A
C506   C530    1.437   .     S
C506   O541    1.284   .     A
C506   O540    1.284   .     A
C507   C511    1.409   .     A
C507   N537    1.363   .     A
C507   H549    1.082   .     S
C508   C512    1.409   .     A
C508   H550    1.082   .     S
C508   N538    1.363   .     A
C509   C513    1.409   .     A
C509   H551    1.082   .     S
C509   N537    1.363   .     A
C510   H552    1.082   .     S
C510   N538    1.363   .     A
C510   C514    1.409   .     A
C511   Cl557   1.760   .     S
C511   C517    1.412   .     A
C512   Cl558   1.760   .     S
C512   C518    1.412   .     A
C513   Cl559   1.760   .     S
C513   C517    1.412   .     A
C514   Cl560   1.760   .     S
C514   C518    1.412   .     A
C515   O543    1.273   .     A
C515   O546    1.273   .     A
C515   C519    1.366   .     S
C516   O545    1.273   .     A
C516   O544    1.273   .     A
C516   C520    1.366   .     S
C517   C630    1.508   1_545 S
C518   C629    1.508   .     S
C520   C71     1.165   1_556 S
C521   H533    1.083   .     S
C521   C531    1.399   .     A
C521   C525    1.381   .     A
C522   C526    1.381   .     A
C522   H534    1.083   .     S
C522   C532    1.399   .     A
C523   H535    1.083   .     S
C523   C532    1.399   .     A
C523   C527    1.381   .     A
C524   C531    1.399   .     A
C524   C528    1.381   .     A
C524   H536    1.083   .     S
C525   H553    1.084   .     S
C525   C529    1.399   .     A
C526   H554    1.084   .     S
C526   C530    1.399   .     A
C527   H555    1.084   .     S
C527   C530    1.399   .     A
C528   H556    1.084   .     S
C528   C529    1.399   .     A
C532   C475    1.444   1_655 S
N537   Zn548   2.001   .     S
N538   Zn547   2.001   .     S
O539   Zn547   2.002   .     S
O540   Zn548   2.002   .     S
O541   Zn547   2.002   .     S
O542   Zn548   2.002   .     S
O543   Zn547   1.951   .     S
O544   Zn548   1.951   .     S
O545   Zn547   1.951   .     S
O546   Zn548   1.951   .     S
C561   C585    1.437   .     S
C561   O598    1.284   .     A
C561   O595    1.284   .     A
C562   C586    1.437   .     S
C562   O597    1.284   .     A
C562   O596    1.284   .     A
C563   C567    1.409   .     A
C563   N593    1.363   .     A
C563   H605    1.082   .     S
C564   C568    1.409   .     A
C564   H606    1.082   .     S
C564   N594    1.363   .     A
C565   C569    1.409   .     A
C565   H607    1.082   .     S
C565   N593    1.363   .     A
C566   H608    1.082   .     S
C566   N594    1.363   .     A
C566   C570    1.409   .     A
C567   Cl613   1.760   .     S
C567   C573    1.412   .     A
C568   Cl614   1.760   .     S
C568   C574    1.412   .     A
C569   Cl615   1.760   .     S
C569   C573    1.412   .     A
C570   Cl616   1.760   .     S
C570   C574    1.412   .     A
C571   O599    1.273   .     A
C571   O602    1.273   .     A
C571   C575    1.366   .     S
C572   O601    1.273   .     A
C572   O600    1.273   .     A
C572   C576    1.366   .     S
C574   C461    1.508   1_565 S
C576   C127    1.165   1_556 S
C577   H589    1.083   .     S
C577   C587    1.399   .     A
C577   C581    1.381   .     A
C578   C582    1.381   .     A
C578   H590    1.083   .     S
C578   C588    1.399   .     A
C579   H591    1.083   .     S
C579   C588    1.399   .     A
C579   C583    1.381   .     A
C580   C587    1.399   .     A
C580   C584    1.381   .     A
C580   H592    1.083   .     S
C581   H609    1.084   .     S
C581   C585    1.399   .     A
C582   H610    1.084   .     S
C582   C586    1.399   .     A
C583   H611    1.084   .     S
C583   C586    1.399   .     A
C584   H612    1.084   .     S
C584   C585    1.399   .     A
C587   C644    1.444   1_455 S
C588   C643    1.444   .     S
N593   Zn604   2.001   .     S
N594   Zn603   2.001   .     S
O595   Zn603   2.002   .     S
O596   Zn604   2.002   .     S
O597   Zn603   2.002   .     S
O598   Zn604   2.002   .     S
O599   Zn603   1.951   .     S
O600   Zn604   1.951   .     S
O601   Zn603   1.951   .     S
O602   Zn604   1.951   .     S
C617   C641    1.437   .     S
C617   O654    1.284   .     A
C617   O651    1.284   .     A
C618   C642    1.437   .     S
C618   O653    1.284   .     A
C618   O652    1.284   .     A
C619   C623    1.409   .     A
C619   N649    1.363   .     A
C619   H661    1.082   .     S
C620   C624    1.409   .     A
C620   H662    1.082   .     S
C620   N650    1.363   .     A
C621   C625    1.409   .     A
C621   H663    1.082   .     S
C621   N649    1.363   .     A
C622   H664    1.082   .     S
C622   N650    1.363   .     A
C622   C626    1.409   .     A
C623   Cl669   1.760   .     S
C623   C629    1.412   .     A
C624   Cl670   1.760   .     S
C624   C630    1.412   .     A
C625   Cl671   1.760   .     S
C625   C629    1.412   .     A
C626   Cl672   1.760   .     S
C626   C630    1.412   .     A
C627   O655    1.273   .     A
C627   O658    1.273   .     A
C627   C631    1.366   .     S
C628   O657    1.273   .     A
C628   O656    1.273   .     A
C628   C632    1.366   .     S
C630   C517    1.508   1_565 S
C632   C183    1.165   1_556 S
C633   H645    1.083   .     S
C633   C643    1.399   .     A
C633   C637    1.381   .     A
C634   C638    1.381   .     A
C634   H646    1.083   .     S
C634   C644    1.399   .     A
C635   H647    1.083   .     S
C635   C644    1.399   .     A
C635   C639    1.381   .     A
C636   C643    1.399   .     A
C636   C640    1.381   .     A
C636   H648    1.083   .     S
C637   H665    1.084   .     S
C637   C641    1.399   .     A
C638   H666    1.084   .     S
C638   C642    1.399   .     A
C639   H667    1.084   .     S
C639   C642    1.399   .     A
C640   H668    1.084   .     S
C640   C641    1.399   .     A
C644   C587    1.444   1_655 S
N649   Zn660   2.001   .     S
N650   Zn659   2.001   .     S
O651   Zn659   2.002   .     S
O652   Zn660   2.002   .     S
O653   Zn659   2.002   .     S
O654   Zn660   2.002   .     S
O655   Zn659   1.951   .     S
O656   Zn660   1.951   .     S
O657   Zn659   1.951   .     S
O658   Zn660   1.951   .     S
