data_str_m1_o1_o17_pcu_sym.35
_audit_creation_date              2020-01-03
_audit_creation_method            'Materials Studio'
_symmetry_space_group_name_H-M    'P1'
_symmetry_Int_Tables_number       1
_symmetry_cell_setting            triclinic
loop_
_symmetry_equiv_pos_as_xyz
  x,y,z
_cell_length_a                    36.6333
_cell_length_b                    36.6333
_cell_length_c                    34.5212
_cell_angle_alpha                 90.1463
_cell_angle_beta                  90.1463
_cell_angle_gamma                 89.9270
loop_
_atom_site_label
_atom_site_type_symbol
_atom_site_fract_x
_atom_site_fract_y
_atom_site_fract_z
_atom_site_U_iso_or_equiv
_atom_site_adp_type
_atom_site_occupancy
C1     C     0.47492   0.27222   0.41803   0.00000  Uiso   1.00
C2     C     0.27677   0.47966   0.08156   0.00000  Uiso   1.00
C3     C     0.22870   0.02614   0.54116   0.00000  Uiso   1.00
C4     C     0.47386   0.27130   0.45884   0.00000  Uiso   1.00
C5     C     0.02839   0.23132   0.54071   0.00000  Uiso   1.00
C6     C     0.23045   0.02705   0.45937   0.00000  Uiso   1.00
C7     C     0.26679   0.47078   0.54111   0.00000  Uiso   1.00
C8     C     0.27922   0.48321   0.95889   0.00000  Uiso   1.00
C9     C     0.22295   0.01955   0.04063   0.00000  Uiso   1.00
C10    C     0.01868   0.22160   0.95929   0.00000  Uiso   1.00
C11    C     0.47870   0.27614   0.04116   0.00000  Uiso   1.00
C12    C     0.22386   0.02130   0.95884   0.00000  Uiso   1.00
C13    C     0.48371   0.27902   0.91879   0.00000  Uiso   1.00
C14    C     0.27840   0.48133   0.04071   0.00000  Uiso   1.00
C15    C     0.48045   0.27705   0.95937   0.00000  Uiso   1.00
C16    C     0.01679   0.22078   0.04111   0.00000  Uiso   1.00
C17    C     0.09815   0.34811   0.25001   0.00000  Uiso   1.00
C18    C     0.40186   0.15188   0.74995   0.00000  Uiso   1.00
C19    C     0.15187   0.09813   0.25000   0.00000  Uiso   1.00
C20    C     0.34813   0.40187   0.75000   0.00000  Uiso   1.00
C21    C     0.40189   0.15184   0.24999   0.00000  Uiso   1.00
C22    C     0.09812   0.34814   0.75005   0.00000  Uiso   1.00
C23    C     0.34812   0.40188   0.25000   0.00000  Uiso   1.00
C24    C     0.01905   0.22272   0.08179   0.00000  Uiso   1.00
C25    C     0.15188   0.09812   0.75000   0.00000  Uiso   1.00
C26    C     0.09812   0.15188   0.75000   0.00000  Uiso   1.00
C27    C     0.40188   0.34812   0.25000   0.00000  Uiso   1.00
C28    C     0.15189   0.40184   0.74999   0.00000  Uiso   1.00
C29    C     0.34812   0.09814   0.25005   0.00000  Uiso   1.00
C30    C     0.40187   0.34813   0.75000   0.00000  Uiso   1.00
C31    C     0.09813   0.15187   0.25000   0.00000  Uiso   1.00
C32    C     0.34815   0.09811   0.75001   0.00000  Uiso   1.00
C33    C     0.15186   0.40188   0.24995   0.00000  Uiso   1.00
C34    C     0.00136   0.25185   0.47933   0.00000  Uiso   1.00
C35    C     0.27728   0.48095   0.91821   0.00000  Uiso   1.00
C36    C     0.00097   0.25097   0.52025   0.00000  Uiso   1.00
C37    C     0.24903   0.49903   0.47975   0.00000  Uiso   1.00
C38    C     0.24815   0.49864   0.52067   0.00000  Uiso   1.00
C39    C     0.25136   0.00185   0.97933   0.00000  Uiso   1.00
C40    C     0.25097   0.00097   0.02025   0.00000  Uiso   1.00
C41    C     0.49903   0.24903   0.97975   0.00000  Uiso   1.00
C42    C     0.49815   0.24864   0.02066   0.00000  Uiso   1.00
C43    C     0.11476   0.23191   0.45768   0.00000  Uiso   1.00
C44    C     0.43742   0.34844   0.54278   0.00000  Uiso   1.00
C45    C     0.33998   0.41281   0.46878   0.00000  Uiso   1.00
C46    C     0.22098   0.01629   0.08121   0.00000  Uiso   1.00
C47    C     0.21312   0.11224   0.54132   0.00000  Uiso   1.00
C48    C     0.38776   0.28688   0.45868   0.00000  Uiso   1.00
C49    C     0.08719   0.16002   0.53122   0.00000  Uiso   1.00
C50    C     0.15156   0.06258   0.45722   0.00000  Uiso   1.00
C51    C     0.26809   0.38524   0.54232   0.00000  Uiso   1.00
C52    C     0.36476   0.48192   0.95768   0.00000  Uiso   1.00
C53    C     0.18741   0.09843   0.04278   0.00000  Uiso   1.00
C54    C     0.08998   0.16281   0.96878   0.00000  Uiso   1.00
C55    C     0.46312   0.36224   0.04132   0.00000  Uiso   1.00
C56    C     0.13775   0.03687   0.95868   0.00000  Uiso   1.00
C57    C     0.02034   0.22323   0.91845   0.00000  Uiso   1.00
C58    C     0.33720   0.41003   0.03122   0.00000  Uiso   1.00
C59    C     0.40156   0.31258   0.95722   0.00000  Uiso   1.00
C60    C     0.01809   0.13524   0.04232   0.00000  Uiso   1.00
C61    C     0.46638   0.32757   0.38993   0.00000  Uiso   1.00
C62    C     0.03700   0.17541   0.61173   0.00000  Uiso   1.00
C63    C     0.24390   0.08725   0.39904   0.00000  Uiso   1.00
C64    C     0.32587   0.46309   0.60610   0.00000  Uiso   1.00
C65    C     0.03690   0.17413   0.39390   0.00000  Uiso   1.00
C66    C     0.41275   0.25610   0.60096   0.00000  Uiso   1.00
C67    C     0.32459   0.46300   0.38827   0.00000  Uiso   1.00
C68    C     0.47778   0.27508   0.08197   0.00000  Uiso   1.00
C69    C     0.17243   0.03362   0.61007   0.00000  Uiso   1.00
C70    C     0.21638   0.07757   0.88993   0.00000  Uiso   1.00
C71    C     0.28700   0.42541   0.11173   0.00000  Uiso   1.00
C72    C     0.49390   0.33725   0.89904   0.00000  Uiso   1.00
C73    C     0.07587   0.21310   0.10610   0.00000  Uiso   1.00
C74    C     0.28691   0.42413   0.89390   0.00000  Uiso   1.00
C75    C     0.16275   0.00609   0.10096   0.00000  Uiso   1.00
C76    C     0.07459   0.21300   0.88827   0.00000  Uiso   1.00
C77    C     0.42243   0.28362   0.11007   0.00000  Uiso   1.00
C78    C     0.00056   0.25084   0.39810   0.00000  Uiso   1.00
C79    C     0.49927   0.24874   0.60155   0.00000  Uiso   1.00
C80    C     0.25126   0.00073   0.39845   0.00000  Uiso   1.00
C81    C     0.02677   0.22966   0.58156   0.00000  Uiso   1.00
C82    C     0.24916   0.49944   0.60190   0.00000  Uiso   1.00
C83    C     0.25056   0.00084   0.89810   0.00000  Uiso   1.00
C84    C     0.24927   0.49874   0.10155   0.00000  Uiso   1.00
C85    C     0.00126   0.25073   0.89845   0.00000  Uiso   1.00
C86    C     0.49916   0.24944   0.10190   0.00000  Uiso   1.00
C87    C     0.05841   0.21709   0.47945   0.00000  Uiso   1.00
C88    C     0.44757   0.29125   0.52002   0.00000  Uiso   1.00
C89    C     0.28583   0.44296   0.48002   0.00000  Uiso   1.00
C90    C     0.21000   0.05360   0.52039   0.00000  Uiso   1.00
C91    C     0.44640   0.29000   0.47961   0.00000  Uiso   1.00
C92    C     0.23371   0.02902   0.41879   0.00000  Uiso   1.00
C93    C     0.05704   0.21417   0.51998   0.00000  Uiso   1.00
C94    C     0.20875   0.05243   0.47998   0.00000  Uiso   1.00
C95    C     0.28291   0.44159   0.52055   0.00000  Uiso   1.00
C96    C     0.30841   0.46710   0.97945   0.00000  Uiso   1.00
C97    C     0.19756   0.04124   0.02002   0.00000  Uiso   1.00
C98    C     0.03583   0.19296   0.98002   0.00000  Uiso   1.00
C99    C     0.46000   0.30360   0.02039   0.00000  Uiso   1.00
C100   C     0.19640   0.04000   0.97961   0.00000  Uiso   1.00
C101   C     0.30704   0.46418   0.01998   0.00000  Uiso   1.00
C102   C     0.45875   0.30243   0.97998   0.00000  Uiso   1.00
C103   C     0.26905   0.47272   0.58179   0.00000  Uiso   1.00
C104   C     0.03291   0.19159   0.02055   0.00000  Uiso   1.00
C105   C     0.25010   0.00016   0.35594   0.00000  Uiso   1.00
C106   C     0.24998   0.49990   0.64419   0.00000  Uiso   1.00
C107   C     0.00010   0.25002   0.35581   0.00000  Uiso   1.00
C108   C     0.49984   0.24990   0.64406   0.00000  Uiso   1.00
C109   C     0.00010   0.25016   0.85594   0.00000  Uiso   1.00
C110   C     0.49998   0.24990   0.14419   0.00000  Uiso   1.00
C111   C     0.25010   0.00002   0.85581   0.00000  Uiso   1.00
C112   C     0.24984   0.49990   0.14406   0.00000  Uiso   1.00
C113   C     0.17994   0.07006   0.25000   0.00000  Uiso   1.00
C114   C     0.02728   0.23095   0.41821   0.00000  Uiso   1.00
C115   C     0.32006   0.42994   0.75000   0.00000  Uiso   1.00
C116   C     0.42996   0.17992   0.24998   0.00000  Uiso   1.00
C117   C     0.07005   0.32007   0.75003   0.00000  Uiso   1.00
C118   C     0.32004   0.42996   0.25000   0.00000  Uiso   1.00
C119   C     0.17996   0.07004   0.75000   0.00000  Uiso   1.00
C120   C     0.07007   0.32004   0.25002   0.00000  Uiso   1.00
C121   C     0.42993   0.17995   0.74997   0.00000  Uiso   1.00
C122   C     0.17996   0.42992   0.74998   0.00000  Uiso   1.00
C123   C     0.32005   0.07007   0.25003   0.00000  Uiso   1.00
C124   C     0.42994   0.32006   0.75000   0.00000  Uiso   1.00
C125   C     0.47098   0.26629   0.58121   0.00000  Uiso   1.00
C126   C     0.07006   0.17994   0.25000   0.00000  Uiso   1.00
C127   C     0.32007   0.07004   0.75002   0.00000  Uiso   1.00
C128   C     0.17993   0.42995   0.24997   0.00000  Uiso   1.00
C129   C     0.07004   0.17996   0.75000   0.00000  Uiso   1.00
C130   C     0.42996   0.32004   0.25000   0.00000  Uiso   1.00
C131   C     0.12195   0.40465   0.22475   0.00000  Uiso   1.00
C132   C     0.37808   0.09532   0.77520   0.00000  Uiso   1.00
C133   C     0.09623   0.12299   0.22338   0.00000  Uiso   1.00
C134   C     0.40377   0.37702   0.77662   0.00000  Uiso   1.00
C135   C     0.37793   0.09520   0.22483   0.00000  Uiso   1.00
C136   C     0.27034   0.47323   0.41845   0.00000  Uiso   1.00
C137   C     0.12210   0.40477   0.77522   0.00000  Uiso   1.00
C138   C     0.40320   0.37645   0.22283   0.00000  Uiso   1.00
C139   C     0.09680   0.12356   0.77717   0.00000  Uiso   1.00
C140   C     0.12355   0.09680   0.77717   0.00000  Uiso   1.00
C141   C     0.37644   0.40320   0.22283   0.00000  Uiso   1.00
C142   C     0.09535   0.37805   0.77525   0.00000  Uiso   1.00
C143   C     0.40468   0.12192   0.22480   0.00000  Uiso   1.00
C144   C     0.37701   0.40377   0.77662   0.00000  Uiso   1.00
C145   C     0.12298   0.09623   0.22338   0.00000  Uiso   1.00
C146   C     0.40480   0.12207   0.77517   0.00000  Uiso   1.00
C147   C     0.22778   0.02508   0.58197   0.00000  Uiso   1.00
C148   C     0.09523   0.37790   0.22478   0.00000  Uiso   1.00
C149   C     0.37195   0.15465   0.72475   0.00000  Uiso   1.00
C150   C     0.12808   0.34532   0.27520   0.00000  Uiso   1.00
C151   C     0.34623   0.37299   0.72338   0.00000  Uiso   1.00
C152   C     0.15377   0.12702   0.27662   0.00000  Uiso   1.00
C153   C     0.12793   0.34520   0.72483   0.00000  Uiso   1.00
C154   C     0.37210   0.15477   0.27522   0.00000  Uiso   1.00
C155   C     0.15320   0.12645   0.72283   0.00000  Uiso   1.00
C156   C     0.34680   0.37356   0.27717   0.00000  Uiso   1.00
C157   C     0.37355   0.34680   0.27717   0.00000  Uiso   1.00
C158   C     0.22492   0.02222   0.91803   0.00000  Uiso   1.00
C159   C     0.12644   0.15320   0.72283   0.00000  Uiso   1.00
C160   C     0.34535   0.12805   0.27525   0.00000  Uiso   1.00
C161   C     0.15468   0.37192   0.72480   0.00000  Uiso   1.00
C162   C     0.12701   0.15377   0.27662   0.00000  Uiso   1.00
C163   C     0.37298   0.34623   0.72338   0.00000  Uiso   1.00
C164   C     0.15480   0.37207   0.27517   0.00000  Uiso   1.00
C165   C     0.34523   0.12790   0.72478   0.00000  Uiso   1.00
C166   C     0.02922   0.23321   0.45889   0.00000  Uiso   1.00
C167   C     0.47295   0.26955   0.54063   0.00000  Uiso   1.00
C168   C     0.26868   0.47160   0.45929   0.00000  Uiso   1.00
H169   H     0.11916   0.42743   0.20501   0.00000  Uiso   1.00
H170   H     0.37791   0.42479   0.20151   0.00000  Uiso   1.00
H171   H     0.32179   0.48438   0.36569   0.00000  Uiso   1.00
H172   H     0.34223   0.44112   0.37624   0.00000  Uiso   1.00
H173   H     0.17506   0.00905   0.62876   0.00000  Uiso   1.00
H174   H     0.15804   0.02645   0.58265   0.00000  Uiso   1.00
H175   H     0.15524   0.05371   0.62577   0.00000  Uiso   1.00
H176   H     0.24094   0.07494   0.87125   0.00000  Uiso   1.00
H177   H     0.22355   0.09196   0.91735   0.00000  Uiso   1.00
H178   H     0.19629   0.09476   0.87423   0.00000  Uiso   1.00
H179   H     0.27548   0.41126   0.08588   0.00000  Uiso   1.00
H180   H     0.26562   0.42821   0.13431   0.00000  Uiso   1.00
H181   H     0.07257   0.38084   0.79499   0.00000  Uiso   1.00
H182   H     0.30888   0.40778   0.12376   0.00000  Uiso   1.00
H183   H     0.02079   0.32921   0.88669   0.00000  Uiso   1.00
H184   H     0.49794   0.34815   0.92883   0.00000  Uiso   1.00
H185   H     0.48282   0.35970   0.88097   0.00000  Uiso   1.00
H186   H     0.07550   0.23914   0.12277   0.00000  Uiso   1.00
H187   H     0.08879   0.21734   0.07731   0.00000  Uiso   1.00
H188   H     0.09309   0.19345   0.12238   0.00000  Uiso   1.00
H189   H     0.26086   0.42450   0.87723   0.00000  Uiso   1.00
H190   H     0.28266   0.41122   0.92269   0.00000  Uiso   1.00
H191   H     0.30655   0.40691   0.87763   0.00000  Uiso   1.00
H192   H     0.42746   0.11913   0.20507   0.00000  Uiso   1.00
H193   H     0.17079   0.47921   0.11331   0.00000  Uiso   1.00
H194   H     0.15185   0.00205   0.07117   0.00000  Uiso   1.00
H195   H     0.14030   0.01717   0.11903   0.00000  Uiso   1.00
H196   H     0.08874   0.22453   0.91412   0.00000  Uiso   1.00
H197   H     0.07179   0.23438   0.86569   0.00000  Uiso   1.00
H198   H     0.09223   0.19112   0.87624   0.00000  Uiso   1.00
H199   H     0.42506   0.25905   0.12876   0.00000  Uiso   1.00
H200   H     0.40804   0.27645   0.08265   0.00000  Uiso   1.00
H201   H     0.40524   0.30371   0.12577   0.00000  Uiso   1.00
H202   H     0.37893   0.42582   0.79749   0.00000  Uiso   1.00
H203   H     0.12106   0.07418   0.20252   0.00000  Uiso   1.00
H204   H     0.42768   0.11938   0.79489   0.00000  Uiso   1.00
H205   H     0.07234   0.38059   0.20506   0.00000  Uiso   1.00
H206   H     0.36916   0.17743   0.70501   0.00000  Uiso   1.00
H207   H     0.13087   0.32254   0.29493   0.00000  Uiso   1.00
H208   H     0.32418   0.37107   0.70251   0.00000  Uiso   1.00
H209   H     0.38087   0.07254   0.79493   0.00000  Uiso   1.00
H210   H     0.17582   0.12894   0.29748   0.00000  Uiso   1.00
H211   H     0.13061   0.32232   0.70511   0.00000  Uiso   1.00
H212   H     0.36941   0.17766   0.29494   0.00000  Uiso   1.00
H213   H     0.17479   0.12791   0.70152   0.00000  Uiso   1.00
H214   H     0.32521   0.37209   0.29849   0.00000  Uiso   1.00
H215   H     0.37209   0.32520   0.29849   0.00000  Uiso   1.00
H216   H     0.12791   0.17479   0.70151   0.00000  Uiso   1.00
H217   H     0.32257   0.13084   0.29499   0.00000  Uiso   1.00
H218   H     0.17746   0.36913   0.70507   0.00000  Uiso   1.00
H219   H     0.12893   0.17582   0.29749   0.00000  Uiso   1.00
H220   H     0.07418   0.12107   0.20251   0.00000  Uiso   1.00
H221   H     0.37106   0.32418   0.70252   0.00000  Uiso   1.00
H222   H     0.17768   0.36938   0.29489   0.00000  Uiso   1.00
H223   H     0.32234   0.13059   0.70506   0.00000  Uiso   1.00
H224   H     0.10394   0.25575   0.44131   0.00000  Uiso   1.00
H225   H     0.13886   0.22141   0.44175   0.00000  Uiso   1.00
H226   H     0.12421   0.24062   0.48694   0.00000  Uiso   1.00
H227   H     0.46327   0.34803   0.55981   0.00000  Uiso   1.00
H228   H     0.41766   0.36585   0.55866   0.00000  Uiso   1.00
H229   H     0.44203   0.36115   0.51396   0.00000  Uiso   1.00
H230   H     0.35226   0.44017   0.47436   0.00000  Uiso   1.00
H231   H     0.42582   0.37894   0.79748   0.00000  Uiso   1.00
H232   H     0.35428   0.40092   0.44341   0.00000  Uiso   1.00
H233   H     0.34529   0.39445   0.49368   0.00000  Uiso   1.00
H234   H     0.23900   0.10658   0.55721   0.00000  Uiso   1.00
H235   H     0.19824   0.13375   0.55757   0.00000  Uiso   1.00
H236   H     0.21913   0.12319   0.51199   0.00000  Uiso   1.00
H237   H     0.39341   0.26100   0.44279   0.00000  Uiso   1.00
H238   H     0.36625   0.30176   0.44243   0.00000  Uiso   1.00
H239   H     0.37681   0.28087   0.48801   0.00000  Uiso   1.00
H240   H     0.05983   0.14774   0.52564   0.00000  Uiso   1.00
H241   H     0.09908   0.14572   0.55659   0.00000  Uiso   1.00
H242   H     0.38061   0.07232   0.20511   0.00000  Uiso   1.00
H243   H     0.10555   0.15471   0.50632   0.00000  Uiso   1.00
H244   H     0.15197   0.03673   0.44019   0.00000  Uiso   1.00
H245   H     0.13415   0.08234   0.44134   0.00000  Uiso   1.00
H246   H     0.13885   0.05796   0.48604   0.00000  Uiso   1.00
H247   H     0.24425   0.39606   0.55870   0.00000  Uiso   1.00
H248   H     0.27859   0.36114   0.55825   0.00000  Uiso   1.00
H249   H     0.25938   0.37579   0.51306   0.00000  Uiso   1.00
H250   H     0.35394   0.00576   0.94130   0.00000  Uiso   1.00
H251   H     0.38886   0.47142   0.94175   0.00000  Uiso   1.00
H252   H     0.37421   0.49063   0.98694   0.00000  Uiso   1.00
H253   H     0.11941   0.42766   0.79494   0.00000  Uiso   1.00
H254   H     0.19203   0.11114   0.01395   0.00000  Uiso   1.00
H255   H     0.21326   0.09803   0.05981   0.00000  Uiso   1.00
H256   H     0.16765   0.11584   0.05866   0.00000  Uiso   1.00
H257   H     0.10226   0.19017   0.97436   0.00000  Uiso   1.00
H258   H     0.10428   0.15092   0.94341   0.00000  Uiso   1.00
H259   H     0.09529   0.14445   0.99368   0.00000  Uiso   1.00
H260   H     0.48900   0.35658   0.05721   0.00000  Uiso   1.00
H261   H     0.44824   0.38375   0.05757   0.00000  Uiso   1.00
H262   H     0.46913   0.37319   0.01199   0.00000  Uiso   1.00
H263   H     0.14341   0.01099   0.94279   0.00000  Uiso   1.00
H264   H     0.42479   0.37791   0.20152   0.00000  Uiso   1.00
H265   H     0.11625   0.05175   0.94243   0.00000  Uiso   1.00
H266   H     0.12681   0.03086   0.98801   0.00000  Uiso   1.00
H267   H     0.30984   0.39774   0.02564   0.00000  Uiso   1.00
H268   H     0.34909   0.39573   0.05659   0.00000  Uiso   1.00
H269   H     0.35556   0.40472   0.00632   0.00000  Uiso   1.00
H270   H     0.38885   0.30796   0.98604   0.00000  Uiso   1.00
H271   H     0.40197   0.28673   0.94019   0.00000  Uiso   1.00
H272   H     0.38415   0.33234   0.94134   0.00000  Uiso   1.00
H273   H     0.49425   0.14606   0.05869   0.00000  Uiso   1.00
H274   H     0.02859   0.11114   0.05825   0.00000  Uiso   1.00
H275   H     0.07521   0.12209   0.79849   0.00000  Uiso   1.00
H276   H     0.00938   0.12579   0.01306   0.00000  Uiso   1.00
H277   H     0.49095   0.32494   0.37124   0.00000  Uiso   1.00
H278   H     0.47355   0.34196   0.41735   0.00000  Uiso   1.00
H279   H     0.44629   0.34476   0.37423   0.00000  Uiso   1.00
H280   H     0.02547   0.16126   0.58588   0.00000  Uiso   1.00
H281   H     0.01562   0.17821   0.63431   0.00000  Uiso   1.00
H282   H     0.05888   0.15777   0.62376   0.00000  Uiso   1.00
H283   H     0.27079   0.07921   0.38669   0.00000  Uiso   1.00
H284   H     0.24794   0.09815   0.42883   0.00000  Uiso   1.00
H285   H     0.23282   0.10970   0.38097   0.00000  Uiso   1.00
H286   H     0.12209   0.07520   0.79849   0.00000  Uiso   1.00
H287   H     0.32550   0.48914   0.62277   0.00000  Uiso   1.00
H288   H     0.33878   0.46734   0.57731   0.00000  Uiso   1.00
H289   H     0.34309   0.44345   0.62238   0.00000  Uiso   1.00
H290   H     0.01086   0.17450   0.37723   0.00000  Uiso   1.00
H291   H     0.03266   0.16121   0.42269   0.00000  Uiso   1.00
H292   H     0.05655   0.15691   0.37763   0.00000  Uiso   1.00
H293   H     0.42079   0.22921   0.61331   0.00000  Uiso   1.00
H294   H     0.40185   0.25206   0.57117   0.00000  Uiso   1.00
H295   H     0.39030   0.26718   0.61903   0.00000  Uiso   1.00
H296   H     0.33874   0.47453   0.41412   0.00000  Uiso   1.00
O297   O     0.25000   0.00000   0.25000   0.00000  Uiso   1.00
O298   O     0.25000   0.46963   0.66245   0.00000  Uiso   1.00
O299   O     0.46963   0.25000   0.33755   0.00000  Uiso   1.00
O300   O     0.03036   0.25000   0.66245   0.00000  Uiso   1.00
O301   O     0.00000   0.21963   0.83755   0.00000  Uiso   1.00
O302   O     0.00000   0.28036   0.16245   0.00000  Uiso   1.00
O303   O     0.28036   0.00000   0.83755   0.00000  Uiso   1.00
O304   O     0.21963   0.00000   0.16245   0.00000  Uiso   1.00
O305   O     0.00000   0.28036   0.83755   0.00000  Uiso   1.00
O306   O     0.00000   0.21963   0.16245   0.00000  Uiso   1.00
O307   O     0.21963   0.00000   0.83755   0.00000  Uiso   1.00
O308   O     0.25000   0.00000   0.75000   0.00000  Uiso   1.00
O309   O     0.28036   0.00000   0.16245   0.00000  Uiso   1.00
O310   O     0.20724   0.07307   0.27302   0.00000  Uiso   1.00
O311   O     0.29275   0.42692   0.72698   0.00000  Uiso   1.00
O312   O     0.42692   0.20724   0.27302   0.00000  Uiso   1.00
O313   O     0.07307   0.29275   0.72698   0.00000  Uiso   1.00
O314   O     0.29275   0.42692   0.27302   0.00000  Uiso   1.00
O315   O     0.20724   0.07307   0.72698   0.00000  Uiso   1.00
O316   O     0.07307   0.29275   0.27302   0.00000  Uiso   1.00
O317   O     0.42692   0.20724   0.72698   0.00000  Uiso   1.00
O318   O     0.20724   0.42692   0.72698   0.00000  Uiso   1.00
O319   O     0.00000   0.25000   0.25000   0.00000  Uiso   1.00
O320   O     0.29275   0.07307   0.27302   0.00000  Uiso   1.00
O321   O     0.42692   0.29275   0.72698   0.00000  Uiso   1.00
O322   O     0.07307   0.20724   0.27302   0.00000  Uiso   1.00
O323   O     0.29275   0.07307   0.72698   0.00000  Uiso   1.00
O324   O     0.20724   0.42692   0.27302   0.00000  Uiso   1.00
O325   O     0.07307   0.20724   0.72698   0.00000  Uiso   1.00
O326   O     0.42692   0.29275   0.27302   0.00000  Uiso   1.00
O327   O     0.45724   0.32307   0.77302   0.00000  Uiso   1.00
O328   O     0.04275   0.17692   0.22698   0.00000  Uiso   1.00
O329   O     0.17692   0.45724   0.77302   0.00000  Uiso   1.00
O330   O     0.00000   0.25000   0.75000   0.00000  Uiso   1.00
O331   O     0.32307   0.04276   0.22698   0.00000  Uiso   1.00
O332   O     0.04275   0.17692   0.77302   0.00000  Uiso   1.00
O333   O     0.45724   0.32307   0.22698   0.00000  Uiso   1.00
O334   O     0.32307   0.04276   0.77302   0.00000  Uiso   1.00
O335   O     0.17692   0.45724   0.22698   0.00000  Uiso   1.00
O336   O     0.45724   0.17692   0.22698   0.00000  Uiso   1.00
O337   O     0.04275   0.32307   0.77302   0.00000  Uiso   1.00
O338   O     0.17692   0.04275   0.22698   0.00000  Uiso   1.00
O339   O     0.32307   0.45724   0.77302   0.00000  Uiso   1.00
O340   O     0.04275   0.32307   0.22698   0.00000  Uiso   1.00
O341   O     0.25000   0.46963   0.33755   0.00000  Uiso   1.00
O342   O     0.45724   0.17692   0.77302   0.00000  Uiso   1.00
O343   O     0.32307   0.45724   0.22698   0.00000  Uiso   1.00
O344   O     0.17692   0.04275   0.77302   0.00000  Uiso   1.00
O345   O     0.08866   0.20375   0.46011   0.00000  Uiso   1.00
O346   O     0.42251   0.31313   0.53905   0.00000  Uiso   1.00
O347   O     0.30218   0.41417   0.46036   0.00000  Uiso   1.00
O348   O     0.19085   0.08092   0.53926   0.00000  Uiso   1.00
O349   O     0.41908   0.30915   0.46074   0.00000  Uiso   1.00
O350   O     0.08582   0.19782   0.53964   0.00000  Uiso   1.00
O351   O     0.18687   0.07749   0.46095   0.00000  Uiso   1.00
O352   O     0.25000   0.03037   0.66245   0.00000  Uiso   1.00
O353   O     0.29625   0.41133   0.53989   0.00000  Uiso   1.00
O354   O     0.33867   0.45376   0.96011   0.00000  Uiso   1.00
O355   O     0.17251   0.06312   0.03905   0.00000  Uiso   1.00
O356   O     0.05218   0.16418   0.96036   0.00000  Uiso   1.00
O357   O     0.44085   0.33092   0.03926   0.00000  Uiso   1.00
O358   O     0.16908   0.05915   0.96074   0.00000  Uiso   1.00
O359   O     0.33583   0.44783   0.03964   0.00000  Uiso   1.00
O360   O     0.43687   0.32749   0.96095   0.00000  Uiso   1.00
O361   O     0.04625   0.16133   0.03989   0.00000  Uiso   1.00
O362   O     0.45034   0.29325   0.39720   0.00000  Uiso   1.00
O363   O     0.03036   0.25000   0.33755   0.00000  Uiso   1.00
O364   O     0.05230   0.20962   0.60223   0.00000  Uiso   1.00
O365   O     0.21874   0.05800   0.39847   0.00000  Uiso   1.00
O366   O     0.29049   0.44829   0.60234   0.00000  Uiso   1.00
O367   O     0.05171   0.20951   0.39766   0.00000  Uiso   1.00
O368   O     0.44200   0.28126   0.60153   0.00000  Uiso   1.00
O369   O     0.29038   0.44770   0.39777   0.00000  Uiso   1.00
O370   O     0.20674   0.04966   0.60280   0.00000  Uiso   1.00
O371   O     0.20034   0.04325   0.89720   0.00000  Uiso   1.00
O372   O     0.30230   0.45962   0.10223   0.00000  Uiso   1.00
O373   O     0.46874   0.30800   0.89847   0.00000  Uiso   1.00
O374   O     0.46963   0.25000   0.66245   0.00000  Uiso   1.00
O375   O     0.04049   0.19829   0.10234   0.00000  Uiso   1.00
O376   O     0.30171   0.45951   0.89766   0.00000  Uiso   1.00
O377   O     0.19200   0.03126   0.10153   0.00000  Uiso   1.00
O378   O     0.04038   0.19770   0.89777   0.00000  Uiso   1.00
O379   O     0.45674   0.29966   0.10280   0.00000  Uiso   1.00
O380   O     0.25000   0.03037   0.33755   0.00000  Uiso   1.00
Zn381  Zn    0.20659   0.00000   0.21735   0.00000  Uiso   1.00
Zn382  Zn    0.04340   0.25000   0.28265   0.00000  Uiso   1.00
Zn383  Zn    0.25000   0.45659   0.71735   0.00000  Uiso   1.00
Zn384  Zn    0.25000   0.04341   0.28265   0.00000  Uiso   1.00
Zn385  Zn    0.04340   0.25000   0.71735   0.00000  Uiso   1.00
Zn386  Zn    0.45659   0.25000   0.28265   0.00000  Uiso   1.00
Zn387  Zn    0.25000   0.04341   0.71735   0.00000  Uiso   1.00
Zn388  Zn    0.25000   0.45659   0.28265   0.00000  Uiso   1.00
Zn389  Zn    0.29340   0.00000   0.78265   0.00000  Uiso   1.00
Zn390  Zn    0.00000   0.20659   0.21735   0.00000  Uiso   1.00
Zn391  Zn    0.00000   0.29340   0.78265   0.00000  Uiso   1.00
Zn392  Zn    0.29340   0.00000   0.21735   0.00000  Uiso   1.00
Zn393  Zn    0.20659   0.00000   0.78265   0.00000  Uiso   1.00
Zn394  Zn    0.00000   0.29340   0.21735   0.00000  Uiso   1.00
Zn395  Zn    0.00000   0.20659   0.78265   0.00000  Uiso   1.00
Zn396  Zn    0.45659   0.25000   0.71735   0.00000  Uiso   1.00
C397   C     0.97492   0.27222   0.41803   0.00000  Uiso   1.00
C398   C     0.77677   0.47966   0.08156   0.00000  Uiso   1.00
C399   C     0.72870   0.02614   0.54116   0.00000  Uiso   1.00
C400   C     0.97386   0.27130   0.45884   0.00000  Uiso   1.00
C401   C     0.52839   0.23132   0.54071   0.00000  Uiso   1.00
C402   C     0.73045   0.02705   0.45937   0.00000  Uiso   1.00
C403   C     0.76679   0.47078   0.54111   0.00000  Uiso   1.00
C404   C     0.77922   0.48321   0.95889   0.00000  Uiso   1.00
C405   C     0.72295   0.01955   0.04063   0.00000  Uiso   1.00
C406   C     0.51868   0.22160   0.95929   0.00000  Uiso   1.00
C407   C     0.97870   0.27614   0.04116   0.00000  Uiso   1.00
C408   C     0.72386   0.02130   0.95884   0.00000  Uiso   1.00
C409   C     0.98371   0.27902   0.91879   0.00000  Uiso   1.00
C410   C     0.77840   0.48133   0.04071   0.00000  Uiso   1.00
C411   C     0.98045   0.27705   0.95937   0.00000  Uiso   1.00
C412   C     0.51679   0.22078   0.04111   0.00000  Uiso   1.00
C413   C     0.59815   0.34811   0.25001   0.00000  Uiso   1.00
C414   C     0.90186   0.15188   0.74995   0.00000  Uiso   1.00
C415   C     0.65187   0.09813   0.25000   0.00000  Uiso   1.00
C416   C     0.84813   0.40187   0.75000   0.00000  Uiso   1.00
C417   C     0.90189   0.15184   0.24999   0.00000  Uiso   1.00
C418   C     0.59812   0.34814   0.75005   0.00000  Uiso   1.00
C419   C     0.84812   0.40188   0.25000   0.00000  Uiso   1.00
C420   C     0.51905   0.22272   0.08179   0.00000  Uiso   1.00
C421   C     0.65188   0.09812   0.75000   0.00000  Uiso   1.00
C422   C     0.59812   0.15188   0.75000   0.00000  Uiso   1.00
C423   C     0.90188   0.34812   0.25000   0.00000  Uiso   1.00
C424   C     0.65189   0.40184   0.74999   0.00000  Uiso   1.00
C425   C     0.84812   0.09814   0.25005   0.00000  Uiso   1.00
C426   C     0.90187   0.34813   0.75000   0.00000  Uiso   1.00
C427   C     0.59813   0.15187   0.25000   0.00000  Uiso   1.00
C428   C     0.84815   0.09811   0.75001   0.00000  Uiso   1.00
C429   C     0.65186   0.40188   0.24995   0.00000  Uiso   1.00
C430   C     0.50136   0.25185   0.47933   0.00000  Uiso   1.00
C431   C     0.77728   0.48095   0.91821   0.00000  Uiso   1.00
C432   C     0.50097   0.25097   0.52025   0.00000  Uiso   1.00
C433   C     0.74903   0.49903   0.47975   0.00000  Uiso   1.00
C434   C     0.74815   0.49864   0.52067   0.00000  Uiso   1.00
C435   C     0.75136   0.00185   0.97933   0.00000  Uiso   1.00
C436   C     0.75097   0.00097   0.02025   0.00000  Uiso   1.00
C437   C     0.99903   0.24903   0.97975   0.00000  Uiso   1.00
C438   C     0.99815   0.24864   0.02066   0.00000  Uiso   1.00
C439   C     0.61476   0.23191   0.45768   0.00000  Uiso   1.00
C440   C     0.93742   0.34844   0.54278   0.00000  Uiso   1.00
C441   C     0.83998   0.41281   0.46878   0.00000  Uiso   1.00
C442   C     0.72098   0.01629   0.08121   0.00000  Uiso   1.00
C443   C     0.71312   0.11224   0.54132   0.00000  Uiso   1.00
C444   C     0.88776   0.28688   0.45868   0.00000  Uiso   1.00
C445   C     0.58719   0.16002   0.53122   0.00000  Uiso   1.00
C446   C     0.65156   0.06258   0.45722   0.00000  Uiso   1.00
C447   C     0.76809   0.38524   0.54232   0.00000  Uiso   1.00
C448   C     0.86476   0.48192   0.95768   0.00000  Uiso   1.00
C449   C     0.68741   0.09843   0.04278   0.00000  Uiso   1.00
C450   C     0.58998   0.16281   0.96878   0.00000  Uiso   1.00
C451   C     0.96312   0.36224   0.04132   0.00000  Uiso   1.00
C452   C     0.63775   0.03687   0.95868   0.00000  Uiso   1.00
C453   C     0.52034   0.22323   0.91845   0.00000  Uiso   1.00
C454   C     0.83720   0.41003   0.03122   0.00000  Uiso   1.00
C455   C     0.90156   0.31258   0.95722   0.00000  Uiso   1.00
C456   C     0.51809   0.13524   0.04232   0.00000  Uiso   1.00
C457   C     0.96638   0.32757   0.38993   0.00000  Uiso   1.00
C458   C     0.53700   0.17541   0.61173   0.00000  Uiso   1.00
C459   C     0.74390   0.08725   0.39904   0.00000  Uiso   1.00
C460   C     0.82587   0.46309   0.60610   0.00000  Uiso   1.00
C461   C     0.53690   0.17413   0.39390   0.00000  Uiso   1.00
C462   C     0.91275   0.25610   0.60096   0.00000  Uiso   1.00
C463   C     0.82459   0.46300   0.38827   0.00000  Uiso   1.00
C464   C     0.97778   0.27508   0.08197   0.00000  Uiso   1.00
C465   C     0.67243   0.03362   0.61007   0.00000  Uiso   1.00
C466   C     0.71638   0.07757   0.88993   0.00000  Uiso   1.00
C467   C     0.78700   0.42541   0.11173   0.00000  Uiso   1.00
C468   C     0.99390   0.33725   0.89904   0.00000  Uiso   1.00
C469   C     0.57587   0.21310   0.10610   0.00000  Uiso   1.00
C470   C     0.78691   0.42413   0.89390   0.00000  Uiso   1.00
C471   C     0.66275   0.00609   0.10096   0.00000  Uiso   1.00
C472   C     0.57459   0.21300   0.88827   0.00000  Uiso   1.00
C473   C     0.92243   0.28362   0.11007   0.00000  Uiso   1.00
C474   C     0.50056   0.25084   0.39810   0.00000  Uiso   1.00
C475   C     0.99927   0.24874   0.60155   0.00000  Uiso   1.00
C476   C     0.75126   0.00073   0.39845   0.00000  Uiso   1.00
C477   C     0.52677   0.22966   0.58156   0.00000  Uiso   1.00
C478   C     0.74916   0.49944   0.60190   0.00000  Uiso   1.00
C479   C     0.75056   0.00084   0.89810   0.00000  Uiso   1.00
C480   C     0.74927   0.49874   0.10155   0.00000  Uiso   1.00
C481   C     0.50126   0.25073   0.89845   0.00000  Uiso   1.00
C482   C     0.99916   0.24944   0.10190   0.00000  Uiso   1.00
C483   C     0.55841   0.21709   0.47945   0.00000  Uiso   1.00
C484   C     0.94757   0.29125   0.52002   0.00000  Uiso   1.00
C485   C     0.78583   0.44296   0.48002   0.00000  Uiso   1.00
C486   C     0.71000   0.05360   0.52039   0.00000  Uiso   1.00
C487   C     0.94640   0.29000   0.47961   0.00000  Uiso   1.00
C488   C     0.73371   0.02902   0.41879   0.00000  Uiso   1.00
C489   C     0.55704   0.21417   0.51998   0.00000  Uiso   1.00
C490   C     0.70875   0.05243   0.47998   0.00000  Uiso   1.00
C491   C     0.78291   0.44159   0.52055   0.00000  Uiso   1.00
C492   C     0.80841   0.46710   0.97945   0.00000  Uiso   1.00
C493   C     0.69756   0.04124   0.02002   0.00000  Uiso   1.00
C494   C     0.53583   0.19296   0.98002   0.00000  Uiso   1.00
C495   C     0.96000   0.30360   0.02039   0.00000  Uiso   1.00
C496   C     0.69640   0.04000   0.97961   0.00000  Uiso   1.00
C497   C     0.80704   0.46418   0.01998   0.00000  Uiso   1.00
C498   C     0.95875   0.30243   0.97998   0.00000  Uiso   1.00
C499   C     0.76905   0.47272   0.58179   0.00000  Uiso   1.00
C500   C     0.53291   0.19159   0.02055   0.00000  Uiso   1.00
C501   C     0.75010   0.00016   0.35594   0.00000  Uiso   1.00
C502   C     0.74998   0.49990   0.64419   0.00000  Uiso   1.00
C503   C     0.50010   0.25002   0.35581   0.00000  Uiso   1.00
C504   C     0.99984   0.24990   0.64406   0.00000  Uiso   1.00
C505   C     0.50010   0.25016   0.85594   0.00000  Uiso   1.00
C506   C     0.99998   0.24990   0.14419   0.00000  Uiso   1.00
C507   C     0.75010   0.00002   0.85581   0.00000  Uiso   1.00
C508   C     0.74984   0.49990   0.14406   0.00000  Uiso   1.00
C509   C     0.67994   0.07006   0.25000   0.00000  Uiso   1.00
C510   C     0.52728   0.23095   0.41821   0.00000  Uiso   1.00
C511   C     0.82006   0.42994   0.75000   0.00000  Uiso   1.00
C512   C     0.92996   0.17992   0.24998   0.00000  Uiso   1.00
C513   C     0.57005   0.32007   0.75003   0.00000  Uiso   1.00
C514   C     0.82004   0.42996   0.25000   0.00000  Uiso   1.00
C515   C     0.67996   0.07004   0.75000   0.00000  Uiso   1.00
C516   C     0.57007   0.32004   0.25002   0.00000  Uiso   1.00
C517   C     0.92993   0.17995   0.74997   0.00000  Uiso   1.00
C518   C     0.67996   0.42992   0.74998   0.00000  Uiso   1.00
C519   C     0.82005   0.07007   0.25003   0.00000  Uiso   1.00
C520   C     0.92994   0.32006   0.75000   0.00000  Uiso   1.00
C521   C     0.97098   0.26629   0.58121   0.00000  Uiso   1.00
C522   C     0.57006   0.17994   0.25000   0.00000  Uiso   1.00
C523   C     0.82007   0.07004   0.75002   0.00000  Uiso   1.00
C524   C     0.67993   0.42995   0.24997   0.00000  Uiso   1.00
C525   C     0.57004   0.17996   0.75000   0.00000  Uiso   1.00
C526   C     0.92996   0.32004   0.25000   0.00000  Uiso   1.00
C527   C     0.62195   0.40465   0.22475   0.00000  Uiso   1.00
C528   C     0.87808   0.09532   0.77520   0.00000  Uiso   1.00
C529   C     0.59623   0.12299   0.22338   0.00000  Uiso   1.00
C530   C     0.90377   0.37702   0.77662   0.00000  Uiso   1.00
C531   C     0.87793   0.09520   0.22483   0.00000  Uiso   1.00
C532   C     0.77034   0.47323   0.41845   0.00000  Uiso   1.00
C533   C     0.62210   0.40477   0.77522   0.00000  Uiso   1.00
C534   C     0.90320   0.37645   0.22283   0.00000  Uiso   1.00
C535   C     0.59680   0.12356   0.77717   0.00000  Uiso   1.00
C536   C     0.62355   0.09680   0.77717   0.00000  Uiso   1.00
C537   C     0.87644   0.40320   0.22283   0.00000  Uiso   1.00
C538   C     0.59535   0.37805   0.77525   0.00000  Uiso   1.00
C539   C     0.90468   0.12192   0.22480   0.00000  Uiso   1.00
C540   C     0.87701   0.40377   0.77662   0.00000  Uiso   1.00
C541   C     0.62298   0.09623   0.22338   0.00000  Uiso   1.00
C542   C     0.90480   0.12207   0.77517   0.00000  Uiso   1.00
C543   C     0.72778   0.02508   0.58197   0.00000  Uiso   1.00
C544   C     0.59523   0.37790   0.22478   0.00000  Uiso   1.00
C545   C     0.87195   0.15465   0.72475   0.00000  Uiso   1.00
C546   C     0.62808   0.34532   0.27520   0.00000  Uiso   1.00
C547   C     0.84623   0.37299   0.72338   0.00000  Uiso   1.00
C548   C     0.65377   0.12702   0.27662   0.00000  Uiso   1.00
C549   C     0.62793   0.34520   0.72483   0.00000  Uiso   1.00
C550   C     0.87210   0.15477   0.27522   0.00000  Uiso   1.00
C551   C     0.65320   0.12645   0.72283   0.00000  Uiso   1.00
C552   C     0.84680   0.37356   0.27717   0.00000  Uiso   1.00
C553   C     0.87355   0.34680   0.27717   0.00000  Uiso   1.00
C554   C     0.72492   0.02222   0.91803   0.00000  Uiso   1.00
C555   C     0.62644   0.15320   0.72283   0.00000  Uiso   1.00
C556   C     0.84535   0.12805   0.27525   0.00000  Uiso   1.00
C557   C     0.65468   0.37192   0.72480   0.00000  Uiso   1.00
C558   C     0.62701   0.15377   0.27662   0.00000  Uiso   1.00
C559   C     0.87298   0.34623   0.72338   0.00000  Uiso   1.00
C560   C     0.65480   0.37207   0.27517   0.00000  Uiso   1.00
C561   C     0.84523   0.12790   0.72478   0.00000  Uiso   1.00
C562   C     0.52922   0.23321   0.45889   0.00000  Uiso   1.00
C563   C     0.97295   0.26955   0.54063   0.00000  Uiso   1.00
C564   C     0.76868   0.47160   0.45929   0.00000  Uiso   1.00
H565   H     0.61916   0.42743   0.20501   0.00000  Uiso   1.00
H566   H     0.87791   0.42479   0.20151   0.00000  Uiso   1.00
H567   H     0.82179   0.48438   0.36569   0.00000  Uiso   1.00
H568   H     0.84223   0.44112   0.37624   0.00000  Uiso   1.00
H569   H     0.67506   0.00905   0.62876   0.00000  Uiso   1.00
H570   H     0.65804   0.02645   0.58265   0.00000  Uiso   1.00
H571   H     0.65524   0.05371   0.62577   0.00000  Uiso   1.00
H572   H     0.74094   0.07494   0.87125   0.00000  Uiso   1.00
H573   H     0.72355   0.09196   0.91735   0.00000  Uiso   1.00
H574   H     0.69629   0.09476   0.87423   0.00000  Uiso   1.00
H575   H     0.77548   0.41126   0.08588   0.00000  Uiso   1.00
H576   H     0.76562   0.42821   0.13431   0.00000  Uiso   1.00
H577   H     0.57257   0.38084   0.79499   0.00000  Uiso   1.00
H578   H     0.80888   0.40778   0.12376   0.00000  Uiso   1.00
H579   H     0.52079   0.32921   0.88669   0.00000  Uiso   1.00
H580   H     0.99794   0.34815   0.92883   0.00000  Uiso   1.00
H581   H     0.98282   0.35970   0.88097   0.00000  Uiso   1.00
H582   H     0.57550   0.23914   0.12277   0.00000  Uiso   1.00
H583   H     0.58879   0.21734   0.07731   0.00000  Uiso   1.00
H584   H     0.59309   0.19345   0.12238   0.00000  Uiso   1.00
H585   H     0.76086   0.42450   0.87723   0.00000  Uiso   1.00
H586   H     0.78266   0.41122   0.92269   0.00000  Uiso   1.00
H587   H     0.80655   0.40691   0.87763   0.00000  Uiso   1.00
H588   H     0.92746   0.11913   0.20507   0.00000  Uiso   1.00
H589   H     0.67079   0.47921   0.11331   0.00000  Uiso   1.00
H590   H     0.65185   0.00205   0.07117   0.00000  Uiso   1.00
H591   H     0.64030   0.01717   0.11903   0.00000  Uiso   1.00
H592   H     0.58874   0.22453   0.91412   0.00000  Uiso   1.00
H593   H     0.57179   0.23438   0.86569   0.00000  Uiso   1.00
H594   H     0.59223   0.19112   0.87624   0.00000  Uiso   1.00
H595   H     0.92506   0.25905   0.12876   0.00000  Uiso   1.00
H596   H     0.90804   0.27645   0.08265   0.00000  Uiso   1.00
H597   H     0.90524   0.30371   0.12577   0.00000  Uiso   1.00
H598   H     0.87893   0.42582   0.79749   0.00000  Uiso   1.00
H599   H     0.62106   0.07418   0.20252   0.00000  Uiso   1.00
H600   H     0.92768   0.11938   0.79489   0.00000  Uiso   1.00
H601   H     0.57234   0.38059   0.20506   0.00000  Uiso   1.00
H602   H     0.86916   0.17743   0.70501   0.00000  Uiso   1.00
H603   H     0.63087   0.32254   0.29493   0.00000  Uiso   1.00
H604   H     0.82418   0.37107   0.70251   0.00000  Uiso   1.00
H605   H     0.88087   0.07254   0.79493   0.00000  Uiso   1.00
H606   H     0.67582   0.12894   0.29748   0.00000  Uiso   1.00
H607   H     0.63061   0.32232   0.70511   0.00000  Uiso   1.00
H608   H     0.86941   0.17766   0.29494   0.00000  Uiso   1.00
H609   H     0.67479   0.12791   0.70152   0.00000  Uiso   1.00
H610   H     0.82521   0.37209   0.29849   0.00000  Uiso   1.00
H611   H     0.87209   0.32520   0.29849   0.00000  Uiso   1.00
H612   H     0.62791   0.17479   0.70151   0.00000  Uiso   1.00
H613   H     0.82257   0.13084   0.29499   0.00000  Uiso   1.00
H614   H     0.67746   0.36913   0.70507   0.00000  Uiso   1.00
H615   H     0.62893   0.17582   0.29749   0.00000  Uiso   1.00
H616   H     0.57418   0.12107   0.20251   0.00000  Uiso   1.00
H617   H     0.87106   0.32418   0.70252   0.00000  Uiso   1.00
H618   H     0.67768   0.36938   0.29489   0.00000  Uiso   1.00
H619   H     0.82234   0.13059   0.70506   0.00000  Uiso   1.00
H620   H     0.60394   0.25575   0.44131   0.00000  Uiso   1.00
H621   H     0.63886   0.22141   0.44175   0.00000  Uiso   1.00
H622   H     0.62421   0.24062   0.48694   0.00000  Uiso   1.00
H623   H     0.96327   0.34803   0.55981   0.00000  Uiso   1.00
H624   H     0.91766   0.36585   0.55866   0.00000  Uiso   1.00
H625   H     0.94203   0.36115   0.51396   0.00000  Uiso   1.00
H626   H     0.85226   0.44017   0.47436   0.00000  Uiso   1.00
H627   H     0.92582   0.37894   0.79748   0.00000  Uiso   1.00
H628   H     0.85428   0.40092   0.44341   0.00000  Uiso   1.00
H629   H     0.84529   0.39445   0.49368   0.00000  Uiso   1.00
H630   H     0.73900   0.10658   0.55721   0.00000  Uiso   1.00
H631   H     0.69824   0.13375   0.55757   0.00000  Uiso   1.00
H632   H     0.71913   0.12319   0.51199   0.00000  Uiso   1.00
H633   H     0.89341   0.26100   0.44279   0.00000  Uiso   1.00
H634   H     0.86625   0.30176   0.44243   0.00000  Uiso   1.00
H635   H     0.87681   0.28087   0.48801   0.00000  Uiso   1.00
H636   H     0.55983   0.14774   0.52564   0.00000  Uiso   1.00
H637   H     0.59908   0.14572   0.55659   0.00000  Uiso   1.00
H638   H     0.88061   0.07232   0.20511   0.00000  Uiso   1.00
H639   H     0.60555   0.15471   0.50632   0.00000  Uiso   1.00
H640   H     0.65197   0.03673   0.44019   0.00000  Uiso   1.00
H641   H     0.63415   0.08234   0.44134   0.00000  Uiso   1.00
H642   H     0.63885   0.05796   0.48604   0.00000  Uiso   1.00
H643   H     0.74425   0.39606   0.55870   0.00000  Uiso   1.00
H644   H     0.77859   0.36114   0.55825   0.00000  Uiso   1.00
H645   H     0.75938   0.37579   0.51306   0.00000  Uiso   1.00
H646   H     0.85394   0.00576   0.94130   0.00000  Uiso   1.00
H647   H     0.88886   0.47142   0.94175   0.00000  Uiso   1.00
H648   H     0.87421   0.49063   0.98694   0.00000  Uiso   1.00
H649   H     0.61941   0.42766   0.79494   0.00000  Uiso   1.00
H650   H     0.69203   0.11114   0.01395   0.00000  Uiso   1.00
H651   H     0.71326   0.09803   0.05981   0.00000  Uiso   1.00
H652   H     0.66765   0.11584   0.05866   0.00000  Uiso   1.00
H653   H     0.60226   0.19017   0.97436   0.00000  Uiso   1.00
H654   H     0.60428   0.15092   0.94341   0.00000  Uiso   1.00
H655   H     0.59529   0.14445   0.99368   0.00000  Uiso   1.00
H656   H     0.98900   0.35658   0.05721   0.00000  Uiso   1.00
H657   H     0.94824   0.38375   0.05757   0.00000  Uiso   1.00
H658   H     0.96913   0.37319   0.01199   0.00000  Uiso   1.00
H659   H     0.64341   0.01099   0.94279   0.00000  Uiso   1.00
H660   H     0.92479   0.37791   0.20152   0.00000  Uiso   1.00
H661   H     0.61625   0.05175   0.94243   0.00000  Uiso   1.00
H662   H     0.62681   0.03086   0.98801   0.00000  Uiso   1.00
H663   H     0.80984   0.39774   0.02564   0.00000  Uiso   1.00
H664   H     0.84909   0.39573   0.05659   0.00000  Uiso   1.00
H665   H     0.85556   0.40472   0.00632   0.00000  Uiso   1.00
H666   H     0.88885   0.30796   0.98604   0.00000  Uiso   1.00
H667   H     0.90197   0.28673   0.94019   0.00000  Uiso   1.00
H668   H     0.88415   0.33234   0.94134   0.00000  Uiso   1.00
H669   H     0.99425   0.14606   0.05869   0.00000  Uiso   1.00
H670   H     0.52859   0.11114   0.05825   0.00000  Uiso   1.00
H671   H     0.57521   0.12209   0.79849   0.00000  Uiso   1.00
H672   H     0.50938   0.12579   0.01306   0.00000  Uiso   1.00
H673   H     0.99095   0.32494   0.37124   0.00000  Uiso   1.00
H674   H     0.97355   0.34196   0.41735   0.00000  Uiso   1.00
H675   H     0.94629   0.34476   0.37423   0.00000  Uiso   1.00
H676   H     0.52547   0.16126   0.58588   0.00000  Uiso   1.00
H677   H     0.51562   0.17821   0.63431   0.00000  Uiso   1.00
H678   H     0.55888   0.15777   0.62376   0.00000  Uiso   1.00
H679   H     0.77079   0.07921   0.38669   0.00000  Uiso   1.00
H680   H     0.74794   0.09815   0.42883   0.00000  Uiso   1.00
H681   H     0.73282   0.10970   0.38097   0.00000  Uiso   1.00
H682   H     0.62209   0.07520   0.79849   0.00000  Uiso   1.00
H683   H     0.82550   0.48914   0.62277   0.00000  Uiso   1.00
H684   H     0.83878   0.46734   0.57731   0.00000  Uiso   1.00
H685   H     0.84309   0.44345   0.62238   0.00000  Uiso   1.00
H686   H     0.51086   0.17450   0.37723   0.00000  Uiso   1.00
H687   H     0.53266   0.16121   0.42269   0.00000  Uiso   1.00
H688   H     0.55655   0.15691   0.37763   0.00000  Uiso   1.00
H689   H     0.92079   0.22921   0.61331   0.00000  Uiso   1.00
H690   H     0.90185   0.25206   0.57117   0.00000  Uiso   1.00
H691   H     0.89030   0.26718   0.61903   0.00000  Uiso   1.00
H692   H     0.83874   0.47453   0.41412   0.00000  Uiso   1.00
O693   O     0.75000   0.00000   0.25000   0.00000  Uiso   1.00
O694   O     0.75000   0.46963   0.66245   0.00000  Uiso   1.00
O695   O     0.96963   0.25000   0.33755   0.00000  Uiso   1.00
O696   O     0.53036   0.25000   0.66245   0.00000  Uiso   1.00
O697   O     0.50000   0.21963   0.83755   0.00000  Uiso   1.00
O698   O     0.50000   0.28036   0.16245   0.00000  Uiso   1.00
O699   O     0.78036   0.00000   0.83755   0.00000  Uiso   1.00
O700   O     0.71963   0.00000   0.16245   0.00000  Uiso   1.00
O701   O     0.50000   0.28036   0.83755   0.00000  Uiso   1.00
O702   O     0.50000   0.21963   0.16245   0.00000  Uiso   1.00
O703   O     0.71963   0.00000   0.83755   0.00000  Uiso   1.00
O704   O     0.75000   0.00000   0.75000   0.00000  Uiso   1.00
O705   O     0.78036   0.00000   0.16245   0.00000  Uiso   1.00
O706   O     0.70724   0.07307   0.27302   0.00000  Uiso   1.00
O707   O     0.79275   0.42692   0.72698   0.00000  Uiso   1.00
O708   O     0.92692   0.20724   0.27302   0.00000  Uiso   1.00
O709   O     0.57307   0.29275   0.72698   0.00000  Uiso   1.00
O710   O     0.79275   0.42692   0.27302   0.00000  Uiso   1.00
O711   O     0.70724   0.07307   0.72698   0.00000  Uiso   1.00
O712   O     0.57307   0.29275   0.27302   0.00000  Uiso   1.00
O713   O     0.92692   0.20724   0.72698   0.00000  Uiso   1.00
O714   O     0.70724   0.42692   0.72698   0.00000  Uiso   1.00
O715   O     0.50000   0.25000   0.25000   0.00000  Uiso   1.00
O716   O     0.79275   0.07307   0.27302   0.00000  Uiso   1.00
O717   O     0.92692   0.29275   0.72698   0.00000  Uiso   1.00
O718   O     0.57307   0.20724   0.27302   0.00000  Uiso   1.00
O719   O     0.79275   0.07307   0.72698   0.00000  Uiso   1.00
O720   O     0.70724   0.42692   0.27302   0.00000  Uiso   1.00
O721   O     0.57307   0.20724   0.72698   0.00000  Uiso   1.00
O722   O     0.92692   0.29275   0.27302   0.00000  Uiso   1.00
O723   O     0.95724   0.32307   0.77302   0.00000  Uiso   1.00
O724   O     0.54275   0.17692   0.22698   0.00000  Uiso   1.00
O725   O     0.67692   0.45724   0.77302   0.00000  Uiso   1.00
O726   O     0.50000   0.25000   0.75000   0.00000  Uiso   1.00
O727   O     0.82307   0.04276   0.22698   0.00000  Uiso   1.00
O728   O     0.54275   0.17692   0.77302   0.00000  Uiso   1.00
O729   O     0.95724   0.32307   0.22698   0.00000  Uiso   1.00
O730   O     0.82307   0.04276   0.77302   0.00000  Uiso   1.00
O731   O     0.67692   0.45724   0.22698   0.00000  Uiso   1.00
O732   O     0.95724   0.17692   0.22698   0.00000  Uiso   1.00
O733   O     0.54275   0.32307   0.77302   0.00000  Uiso   1.00
O734   O     0.67692   0.04275   0.22698   0.00000  Uiso   1.00
O735   O     0.82307   0.45724   0.77302   0.00000  Uiso   1.00
O736   O     0.54275   0.32307   0.22698   0.00000  Uiso   1.00
O737   O     0.75000   0.46963   0.33755   0.00000  Uiso   1.00
O738   O     0.95724   0.17692   0.77302   0.00000  Uiso   1.00
O739   O     0.82307   0.45724   0.22698   0.00000  Uiso   1.00
O740   O     0.67692   0.04275   0.77302   0.00000  Uiso   1.00
O741   O     0.58866   0.20375   0.46011   0.00000  Uiso   1.00
O742   O     0.92251   0.31313   0.53905   0.00000  Uiso   1.00
O743   O     0.80218   0.41417   0.46036   0.00000  Uiso   1.00
O744   O     0.69085   0.08092   0.53926   0.00000  Uiso   1.00
O745   O     0.91908   0.30915   0.46074   0.00000  Uiso   1.00
O746   O     0.58582   0.19782   0.53964   0.00000  Uiso   1.00
O747   O     0.68687   0.07749   0.46095   0.00000  Uiso   1.00
O748   O     0.75000   0.03037   0.66245   0.00000  Uiso   1.00
O749   O     0.79625   0.41133   0.53989   0.00000  Uiso   1.00
O750   O     0.83867   0.45376   0.96011   0.00000  Uiso   1.00
O751   O     0.67251   0.06312   0.03905   0.00000  Uiso   1.00
O752   O     0.55218   0.16418   0.96036   0.00000  Uiso   1.00
O753   O     0.94085   0.33092   0.03926   0.00000  Uiso   1.00
O754   O     0.66908   0.05915   0.96074   0.00000  Uiso   1.00
O755   O     0.83583   0.44783   0.03964   0.00000  Uiso   1.00
O756   O     0.93687   0.32749   0.96095   0.00000  Uiso   1.00
O757   O     0.54625   0.16133   0.03989   0.00000  Uiso   1.00
O758   O     0.95034   0.29325   0.39720   0.00000  Uiso   1.00
O759   O     0.53036   0.25000   0.33755   0.00000  Uiso   1.00
O760   O     0.55230   0.20962   0.60223   0.00000  Uiso   1.00
O761   O     0.71874   0.05800   0.39847   0.00000  Uiso   1.00
O762   O     0.79049   0.44829   0.60234   0.00000  Uiso   1.00
O763   O     0.55171   0.20951   0.39766   0.00000  Uiso   1.00
O764   O     0.94200   0.28126   0.60153   0.00000  Uiso   1.00
O765   O     0.79038   0.44770   0.39777   0.00000  Uiso   1.00
O766   O     0.70674   0.04966   0.60280   0.00000  Uiso   1.00
O767   O     0.70034   0.04325   0.89720   0.00000  Uiso   1.00
O768   O     0.80230   0.45962   0.10223   0.00000  Uiso   1.00
O769   O     0.96874   0.30800   0.89847   0.00000  Uiso   1.00
O770   O     0.96963   0.25000   0.66245   0.00000  Uiso   1.00
O771   O     0.54049   0.19829   0.10234   0.00000  Uiso   1.00
O772   O     0.80171   0.45951   0.89766   0.00000  Uiso   1.00
O773   O     0.69200   0.03126   0.10153   0.00000  Uiso   1.00
O774   O     0.54038   0.19770   0.89777   0.00000  Uiso   1.00
O775   O     0.95674   0.29966   0.10280   0.00000  Uiso   1.00
O776   O     0.75000   0.03037   0.33755   0.00000  Uiso   1.00
Zn777  Zn    0.70659   0.00000   0.21735   0.00000  Uiso   1.00
Zn778  Zn    0.54340   0.25000   0.28265   0.00000  Uiso   1.00
Zn779  Zn    0.75000   0.45659   0.71735   0.00000  Uiso   1.00
Zn780  Zn    0.75000   0.04341   0.28265   0.00000  Uiso   1.00
Zn781  Zn    0.54340   0.25000   0.71735   0.00000  Uiso   1.00
Zn782  Zn    0.95659   0.25000   0.28265   0.00000  Uiso   1.00
Zn783  Zn    0.75000   0.04341   0.71735   0.00000  Uiso   1.00
Zn784  Zn    0.75000   0.45659   0.28265   0.00000  Uiso   1.00
Zn785  Zn    0.79340   0.00000   0.78265   0.00000  Uiso   1.00
Zn786  Zn    0.50000   0.20659   0.21735   0.00000  Uiso   1.00
Zn787  Zn    0.50000   0.29340   0.78265   0.00000  Uiso   1.00
Zn788  Zn    0.79340   0.00000   0.21735   0.00000  Uiso   1.00
Zn789  Zn    0.70659   0.00000   0.78265   0.00000  Uiso   1.00
Zn790  Zn    0.50000   0.29340   0.21735   0.00000  Uiso   1.00
Zn791  Zn    0.50000   0.20659   0.78265   0.00000  Uiso   1.00
Zn792  Zn    0.95659   0.25000   0.71735   0.00000  Uiso   1.00
C793   C     0.47492   0.77222   0.41803   0.00000  Uiso   1.00
C794   C     0.27677   0.97966   0.08156   0.00000  Uiso   1.00
C795   C     0.22870   0.52614   0.54116   0.00000  Uiso   1.00
C796   C     0.47386   0.77130   0.45884   0.00000  Uiso   1.00
C797   C     0.02839   0.73132   0.54071   0.00000  Uiso   1.00
C798   C     0.23045   0.52705   0.45937   0.00000  Uiso   1.00
C799   C     0.26679   0.97078   0.54111   0.00000  Uiso   1.00
C800   C     0.27922   0.98321   0.95889   0.00000  Uiso   1.00
C801   C     0.22295   0.51955   0.04063   0.00000  Uiso   1.00
C802   C     0.01868   0.72160   0.95929   0.00000  Uiso   1.00
C803   C     0.47870   0.77614   0.04116   0.00000  Uiso   1.00
C804   C     0.22386   0.52130   0.95884   0.00000  Uiso   1.00
C805   C     0.48371   0.77902   0.91879   0.00000  Uiso   1.00
C806   C     0.27840   0.98133   0.04071   0.00000  Uiso   1.00
C807   C     0.48045   0.77705   0.95937   0.00000  Uiso   1.00
C808   C     0.01679   0.72078   0.04111   0.00000  Uiso   1.00
C809   C     0.09815   0.84811   0.25001   0.00000  Uiso   1.00
C810   C     0.40186   0.65188   0.74995   0.00000  Uiso   1.00
C811   C     0.15187   0.59813   0.25000   0.00000  Uiso   1.00
C812   C     0.34813   0.90187   0.75000   0.00000  Uiso   1.00
C813   C     0.40189   0.65184   0.24999   0.00000  Uiso   1.00
C814   C     0.09812   0.84814   0.75005   0.00000  Uiso   1.00
C815   C     0.34812   0.90188   0.25000   0.00000  Uiso   1.00
C816   C     0.01905   0.72272   0.08179   0.00000  Uiso   1.00
C817   C     0.15188   0.59812   0.75000   0.00000  Uiso   1.00
C818   C     0.09812   0.65188   0.75000   0.00000  Uiso   1.00
C819   C     0.40188   0.84812   0.25000   0.00000  Uiso   1.00
C820   C     0.15189   0.90184   0.74999   0.00000  Uiso   1.00
C821   C     0.34812   0.59814   0.25005   0.00000  Uiso   1.00
C822   C     0.40187   0.84813   0.75000   0.00000  Uiso   1.00
C823   C     0.09813   0.65187   0.25000   0.00000  Uiso   1.00
C824   C     0.34815   0.59811   0.75001   0.00000  Uiso   1.00
C825   C     0.15186   0.90188   0.24995   0.00000  Uiso   1.00
C826   C     0.00136   0.75185   0.47933   0.00000  Uiso   1.00
C827   C     0.27728   0.98095   0.91821   0.00000  Uiso   1.00
C828   C     0.00097   0.75097   0.52025   0.00000  Uiso   1.00
C829   C     0.24903   0.99903   0.47975   0.00000  Uiso   1.00
C830   C     0.24815   0.99864   0.52067   0.00000  Uiso   1.00
C831   C     0.25136   0.50185   0.97933   0.00000  Uiso   1.00
C832   C     0.25097   0.50097   0.02025   0.00000  Uiso   1.00
C833   C     0.49903   0.74903   0.97975   0.00000  Uiso   1.00
C834   C     0.49815   0.74864   0.02066   0.00000  Uiso   1.00
C835   C     0.11476   0.73191   0.45768   0.00000  Uiso   1.00
C836   C     0.43742   0.84844   0.54278   0.00000  Uiso   1.00
C837   C     0.33998   0.91281   0.46878   0.00000  Uiso   1.00
C838   C     0.22098   0.51629   0.08121   0.00000  Uiso   1.00
C839   C     0.21312   0.61224   0.54132   0.00000  Uiso   1.00
C840   C     0.38776   0.78688   0.45868   0.00000  Uiso   1.00
C841   C     0.08719   0.66002   0.53122   0.00000  Uiso   1.00
C842   C     0.15156   0.56258   0.45722   0.00000  Uiso   1.00
C843   C     0.26809   0.88524   0.54232   0.00000  Uiso   1.00
C844   C     0.36476   0.98192   0.95768   0.00000  Uiso   1.00
C845   C     0.18741   0.59843   0.04278   0.00000  Uiso   1.00
C846   C     0.08998   0.66281   0.96878   0.00000  Uiso   1.00
C847   C     0.46312   0.86224   0.04132   0.00000  Uiso   1.00
C848   C     0.13775   0.53687   0.95868   0.00000  Uiso   1.00
C849   C     0.02034   0.72323   0.91845   0.00000  Uiso   1.00
C850   C     0.33720   0.91003   0.03122   0.00000  Uiso   1.00
C851   C     0.40156   0.81258   0.95722   0.00000  Uiso   1.00
C852   C     0.01809   0.63524   0.04232   0.00000  Uiso   1.00
C853   C     0.46638   0.82757   0.38993   0.00000  Uiso   1.00
C854   C     0.03700   0.67541   0.61173   0.00000  Uiso   1.00
C855   C     0.24390   0.58725   0.39904   0.00000  Uiso   1.00
C856   C     0.32587   0.96309   0.60610   0.00000  Uiso   1.00
C857   C     0.03690   0.67413   0.39390   0.00000  Uiso   1.00
C858   C     0.41275   0.75610   0.60096   0.00000  Uiso   1.00
C859   C     0.32459   0.96300   0.38827   0.00000  Uiso   1.00
C860   C     0.47778   0.77508   0.08197   0.00000  Uiso   1.00
C861   C     0.17243   0.53362   0.61007   0.00000  Uiso   1.00
C862   C     0.21638   0.57757   0.88993   0.00000  Uiso   1.00
C863   C     0.28700   0.92541   0.11173   0.00000  Uiso   1.00
C864   C     0.49390   0.83725   0.89904   0.00000  Uiso   1.00
C865   C     0.07587   0.71310   0.10610   0.00000  Uiso   1.00
C866   C     0.28691   0.92413   0.89390   0.00000  Uiso   1.00
C867   C     0.16275   0.50609   0.10096   0.00000  Uiso   1.00
C868   C     0.07459   0.71300   0.88827   0.00000  Uiso   1.00
C869   C     0.42243   0.78362   0.11007   0.00000  Uiso   1.00
C870   C     0.00056   0.75084   0.39810   0.00000  Uiso   1.00
C871   C     0.49927   0.74874   0.60155   0.00000  Uiso   1.00
C872   C     0.25126   0.50073   0.39845   0.00000  Uiso   1.00
C873   C     0.02677   0.72966   0.58156   0.00000  Uiso   1.00
C874   C     0.24916   0.99944   0.60190   0.00000  Uiso   1.00
C875   C     0.25056   0.50084   0.89810   0.00000  Uiso   1.00
C876   C     0.24927   0.99874   0.10155   0.00000  Uiso   1.00
C877   C     0.00126   0.75073   0.89845   0.00000  Uiso   1.00
C878   C     0.49916   0.74944   0.10190   0.00000  Uiso   1.00
C879   C     0.05841   0.71709   0.47945   0.00000  Uiso   1.00
C880   C     0.44757   0.79125   0.52002   0.00000  Uiso   1.00
C881   C     0.28583   0.94296   0.48002   0.00000  Uiso   1.00
C882   C     0.21000   0.55360   0.52039   0.00000  Uiso   1.00
C883   C     0.44640   0.79000   0.47961   0.00000  Uiso   1.00
C884   C     0.23371   0.52902   0.41879   0.00000  Uiso   1.00
C885   C     0.05704   0.71417   0.51998   0.00000  Uiso   1.00
C886   C     0.20875   0.55243   0.47998   0.00000  Uiso   1.00
C887   C     0.28291   0.94159   0.52055   0.00000  Uiso   1.00
C888   C     0.30841   0.96710   0.97945   0.00000  Uiso   1.00
C889   C     0.19756   0.54124   0.02002   0.00000  Uiso   1.00
C890   C     0.03583   0.69296   0.98002   0.00000  Uiso   1.00
C891   C     0.46000   0.80360   0.02039   0.00000  Uiso   1.00
C892   C     0.19640   0.54000   0.97961   0.00000  Uiso   1.00
C893   C     0.30704   0.96418   0.01998   0.00000  Uiso   1.00
C894   C     0.45875   0.80243   0.97998   0.00000  Uiso   1.00
C895   C     0.26905   0.97272   0.58179   0.00000  Uiso   1.00
C896   C     0.03291   0.69159   0.02055   0.00000  Uiso   1.00
C897   C     0.25010   0.50016   0.35594   0.00000  Uiso   1.00
C898   C     0.24998   0.99990   0.64419   0.00000  Uiso   1.00
C899   C     0.00010   0.75002   0.35581   0.00000  Uiso   1.00
C900   C     0.49984   0.74990   0.64406   0.00000  Uiso   1.00
C901   C     0.00010   0.75016   0.85594   0.00000  Uiso   1.00
C902   C     0.49998   0.74990   0.14419   0.00000  Uiso   1.00
C903   C     0.25010   0.50002   0.85581   0.00000  Uiso   1.00
C904   C     0.24984   0.99990   0.14406   0.00000  Uiso   1.00
C905   C     0.17994   0.57006   0.25000   0.00000  Uiso   1.00
C906   C     0.02728   0.73095   0.41821   0.00000  Uiso   1.00
C907   C     0.32006   0.92994   0.75000   0.00000  Uiso   1.00
C908   C     0.42996   0.67992   0.24998   0.00000  Uiso   1.00
C909   C     0.07005   0.82007   0.75003   0.00000  Uiso   1.00
C910   C     0.32004   0.92996   0.25000   0.00000  Uiso   1.00
C911   C     0.17996   0.57004   0.75000   0.00000  Uiso   1.00
C912   C     0.07007   0.82004   0.25002   0.00000  Uiso   1.00
C913   C     0.42993   0.67995   0.74997   0.00000  Uiso   1.00
C914   C     0.17996   0.92992   0.74998   0.00000  Uiso   1.00
C915   C     0.32005   0.57007   0.25003   0.00000  Uiso   1.00
C916   C     0.42994   0.82006   0.75000   0.00000  Uiso   1.00
C917   C     0.47098   0.76629   0.58121   0.00000  Uiso   1.00
C918   C     0.07006   0.67994   0.25000   0.00000  Uiso   1.00
C919   C     0.32007   0.57004   0.75002   0.00000  Uiso   1.00
C920   C     0.17993   0.92995   0.24997   0.00000  Uiso   1.00
C921   C     0.07004   0.67996   0.75000   0.00000  Uiso   1.00
C922   C     0.42996   0.82004   0.25000   0.00000  Uiso   1.00
C923   C     0.12195   0.90465   0.22475   0.00000  Uiso   1.00
C924   C     0.37808   0.59532   0.77520   0.00000  Uiso   1.00
C925   C     0.09623   0.62299   0.22338   0.00000  Uiso   1.00
C926   C     0.40377   0.87702   0.77662   0.00000  Uiso   1.00
C927   C     0.37793   0.59520   0.22483   0.00000  Uiso   1.00
C928   C     0.27034   0.97323   0.41845   0.00000  Uiso   1.00
C929   C     0.12210   0.90477   0.77522   0.00000  Uiso   1.00
C930   C     0.40320   0.87645   0.22283   0.00000  Uiso   1.00
C931   C     0.09680   0.62356   0.77717   0.00000  Uiso   1.00
C932   C     0.12355   0.59680   0.77717   0.00000  Uiso   1.00
C933   C     0.37644   0.90320   0.22283   0.00000  Uiso   1.00
C934   C     0.09535   0.87805   0.77525   0.00000  Uiso   1.00
C935   C     0.40468   0.62192   0.22480   0.00000  Uiso   1.00
C936   C     0.37701   0.90377   0.77662   0.00000  Uiso   1.00
C937   C     0.12298   0.59623   0.22338   0.00000  Uiso   1.00
C938   C     0.40480   0.62207   0.77517   0.00000  Uiso   1.00
C939   C     0.22778   0.52508   0.58197   0.00000  Uiso   1.00
C940   C     0.09523   0.87790   0.22478   0.00000  Uiso   1.00
C941   C     0.37195   0.65465   0.72475   0.00000  Uiso   1.00
C942   C     0.12808   0.84532   0.27520   0.00000  Uiso   1.00
C943   C     0.34623   0.87299   0.72338   0.00000  Uiso   1.00
C944   C     0.15377   0.62702   0.27662   0.00000  Uiso   1.00
C945   C     0.12793   0.84520   0.72483   0.00000  Uiso   1.00
C946   C     0.37210   0.65477   0.27522   0.00000  Uiso   1.00
C947   C     0.15320   0.62645   0.72283   0.00000  Uiso   1.00
C948   C     0.34680   0.87356   0.27717   0.00000  Uiso   1.00
C949   C     0.37355   0.84680   0.27717   0.00000  Uiso   1.00
C950   C     0.22492   0.52222   0.91803   0.00000  Uiso   1.00
C951   C     0.12644   0.65320   0.72283   0.00000  Uiso   1.00
C952   C     0.34535   0.62805   0.27525   0.00000  Uiso   1.00
C953   C     0.15468   0.87192   0.72480   0.00000  Uiso   1.00
C954   C     0.12701   0.65377   0.27662   0.00000  Uiso   1.00
C955   C     0.37298   0.84623   0.72338   0.00000  Uiso   1.00
C956   C     0.15480   0.87207   0.27517   0.00000  Uiso   1.00
C957   C     0.34523   0.62790   0.72478   0.00000  Uiso   1.00
C958   C     0.02922   0.73321   0.45889   0.00000  Uiso   1.00
C959   C     0.47295   0.76955   0.54063   0.00000  Uiso   1.00
C960   C     0.26868   0.97160   0.45929   0.00000  Uiso   1.00
H961   H     0.11916   0.92743   0.20501   0.00000  Uiso   1.00
H962   H     0.37791   0.92479   0.20151   0.00000  Uiso   1.00
H963   H     0.32179   0.98438   0.36569   0.00000  Uiso   1.00
H964   H     0.34223   0.94112   0.37624   0.00000  Uiso   1.00
H965   H     0.17506   0.50905   0.62876   0.00000  Uiso   1.00
H966   H     0.15804   0.52645   0.58265   0.00000  Uiso   1.00
H967   H     0.15524   0.55371   0.62577   0.00000  Uiso   1.00
H968   H     0.24094   0.57494   0.87125   0.00000  Uiso   1.00
H969   H     0.22355   0.59196   0.91735   0.00000  Uiso   1.00
H970   H     0.19629   0.59476   0.87423   0.00000  Uiso   1.00
H971   H     0.27548   0.91126   0.08588   0.00000  Uiso   1.00
H972   H     0.26562   0.92821   0.13431   0.00000  Uiso   1.00
H973   H     0.07257   0.88084   0.79499   0.00000  Uiso   1.00
H974   H     0.30888   0.90778   0.12376   0.00000  Uiso   1.00
H975   H     0.02079   0.82921   0.88669   0.00000  Uiso   1.00
H976   H     0.49794   0.84815   0.92883   0.00000  Uiso   1.00
H977   H     0.48282   0.85970   0.88097   0.00000  Uiso   1.00
H978   H     0.07550   0.73914   0.12277   0.00000  Uiso   1.00
H979   H     0.08879   0.71734   0.07731   0.00000  Uiso   1.00
H980   H     0.09309   0.69345   0.12238   0.00000  Uiso   1.00
H981   H     0.26086   0.92450   0.87723   0.00000  Uiso   1.00
H982   H     0.28266   0.91122   0.92269   0.00000  Uiso   1.00
H983   H     0.30655   0.90691   0.87763   0.00000  Uiso   1.00
H984   H     0.42746   0.61913   0.20507   0.00000  Uiso   1.00
H985   H     0.17079   0.97921   0.11331   0.00000  Uiso   1.00
H986   H     0.15185   0.50205   0.07117   0.00000  Uiso   1.00
H987   H     0.14030   0.51717   0.11903   0.00000  Uiso   1.00
H988   H     0.08874   0.72453   0.91412   0.00000  Uiso   1.00
H989   H     0.07179   0.73438   0.86569   0.00000  Uiso   1.00
H990   H     0.09223   0.69112   0.87624   0.00000  Uiso   1.00
H991   H     0.42506   0.75905   0.12876   0.00000  Uiso   1.00
H992   H     0.40804   0.77645   0.08265   0.00000  Uiso   1.00
H993   H     0.40524   0.80371   0.12577   0.00000  Uiso   1.00
H994   H     0.37893   0.92582   0.79749   0.00000  Uiso   1.00
H995   H     0.12106   0.57418   0.20252   0.00000  Uiso   1.00
H996   H     0.42768   0.61938   0.79489   0.00000  Uiso   1.00
H997   H     0.07234   0.88059   0.20506   0.00000  Uiso   1.00
H998   H     0.36916   0.67743   0.70501   0.00000  Uiso   1.00
H999   H     0.13087   0.82254   0.29493   0.00000  Uiso   1.00
H1000  H     0.32418   0.87107   0.70251   0.00000  Uiso   1.00
H1001  H     0.38087   0.57254   0.79493   0.00000  Uiso   1.00
H1002  H     0.17582   0.62894   0.29748   0.00000  Uiso   1.00
H1003  H     0.13061   0.82232   0.70511   0.00000  Uiso   1.00
H1004  H     0.36941   0.67766   0.29494   0.00000  Uiso   1.00
H1005  H     0.17479   0.62791   0.70152   0.00000  Uiso   1.00
H1006  H     0.32521   0.87209   0.29849   0.00000  Uiso   1.00
H1007  H     0.37209   0.82520   0.29849   0.00000  Uiso   1.00
H1008  H     0.12791   0.67479   0.70151   0.00000  Uiso   1.00
H1009  H     0.32257   0.63084   0.29499   0.00000  Uiso   1.00
H1010  H     0.17746   0.86913   0.70507   0.00000  Uiso   1.00
H1011  H     0.12893   0.67582   0.29749   0.00000  Uiso   1.00
H1012  H     0.07418   0.62107   0.20251   0.00000  Uiso   1.00
H1013  H     0.37106   0.82418   0.70252   0.00000  Uiso   1.00
H1014  H     0.17768   0.86938   0.29489   0.00000  Uiso   1.00
H1015  H     0.32234   0.63059   0.70506   0.00000  Uiso   1.00
H1016  H     0.10394   0.75575   0.44131   0.00000  Uiso   1.00
H1017  H     0.13886   0.72141   0.44175   0.00000  Uiso   1.00
H1018  H     0.12421   0.74062   0.48694   0.00000  Uiso   1.00
H1019  H     0.46327   0.84803   0.55981   0.00000  Uiso   1.00
H1020  H     0.41766   0.86585   0.55866   0.00000  Uiso   1.00
H1021  H     0.44203   0.86115   0.51396   0.00000  Uiso   1.00
H1022  H     0.35226   0.94017   0.47436   0.00000  Uiso   1.00
H1023  H     0.42582   0.87894   0.79748   0.00000  Uiso   1.00
H1024  H     0.35428   0.90092   0.44341   0.00000  Uiso   1.00
H1025  H     0.34529   0.89445   0.49368   0.00000  Uiso   1.00
H1026  H     0.23900   0.60658   0.55721   0.00000  Uiso   1.00
H1027  H     0.19824   0.63375   0.55757   0.00000  Uiso   1.00
H1028  H     0.21913   0.62319   0.51199   0.00000  Uiso   1.00
H1029  H     0.39341   0.76100   0.44279   0.00000  Uiso   1.00
H1030  H     0.36625   0.80176   0.44243   0.00000  Uiso   1.00
H1031  H     0.37681   0.78087   0.48801   0.00000  Uiso   1.00
H1032  H     0.05983   0.64774   0.52564   0.00000  Uiso   1.00
H1033  H     0.09908   0.64572   0.55659   0.00000  Uiso   1.00
H1034  H     0.38061   0.57232   0.20511   0.00000  Uiso   1.00
H1035  H     0.10555   0.65471   0.50632   0.00000  Uiso   1.00
H1036  H     0.15197   0.53673   0.44019   0.00000  Uiso   1.00
H1037  H     0.13415   0.58234   0.44134   0.00000  Uiso   1.00
H1038  H     0.13885   0.55796   0.48604   0.00000  Uiso   1.00
H1039  H     0.24425   0.89606   0.55870   0.00000  Uiso   1.00
H1040  H     0.27859   0.86114   0.55825   0.00000  Uiso   1.00
H1041  H     0.25938   0.87579   0.51306   0.00000  Uiso   1.00
H1042  H     0.35394   0.50576   0.94130   0.00000  Uiso   1.00
H1043  H     0.38886   0.97142   0.94175   0.00000  Uiso   1.00
H1044  H     0.37421   0.99063   0.98694   0.00000  Uiso   1.00
H1045  H     0.11941   0.92766   0.79494   0.00000  Uiso   1.00
H1046  H     0.19203   0.61114   0.01395   0.00000  Uiso   1.00
H1047  H     0.21326   0.59803   0.05981   0.00000  Uiso   1.00
H1048  H     0.16765   0.61584   0.05866   0.00000  Uiso   1.00
H1049  H     0.10226   0.69017   0.97436   0.00000  Uiso   1.00
H1050  H     0.10428   0.65092   0.94341   0.00000  Uiso   1.00
H1051  H     0.09529   0.64445   0.99368   0.00000  Uiso   1.00
H1052  H     0.48900   0.85658   0.05721   0.00000  Uiso   1.00
H1053  H     0.44824   0.88375   0.05757   0.00000  Uiso   1.00
H1054  H     0.46913   0.87319   0.01199   0.00000  Uiso   1.00
H1055  H     0.14341   0.51099   0.94279   0.00000  Uiso   1.00
H1056  H     0.42479   0.87791   0.20152   0.00000  Uiso   1.00
H1057  H     0.11625   0.55175   0.94243   0.00000  Uiso   1.00
H1058  H     0.12681   0.53086   0.98801   0.00000  Uiso   1.00
H1059  H     0.30984   0.89774   0.02564   0.00000  Uiso   1.00
H1060  H     0.34909   0.89573   0.05659   0.00000  Uiso   1.00
H1061  H     0.35556   0.90472   0.00632   0.00000  Uiso   1.00
H1062  H     0.38885   0.80796   0.98604   0.00000  Uiso   1.00
H1063  H     0.40197   0.78673   0.94019   0.00000  Uiso   1.00
H1064  H     0.38415   0.83234   0.94134   0.00000  Uiso   1.00
H1065  H     0.49425   0.64606   0.05869   0.00000  Uiso   1.00
H1066  H     0.02859   0.61114   0.05825   0.00000  Uiso   1.00
H1067  H     0.07521   0.62209   0.79849   0.00000  Uiso   1.00
H1068  H     0.00938   0.62579   0.01306   0.00000  Uiso   1.00
H1069  H     0.49095   0.82494   0.37124   0.00000  Uiso   1.00
H1070  H     0.47355   0.84196   0.41735   0.00000  Uiso   1.00
H1071  H     0.44629   0.84476   0.37423   0.00000  Uiso   1.00
H1072  H     0.02547   0.66126   0.58588   0.00000  Uiso   1.00
H1073  H     0.01562   0.67821   0.63431   0.00000  Uiso   1.00
H1074  H     0.05888   0.65777   0.62376   0.00000  Uiso   1.00
H1075  H     0.27079   0.57921   0.38669   0.00000  Uiso   1.00
H1076  H     0.24794   0.59815   0.42883   0.00000  Uiso   1.00
H1077  H     0.23282   0.60970   0.38097   0.00000  Uiso   1.00
H1078  H     0.12209   0.57520   0.79849   0.00000  Uiso   1.00
H1079  H     0.32550   0.98914   0.62277   0.00000  Uiso   1.00
H1080  H     0.33878   0.96734   0.57731   0.00000  Uiso   1.00
H1081  H     0.34309   0.94345   0.62238   0.00000  Uiso   1.00
H1082  H     0.01086   0.67450   0.37723   0.00000  Uiso   1.00
H1083  H     0.03266   0.66121   0.42269   0.00000  Uiso   1.00
H1084  H     0.05655   0.65691   0.37763   0.00000  Uiso   1.00
H1085  H     0.42079   0.72921   0.61331   0.00000  Uiso   1.00
H1086  H     0.40185   0.75206   0.57117   0.00000  Uiso   1.00
H1087  H     0.39030   0.76718   0.61903   0.00000  Uiso   1.00
H1088  H     0.33874   0.97453   0.41412   0.00000  Uiso   1.00
O1089  O     0.25000   0.50000   0.25000   0.00000  Uiso   1.00
O1090  O     0.25000   0.96963   0.66245   0.00000  Uiso   1.00
O1091  O     0.46963   0.75000   0.33755   0.00000  Uiso   1.00
O1092  O     0.03036   0.75000   0.66245   0.00000  Uiso   1.00
O1093  O     0.00000   0.71963   0.83755   0.00000  Uiso   1.00
O1094  O     0.00000   0.78036   0.16245   0.00000  Uiso   1.00
O1095  O     0.28036   0.50000   0.83755   0.00000  Uiso   1.00
O1096  O     0.21963   0.50000   0.16245   0.00000  Uiso   1.00
O1097  O     0.00000   0.78036   0.83755   0.00000  Uiso   1.00
O1098  O     0.00000   0.71963   0.16245   0.00000  Uiso   1.00
O1099  O     0.21963   0.50000   0.83755   0.00000  Uiso   1.00
O1100  O     0.25000   0.50000   0.75000   0.00000  Uiso   1.00
O1101  O     0.28036   0.50000   0.16245   0.00000  Uiso   1.00
O1102  O     0.20724   0.57307   0.27302   0.00000  Uiso   1.00
O1103  O     0.29275   0.92692   0.72698   0.00000  Uiso   1.00
O1104  O     0.42692   0.70724   0.27302   0.00000  Uiso   1.00
O1105  O     0.07307   0.79275   0.72698   0.00000  Uiso   1.00
O1106  O     0.29275   0.92692   0.27302   0.00000  Uiso   1.00
O1107  O     0.20724   0.57307   0.72698   0.00000  Uiso   1.00
O1108  O     0.07307   0.79275   0.27302   0.00000  Uiso   1.00
O1109  O     0.42692   0.70724   0.72698   0.00000  Uiso   1.00
O1110  O     0.20724   0.92692   0.72698   0.00000  Uiso   1.00
O1111  O     0.00000   0.75000   0.25000   0.00000  Uiso   1.00
O1112  O     0.29275   0.57307   0.27302   0.00000  Uiso   1.00
O1113  O     0.42692   0.79275   0.72698   0.00000  Uiso   1.00
O1114  O     0.07307   0.70724   0.27302   0.00000  Uiso   1.00
O1115  O     0.29275   0.57307   0.72698   0.00000  Uiso   1.00
O1116  O     0.20724   0.92692   0.27302   0.00000  Uiso   1.00
O1117  O     0.07307   0.70724   0.72698   0.00000  Uiso   1.00
O1118  O     0.42692   0.79275   0.27302   0.00000  Uiso   1.00
O1119  O     0.45724   0.82307   0.77302   0.00000  Uiso   1.00
O1120  O     0.04275   0.67692   0.22698   0.00000  Uiso   1.00
O1121  O     0.17692   0.95724   0.77302   0.00000  Uiso   1.00
O1122  O     0.00000   0.75000   0.75000   0.00000  Uiso   1.00
O1123  O     0.32307   0.54276   0.22698   0.00000  Uiso   1.00
O1124  O     0.04275   0.67692   0.77302   0.00000  Uiso   1.00
O1125  O     0.45724   0.82307   0.22698   0.00000  Uiso   1.00
O1126  O     0.32307   0.54276   0.77302   0.00000  Uiso   1.00
O1127  O     0.17692   0.95724   0.22698   0.00000  Uiso   1.00
O1128  O     0.45724   0.67692   0.22698   0.00000  Uiso   1.00
O1129  O     0.04275   0.82307   0.77302   0.00000  Uiso   1.00
O1130  O     0.17692   0.54275   0.22698   0.00000  Uiso   1.00
O1131  O     0.32307   0.95724   0.77302   0.00000  Uiso   1.00
O1132  O     0.04275   0.82307   0.22698   0.00000  Uiso   1.00
O1133  O     0.25000   0.96963   0.33755   0.00000  Uiso   1.00
O1134  O     0.45724   0.67692   0.77302   0.00000  Uiso   1.00
O1135  O     0.32307   0.95724   0.22698   0.00000  Uiso   1.00
O1136  O     0.17692   0.54275   0.77302   0.00000  Uiso   1.00
O1137  O     0.08866   0.70375   0.46011   0.00000  Uiso   1.00
O1138  O     0.42251   0.81313   0.53905   0.00000  Uiso   1.00
O1139  O     0.30218   0.91417   0.46036   0.00000  Uiso   1.00
O1140  O     0.19085   0.58092   0.53926   0.00000  Uiso   1.00
O1141  O     0.41908   0.80915   0.46074   0.00000  Uiso   1.00
O1142  O     0.08582   0.69782   0.53964   0.00000  Uiso   1.00
O1143  O     0.18687   0.57749   0.46095   0.00000  Uiso   1.00
O1144  O     0.25000   0.53037   0.66245   0.00000  Uiso   1.00
O1145  O     0.29625   0.91133   0.53989   0.00000  Uiso   1.00
O1146  O     0.33867   0.95376   0.96011   0.00000  Uiso   1.00
O1147  O     0.17251   0.56312   0.03905   0.00000  Uiso   1.00
O1148  O     0.05218   0.66418   0.96036   0.00000  Uiso   1.00
O1149  O     0.44085   0.83092   0.03926   0.00000  Uiso   1.00
O1150  O     0.16908   0.55915   0.96074   0.00000  Uiso   1.00
O1151  O     0.33583   0.94783   0.03964   0.00000  Uiso   1.00
O1152  O     0.43687   0.82749   0.96095   0.00000  Uiso   1.00
O1153  O     0.04625   0.66133   0.03989   0.00000  Uiso   1.00
O1154  O     0.45034   0.79325   0.39720   0.00000  Uiso   1.00
O1155  O     0.03036   0.75000   0.33755   0.00000  Uiso   1.00
O1156  O     0.05230   0.70962   0.60223   0.00000  Uiso   1.00
O1157  O     0.21874   0.55800   0.39847   0.00000  Uiso   1.00
O1158  O     0.29049   0.94829   0.60234   0.00000  Uiso   1.00
O1159  O     0.05171   0.70951   0.39766   0.00000  Uiso   1.00
O1160  O     0.44200   0.78126   0.60153   0.00000  Uiso   1.00
O1161  O     0.29038   0.94770   0.39777   0.00000  Uiso   1.00
O1162  O     0.20674   0.54966   0.60280   0.00000  Uiso   1.00
O1163  O     0.20034   0.54325   0.89720   0.00000  Uiso   1.00
O1164  O     0.30230   0.95962   0.10223   0.00000  Uiso   1.00
O1165  O     0.46874   0.80800   0.89847   0.00000  Uiso   1.00
O1166  O     0.46963   0.75000   0.66245   0.00000  Uiso   1.00
O1167  O     0.04049   0.69829   0.10234   0.00000  Uiso   1.00
O1168  O     0.30171   0.95951   0.89766   0.00000  Uiso   1.00
O1169  O     0.19200   0.53126   0.10153   0.00000  Uiso   1.00
O1170  O     0.04038   0.69770   0.89777   0.00000  Uiso   1.00
O1171  O     0.45674   0.79966   0.10280   0.00000  Uiso   1.00
O1172  O     0.25000   0.53037   0.33755   0.00000  Uiso   1.00
Zn1173 Zn    0.20659   0.50000   0.21735   0.00000  Uiso   1.00
Zn1174 Zn    0.04340   0.75000   0.28265   0.00000  Uiso   1.00
Zn1175 Zn    0.25000   0.95659   0.71735   0.00000  Uiso   1.00
Zn1176 Zn    0.25000   0.54341   0.28265   0.00000  Uiso   1.00
Zn1177 Zn    0.04340   0.75000   0.71735   0.00000  Uiso   1.00
Zn1178 Zn    0.45659   0.75000   0.28265   0.00000  Uiso   1.00
Zn1179 Zn    0.25000   0.54341   0.71735   0.00000  Uiso   1.00
Zn1180 Zn    0.25000   0.95659   0.28265   0.00000  Uiso   1.00
Zn1181 Zn    0.29340   0.50000   0.78265   0.00000  Uiso   1.00
Zn1182 Zn    0.00000   0.70659   0.21735   0.00000  Uiso   1.00
Zn1183 Zn    0.00000   0.79340   0.78265   0.00000  Uiso   1.00
Zn1184 Zn    0.29340   0.50000   0.21735   0.00000  Uiso   1.00
Zn1185 Zn    0.20659   0.50000   0.78265   0.00000  Uiso   1.00
Zn1186 Zn    0.00000   0.79340   0.21735   0.00000  Uiso   1.00
Zn1187 Zn    0.00000   0.70659   0.78265   0.00000  Uiso   1.00
Zn1188 Zn    0.45659   0.75000   0.71735   0.00000  Uiso   1.00
C1189  C     0.97492   0.77222   0.41803   0.00000  Uiso   1.00
C1190  C     0.77677   0.97966   0.08156   0.00000  Uiso   1.00
C1191  C     0.72870   0.52614   0.54116   0.00000  Uiso   1.00
C1192  C     0.97386   0.77130   0.45884   0.00000  Uiso   1.00
C1193  C     0.52839   0.73132   0.54071   0.00000  Uiso   1.00
C1194  C     0.73045   0.52705   0.45937   0.00000  Uiso   1.00
C1195  C     0.76679   0.97078   0.54111   0.00000  Uiso   1.00
C1196  C     0.77922   0.98321   0.95889   0.00000  Uiso   1.00
C1197  C     0.72295   0.51955   0.04063   0.00000  Uiso   1.00
C1198  C     0.51868   0.72160   0.95929   0.00000  Uiso   1.00
C1199  C     0.97870   0.77614   0.04116   0.00000  Uiso   1.00
C1200  C     0.72386   0.52130   0.95884   0.00000  Uiso   1.00
C1201  C     0.98371   0.77902   0.91879   0.00000  Uiso   1.00
C1202  C     0.77840   0.98133   0.04071   0.00000  Uiso   1.00
C1203  C     0.98045   0.77705   0.95937   0.00000  Uiso   1.00
C1204  C     0.51679   0.72078   0.04111   0.00000  Uiso   1.00
C1205  C     0.59815   0.84811   0.25001   0.00000  Uiso   1.00
C1206  C     0.90186   0.65188   0.74995   0.00000  Uiso   1.00
C1207  C     0.65187   0.59813   0.25000   0.00000  Uiso   1.00
C1208  C     0.84813   0.90187   0.75000   0.00000  Uiso   1.00
C1209  C     0.90189   0.65184   0.24999   0.00000  Uiso   1.00
C1210  C     0.59812   0.84814   0.75005   0.00000  Uiso   1.00
C1211  C     0.84812   0.90188   0.25000   0.00000  Uiso   1.00
C1212  C     0.51905   0.72272   0.08179   0.00000  Uiso   1.00
C1213  C     0.65188   0.59812   0.75000   0.00000  Uiso   1.00
C1214  C     0.59812   0.65188   0.75000   0.00000  Uiso   1.00
C1215  C     0.90188   0.84812   0.25000   0.00000  Uiso   1.00
C1216  C     0.65189   0.90184   0.74999   0.00000  Uiso   1.00
C1217  C     0.84812   0.59814   0.25005   0.00000  Uiso   1.00
C1218  C     0.90187   0.84813   0.75000   0.00000  Uiso   1.00
C1219  C     0.59813   0.65187   0.25000   0.00000  Uiso   1.00
C1220  C     0.84815   0.59811   0.75001   0.00000  Uiso   1.00
C1221  C     0.65186   0.90188   0.24995   0.00000  Uiso   1.00
C1222  C     0.50136   0.75185   0.47933   0.00000  Uiso   1.00
C1223  C     0.77728   0.98095   0.91821   0.00000  Uiso   1.00
C1224  C     0.50097   0.75097   0.52025   0.00000  Uiso   1.00
C1225  C     0.74903   0.99903   0.47975   0.00000  Uiso   1.00
C1226  C     0.74815   0.99864   0.52067   0.00000  Uiso   1.00
C1227  C     0.75136   0.50185   0.97933   0.00000  Uiso   1.00
C1228  C     0.75097   0.50097   0.02025   0.00000  Uiso   1.00
C1229  C     0.99903   0.74903   0.97975   0.00000  Uiso   1.00
C1230  C     0.99815   0.74864   0.02066   0.00000  Uiso   1.00
C1231  C     0.61476   0.73191   0.45768   0.00000  Uiso   1.00
C1232  C     0.93742   0.84844   0.54278   0.00000  Uiso   1.00
C1233  C     0.83998   0.91281   0.46878   0.00000  Uiso   1.00
C1234  C     0.72098   0.51629   0.08121   0.00000  Uiso   1.00
C1235  C     0.71312   0.61224   0.54132   0.00000  Uiso   1.00
C1236  C     0.88776   0.78688   0.45868   0.00000  Uiso   1.00
C1237  C     0.58719   0.66002   0.53122   0.00000  Uiso   1.00
C1238  C     0.65156   0.56258   0.45722   0.00000  Uiso   1.00
C1239  C     0.76809   0.88524   0.54232   0.00000  Uiso   1.00
C1240  C     0.86476   0.98192   0.95768   0.00000  Uiso   1.00
C1241  C     0.68741   0.59843   0.04278   0.00000  Uiso   1.00
C1242  C     0.58998   0.66281   0.96878   0.00000  Uiso   1.00
C1243  C     0.96312   0.86224   0.04132   0.00000  Uiso   1.00
C1244  C     0.63775   0.53687   0.95868   0.00000  Uiso   1.00
C1245  C     0.52034   0.72323   0.91845   0.00000  Uiso   1.00
C1246  C     0.83720   0.91003   0.03122   0.00000  Uiso   1.00
C1247  C     0.90156   0.81258   0.95722   0.00000  Uiso   1.00
C1248  C     0.51809   0.63524   0.04232   0.00000  Uiso   1.00
C1249  C     0.96638   0.82757   0.38993   0.00000  Uiso   1.00
C1250  C     0.53700   0.67541   0.61173   0.00000  Uiso   1.00
C1251  C     0.74390   0.58725   0.39904   0.00000  Uiso   1.00
C1252  C     0.82587   0.96309   0.60610   0.00000  Uiso   1.00
C1253  C     0.53690   0.67413   0.39390   0.00000  Uiso   1.00
C1254  C     0.91275   0.75610   0.60096   0.00000  Uiso   1.00
C1255  C     0.82459   0.96300   0.38827   0.00000  Uiso   1.00
C1256  C     0.97778   0.77508   0.08197   0.00000  Uiso   1.00
C1257  C     0.67243   0.53362   0.61007   0.00000  Uiso   1.00
C1258  C     0.71638   0.57757   0.88993   0.00000  Uiso   1.00
C1259  C     0.78700   0.92541   0.11173   0.00000  Uiso   1.00
C1260  C     0.99390   0.83725   0.89904   0.00000  Uiso   1.00
C1261  C     0.57587   0.71310   0.10610   0.00000  Uiso   1.00
C1262  C     0.78691   0.92413   0.89390   0.00000  Uiso   1.00
C1263  C     0.66275   0.50609   0.10096   0.00000  Uiso   1.00
C1264  C     0.57459   0.71300   0.88827   0.00000  Uiso   1.00
C1265  C     0.92243   0.78362   0.11007   0.00000  Uiso   1.00
C1266  C     0.50056   0.75084   0.39810   0.00000  Uiso   1.00
C1267  C     0.99927   0.74874   0.60155   0.00000  Uiso   1.00
C1268  C     0.75126   0.50073   0.39845   0.00000  Uiso   1.00
C1269  C     0.52677   0.72966   0.58156   0.00000  Uiso   1.00
C1270  C     0.74916   0.99944   0.60190   0.00000  Uiso   1.00
C1271  C     0.75056   0.50084   0.89810   0.00000  Uiso   1.00
C1272  C     0.74927   0.99874   0.10155   0.00000  Uiso   1.00
C1273  C     0.50126   0.75073   0.89845   0.00000  Uiso   1.00
C1274  C     0.99916   0.74944   0.10190   0.00000  Uiso   1.00
C1275  C     0.55841   0.71709   0.47945   0.00000  Uiso   1.00
C1276  C     0.94757   0.79125   0.52002   0.00000  Uiso   1.00
C1277  C     0.78583   0.94296   0.48002   0.00000  Uiso   1.00
C1278  C     0.71000   0.55360   0.52039   0.00000  Uiso   1.00
C1279  C     0.94640   0.79000   0.47961   0.00000  Uiso   1.00
C1280  C     0.73371   0.52902   0.41879   0.00000  Uiso   1.00
C1281  C     0.55704   0.71417   0.51998   0.00000  Uiso   1.00
C1282  C     0.70875   0.55243   0.47998   0.00000  Uiso   1.00
C1283  C     0.78291   0.94159   0.52055   0.00000  Uiso   1.00
C1284  C     0.80841   0.96710   0.97945   0.00000  Uiso   1.00
C1285  C     0.69756   0.54124   0.02002   0.00000  Uiso   1.00
C1286  C     0.53583   0.69296   0.98002   0.00000  Uiso   1.00
C1287  C     0.96000   0.80360   0.02039   0.00000  Uiso   1.00
C1288  C     0.69640   0.54000   0.97961   0.00000  Uiso   1.00
C1289  C     0.80704   0.96418   0.01998   0.00000  Uiso   1.00
C1290  C     0.95875   0.80243   0.97998   0.00000  Uiso   1.00
C1291  C     0.76905   0.97272   0.58179   0.00000  Uiso   1.00
C1292  C     0.53291   0.69159   0.02055   0.00000  Uiso   1.00
C1293  C     0.75010   0.50016   0.35594   0.00000  Uiso   1.00
C1294  C     0.74998   0.99990   0.64419   0.00000  Uiso   1.00
C1295  C     0.50010   0.75002   0.35581   0.00000  Uiso   1.00
C1296  C     0.99984   0.74990   0.64406   0.00000  Uiso   1.00
C1297  C     0.50010   0.75016   0.85594   0.00000  Uiso   1.00
C1298  C     0.99998   0.74990   0.14419   0.00000  Uiso   1.00
C1299  C     0.75010   0.50002   0.85581   0.00000  Uiso   1.00
C1300  C     0.74984   0.99990   0.14406   0.00000  Uiso   1.00
C1301  C     0.67994   0.57006   0.25000   0.00000  Uiso   1.00
C1302  C     0.52728   0.73095   0.41821   0.00000  Uiso   1.00
C1303  C     0.82006   0.92994   0.75000   0.00000  Uiso   1.00
C1304  C     0.92996   0.67992   0.24998   0.00000  Uiso   1.00
C1305  C     0.57005   0.82007   0.75003   0.00000  Uiso   1.00
C1306  C     0.82004   0.92996   0.25000   0.00000  Uiso   1.00
C1307  C     0.67996   0.57004   0.75000   0.00000  Uiso   1.00
C1308  C     0.57007   0.82004   0.25002   0.00000  Uiso   1.00
C1309  C     0.92993   0.67995   0.74997   0.00000  Uiso   1.00
C1310  C     0.67996   0.92992   0.74998   0.00000  Uiso   1.00
C1311  C     0.82005   0.57007   0.25003   0.00000  Uiso   1.00
C1312  C     0.92994   0.82006   0.75000   0.00000  Uiso   1.00
C1313  C     0.97098   0.76629   0.58121   0.00000  Uiso   1.00
C1314  C     0.57006   0.67994   0.25000   0.00000  Uiso   1.00
C1315  C     0.82007   0.57004   0.75002   0.00000  Uiso   1.00
C1316  C     0.67993   0.92995   0.24997   0.00000  Uiso   1.00
C1317  C     0.57004   0.67996   0.75000   0.00000  Uiso   1.00
C1318  C     0.92996   0.82004   0.25000   0.00000  Uiso   1.00
C1319  C     0.62195   0.90465   0.22475   0.00000  Uiso   1.00
C1320  C     0.87808   0.59532   0.77520   0.00000  Uiso   1.00
C1321  C     0.59623   0.62299   0.22338   0.00000  Uiso   1.00
C1322  C     0.90377   0.87702   0.77662   0.00000  Uiso   1.00
C1323  C     0.87793   0.59520   0.22483   0.00000  Uiso   1.00
C1324  C     0.77034   0.97323   0.41845   0.00000  Uiso   1.00
C1325  C     0.62210   0.90477   0.77522   0.00000  Uiso   1.00
C1326  C     0.90320   0.87645   0.22283   0.00000  Uiso   1.00
C1327  C     0.59680   0.62356   0.77717   0.00000  Uiso   1.00
C1328  C     0.62355   0.59680   0.77717   0.00000  Uiso   1.00
C1329  C     0.87644   0.90320   0.22283   0.00000  Uiso   1.00
C1330  C     0.59535   0.87805   0.77525   0.00000  Uiso   1.00
C1331  C     0.90468   0.62192   0.22480   0.00000  Uiso   1.00
C1332  C     0.87701   0.90377   0.77662   0.00000  Uiso   1.00
C1333  C     0.62298   0.59623   0.22338   0.00000  Uiso   1.00
C1334  C     0.90480   0.62207   0.77517   0.00000  Uiso   1.00
C1335  C     0.72778   0.52508   0.58197   0.00000  Uiso   1.00
C1336  C     0.59523   0.87790   0.22478   0.00000  Uiso   1.00
C1337  C     0.87195   0.65465   0.72475   0.00000  Uiso   1.00
C1338  C     0.62808   0.84532   0.27520   0.00000  Uiso   1.00
C1339  C     0.84623   0.87299   0.72338   0.00000  Uiso   1.00
C1340  C     0.65377   0.62702   0.27662   0.00000  Uiso   1.00
C1341  C     0.62793   0.84520   0.72483   0.00000  Uiso   1.00
C1342  C     0.87210   0.65477   0.27522   0.00000  Uiso   1.00
C1343  C     0.65320   0.62645   0.72283   0.00000  Uiso   1.00
C1344  C     0.84680   0.87356   0.27717   0.00000  Uiso   1.00
C1345  C     0.87355   0.84680   0.27717   0.00000  Uiso   1.00
C1346  C     0.72492   0.52222   0.91803   0.00000  Uiso   1.00
C1347  C     0.62644   0.65320   0.72283   0.00000  Uiso   1.00
C1348  C     0.84535   0.62805   0.27525   0.00000  Uiso   1.00
C1349  C     0.65468   0.87192   0.72480   0.00000  Uiso   1.00
C1350  C     0.62701   0.65377   0.27662   0.00000  Uiso   1.00
C1351  C     0.87298   0.84623   0.72338   0.00000  Uiso   1.00
C1352  C     0.65480   0.87207   0.27517   0.00000  Uiso   1.00
C1353  C     0.84523   0.62790   0.72478   0.00000  Uiso   1.00
C1354  C     0.52922   0.73321   0.45889   0.00000  Uiso   1.00
C1355  C     0.97295   0.76955   0.54063   0.00000  Uiso   1.00
C1356  C     0.76868   0.97160   0.45929   0.00000  Uiso   1.00
H1357  H     0.61916   0.92743   0.20501   0.00000  Uiso   1.00
H1358  H     0.87791   0.92479   0.20151   0.00000  Uiso   1.00
H1359  H     0.82179   0.98438   0.36569   0.00000  Uiso   1.00
H1360  H     0.84223   0.94112   0.37624   0.00000  Uiso   1.00
H1361  H     0.67506   0.50905   0.62876   0.00000  Uiso   1.00
H1362  H     0.65804   0.52645   0.58265   0.00000  Uiso   1.00
H1363  H     0.65524   0.55371   0.62577   0.00000  Uiso   1.00
H1364  H     0.74094   0.57494   0.87125   0.00000  Uiso   1.00
H1365  H     0.72355   0.59196   0.91735   0.00000  Uiso   1.00
H1366  H     0.69629   0.59476   0.87423   0.00000  Uiso   1.00
H1367  H     0.77548   0.91126   0.08588   0.00000  Uiso   1.00
H1368  H     0.76562   0.92821   0.13431   0.00000  Uiso   1.00
H1369  H     0.57257   0.88084   0.79499   0.00000  Uiso   1.00
H1370  H     0.80888   0.90778   0.12376   0.00000  Uiso   1.00
H1371  H     0.52079   0.82921   0.88669   0.00000  Uiso   1.00
H1372  H     0.99794   0.84815   0.92883   0.00000  Uiso   1.00
H1373  H     0.98282   0.85970   0.88097   0.00000  Uiso   1.00
H1374  H     0.57550   0.73914   0.12277   0.00000  Uiso   1.00
H1375  H     0.58879   0.71734   0.07731   0.00000  Uiso   1.00
H1376  H     0.59309   0.69345   0.12238   0.00000  Uiso   1.00
H1377  H     0.76086   0.92450   0.87723   0.00000  Uiso   1.00
H1378  H     0.78266   0.91122   0.92269   0.00000  Uiso   1.00
H1379  H     0.80655   0.90691   0.87763   0.00000  Uiso   1.00
H1380  H     0.92746   0.61913   0.20507   0.00000  Uiso   1.00
H1381  H     0.67079   0.97921   0.11331   0.00000  Uiso   1.00
H1382  H     0.65185   0.50205   0.07117   0.00000  Uiso   1.00
H1383  H     0.64030   0.51717   0.11903   0.00000  Uiso   1.00
H1384  H     0.58874   0.72453   0.91412   0.00000  Uiso   1.00
H1385  H     0.57179   0.73438   0.86569   0.00000  Uiso   1.00
H1386  H     0.59223   0.69112   0.87624   0.00000  Uiso   1.00
H1387  H     0.92506   0.75905   0.12876   0.00000  Uiso   1.00
H1388  H     0.90804   0.77645   0.08265   0.00000  Uiso   1.00
H1389  H     0.90524   0.80371   0.12577   0.00000  Uiso   1.00
H1390  H     0.87893   0.92582   0.79749   0.00000  Uiso   1.00
H1391  H     0.62106   0.57418   0.20252   0.00000  Uiso   1.00
H1392  H     0.92768   0.61938   0.79489   0.00000  Uiso   1.00
H1393  H     0.57234   0.88059   0.20506   0.00000  Uiso   1.00
H1394  H     0.86916   0.67743   0.70501   0.00000  Uiso   1.00
H1395  H     0.63087   0.82254   0.29493   0.00000  Uiso   1.00
H1396  H     0.82418   0.87107   0.70251   0.00000  Uiso   1.00
H1397  H     0.88087   0.57254   0.79493   0.00000  Uiso   1.00
H1398  H     0.67582   0.62894   0.29748   0.00000  Uiso   1.00
H1399  H     0.63061   0.82232   0.70511   0.00000  Uiso   1.00
H1400  H     0.86941   0.67766   0.29494   0.00000  Uiso   1.00
H1401  H     0.67479   0.62791   0.70152   0.00000  Uiso   1.00
H1402  H     0.82521   0.87209   0.29849   0.00000  Uiso   1.00
H1403  H     0.87209   0.82520   0.29849   0.00000  Uiso   1.00
H1404  H     0.62791   0.67479   0.70151   0.00000  Uiso   1.00
H1405  H     0.82257   0.63084   0.29499   0.00000  Uiso   1.00
H1406  H     0.67746   0.86913   0.70507   0.00000  Uiso   1.00
H1407  H     0.62893   0.67582   0.29749   0.00000  Uiso   1.00
H1408  H     0.57418   0.62107   0.20251   0.00000  Uiso   1.00
H1409  H     0.87106   0.82418   0.70252   0.00000  Uiso   1.00
H1410  H     0.67768   0.86938   0.29489   0.00000  Uiso   1.00
H1411  H     0.82234   0.63059   0.70506   0.00000  Uiso   1.00
H1412  H     0.60394   0.75575   0.44131   0.00000  Uiso   1.00
H1413  H     0.63886   0.72141   0.44175   0.00000  Uiso   1.00
H1414  H     0.62421   0.74062   0.48694   0.00000  Uiso   1.00
H1415  H     0.96327   0.84803   0.55981   0.00000  Uiso   1.00
H1416  H     0.91766   0.86585   0.55866   0.00000  Uiso   1.00
H1417  H     0.94203   0.86115   0.51396   0.00000  Uiso   1.00
H1418  H     0.85226   0.94017   0.47436   0.00000  Uiso   1.00
H1419  H     0.92582   0.87894   0.79748   0.00000  Uiso   1.00
H1420  H     0.85428   0.90092   0.44341   0.00000  Uiso   1.00
H1421  H     0.84529   0.89445   0.49368   0.00000  Uiso   1.00
H1422  H     0.73900   0.60658   0.55721   0.00000  Uiso   1.00
H1423  H     0.69824   0.63375   0.55757   0.00000  Uiso   1.00
H1424  H     0.71913   0.62319   0.51199   0.00000  Uiso   1.00
H1425  H     0.89341   0.76100   0.44279   0.00000  Uiso   1.00
H1426  H     0.86625   0.80176   0.44243   0.00000  Uiso   1.00
H1427  H     0.87681   0.78087   0.48801   0.00000  Uiso   1.00
H1428  H     0.55983   0.64774   0.52564   0.00000  Uiso   1.00
H1429  H     0.59908   0.64572   0.55659   0.00000  Uiso   1.00
H1430  H     0.88061   0.57232   0.20511   0.00000  Uiso   1.00
H1431  H     0.60555   0.65471   0.50632   0.00000  Uiso   1.00
H1432  H     0.65197   0.53673   0.44019   0.00000  Uiso   1.00
H1433  H     0.63415   0.58234   0.44134   0.00000  Uiso   1.00
H1434  H     0.63885   0.55796   0.48604   0.00000  Uiso   1.00
H1435  H     0.74425   0.89606   0.55870   0.00000  Uiso   1.00
H1436  H     0.77859   0.86114   0.55825   0.00000  Uiso   1.00
H1437  H     0.75938   0.87579   0.51306   0.00000  Uiso   1.00
H1438  H     0.85394   0.50576   0.94130   0.00000  Uiso   1.00
H1439  H     0.88886   0.97142   0.94175   0.00000  Uiso   1.00
H1440  H     0.87421   0.99063   0.98694   0.00000  Uiso   1.00
H1441  H     0.61941   0.92766   0.79494   0.00000  Uiso   1.00
H1442  H     0.69203   0.61114   0.01395   0.00000  Uiso   1.00
H1443  H     0.71326   0.59803   0.05981   0.00000  Uiso   1.00
H1444  H     0.66765   0.61584   0.05866   0.00000  Uiso   1.00
H1445  H     0.60226   0.69017   0.97436   0.00000  Uiso   1.00
H1446  H     0.60428   0.65092   0.94341   0.00000  Uiso   1.00
H1447  H     0.59529   0.64445   0.99368   0.00000  Uiso   1.00
H1448  H     0.98900   0.85658   0.05721   0.00000  Uiso   1.00
H1449  H     0.94824   0.88375   0.05757   0.00000  Uiso   1.00
H1450  H     0.96913   0.87319   0.01199   0.00000  Uiso   1.00
H1451  H     0.64341   0.51099   0.94279   0.00000  Uiso   1.00
H1452  H     0.92479   0.87791   0.20152   0.00000  Uiso   1.00
H1453  H     0.61625   0.55175   0.94243   0.00000  Uiso   1.00
H1454  H     0.62681   0.53086   0.98801   0.00000  Uiso   1.00
H1455  H     0.80984   0.89774   0.02564   0.00000  Uiso   1.00
H1456  H     0.84909   0.89573   0.05659   0.00000  Uiso   1.00
H1457  H     0.85556   0.90472   0.00632   0.00000  Uiso   1.00
H1458  H     0.88885   0.80796   0.98604   0.00000  Uiso   1.00
H1459  H     0.90197   0.78673   0.94019   0.00000  Uiso   1.00
H1460  H     0.88415   0.83234   0.94134   0.00000  Uiso   1.00
H1461  H     0.99425   0.64606   0.05869   0.00000  Uiso   1.00
H1462  H     0.52859   0.61114   0.05825   0.00000  Uiso   1.00
H1463  H     0.57521   0.62209   0.79849   0.00000  Uiso   1.00
H1464  H     0.50938   0.62579   0.01306   0.00000  Uiso   1.00
H1465  H     0.99095   0.82494   0.37124   0.00000  Uiso   1.00
H1466  H     0.97355   0.84196   0.41735   0.00000  Uiso   1.00
H1467  H     0.94629   0.84476   0.37423   0.00000  Uiso   1.00
H1468  H     0.52547   0.66126   0.58588   0.00000  Uiso   1.00
H1469  H     0.51562   0.67821   0.63431   0.00000  Uiso   1.00
H1470  H     0.55888   0.65777   0.62376   0.00000  Uiso   1.00
H1471  H     0.77079   0.57921   0.38669   0.00000  Uiso   1.00
H1472  H     0.74794   0.59815   0.42883   0.00000  Uiso   1.00
H1473  H     0.73282   0.60970   0.38097   0.00000  Uiso   1.00
H1474  H     0.62209   0.57520   0.79849   0.00000  Uiso   1.00
H1475  H     0.82550   0.98914   0.62277   0.00000  Uiso   1.00
H1476  H     0.83878   0.96734   0.57731   0.00000  Uiso   1.00
H1477  H     0.84309   0.94345   0.62238   0.00000  Uiso   1.00
H1478  H     0.51086   0.67450   0.37723   0.00000  Uiso   1.00
H1479  H     0.53266   0.66121   0.42269   0.00000  Uiso   1.00
H1480  H     0.55655   0.65691   0.37763   0.00000  Uiso   1.00
H1481  H     0.92079   0.72921   0.61331   0.00000  Uiso   1.00
H1482  H     0.90185   0.75206   0.57117   0.00000  Uiso   1.00
H1483  H     0.89030   0.76718   0.61903   0.00000  Uiso   1.00
H1484  H     0.83874   0.97453   0.41412   0.00000  Uiso   1.00
O1485  O     0.75000   0.50000   0.25000   0.00000  Uiso   1.00
O1486  O     0.75000   0.96963   0.66245   0.00000  Uiso   1.00
O1487  O     0.96963   0.75000   0.33755   0.00000  Uiso   1.00
O1488  O     0.53036   0.75000   0.66245   0.00000  Uiso   1.00
O1489  O     0.50000   0.71963   0.83755   0.00000  Uiso   1.00
O1490  O     0.50000   0.78036   0.16245   0.00000  Uiso   1.00
O1491  O     0.78036   0.50000   0.83755   0.00000  Uiso   1.00
O1492  O     0.71963   0.50000   0.16245   0.00000  Uiso   1.00
O1493  O     0.50000   0.78036   0.83755   0.00000  Uiso   1.00
O1494  O     0.50000   0.71963   0.16245   0.00000  Uiso   1.00
O1495  O     0.71963   0.50000   0.83755   0.00000  Uiso   1.00
O1496  O     0.75000   0.50000   0.75000   0.00000  Uiso   1.00
O1497  O     0.78036   0.50000   0.16245   0.00000  Uiso   1.00
O1498  O     0.70724   0.57307   0.27302   0.00000  Uiso   1.00
O1499  O     0.79275   0.92692   0.72698   0.00000  Uiso   1.00
O1500  O     0.92692   0.70724   0.27302   0.00000  Uiso   1.00
O1501  O     0.57307   0.79275   0.72698   0.00000  Uiso   1.00
O1502  O     0.79275   0.92692   0.27302   0.00000  Uiso   1.00
O1503  O     0.70724   0.57307   0.72698   0.00000  Uiso   1.00
O1504  O     0.57307   0.79275   0.27302   0.00000  Uiso   1.00
O1505  O     0.92692   0.70724   0.72698   0.00000  Uiso   1.00
O1506  O     0.70724   0.92692   0.72698   0.00000  Uiso   1.00
O1507  O     0.50000   0.75000   0.25000   0.00000  Uiso   1.00
O1508  O     0.79275   0.57307   0.27302   0.00000  Uiso   1.00
O1509  O     0.92692   0.79275   0.72698   0.00000  Uiso   1.00
O1510  O     0.57307   0.70724   0.27302   0.00000  Uiso   1.00
O1511  O     0.79275   0.57307   0.72698   0.00000  Uiso   1.00
O1512  O     0.70724   0.92692   0.27302   0.00000  Uiso   1.00
O1513  O     0.57307   0.70724   0.72698   0.00000  Uiso   1.00
O1514  O     0.92692   0.79275   0.27302   0.00000  Uiso   1.00
O1515  O     0.95724   0.82307   0.77302   0.00000  Uiso   1.00
O1516  O     0.54275   0.67692   0.22698   0.00000  Uiso   1.00
O1517  O     0.67692   0.95724   0.77302   0.00000  Uiso   1.00
O1518  O     0.50000   0.75000   0.75000   0.00000  Uiso   1.00
O1519  O     0.82307   0.54276   0.22698   0.00000  Uiso   1.00
O1520  O     0.54275   0.67692   0.77302   0.00000  Uiso   1.00
O1521  O     0.95724   0.82307   0.22698   0.00000  Uiso   1.00
O1522  O     0.82307   0.54276   0.77302   0.00000  Uiso   1.00
O1523  O     0.67692   0.95724   0.22698   0.00000  Uiso   1.00
O1524  O     0.95724   0.67692   0.22698   0.00000  Uiso   1.00
O1525  O     0.54275   0.82307   0.77302   0.00000  Uiso   1.00
O1526  O     0.67692   0.54275   0.22698   0.00000  Uiso   1.00
O1527  O     0.82307   0.95724   0.77302   0.00000  Uiso   1.00
O1528  O     0.54275   0.82307   0.22698   0.00000  Uiso   1.00
O1529  O     0.75000   0.96963   0.33755   0.00000  Uiso   1.00
O1530  O     0.95724   0.67692   0.77302   0.00000  Uiso   1.00
O1531  O     0.82307   0.95724   0.22698   0.00000  Uiso   1.00
O1532  O     0.67692   0.54275   0.77302   0.00000  Uiso   1.00
O1533  O     0.58866   0.70375   0.46011   0.00000  Uiso   1.00
O1534  O     0.92251   0.81313   0.53905   0.00000  Uiso   1.00
O1535  O     0.80218   0.91417   0.46036   0.00000  Uiso   1.00
O1536  O     0.69085   0.58092   0.53926   0.00000  Uiso   1.00
O1537  O     0.91908   0.80915   0.46074   0.00000  Uiso   1.00
O1538  O     0.58582   0.69782   0.53964   0.00000  Uiso   1.00
O1539  O     0.68687   0.57749   0.46095   0.00000  Uiso   1.00
O1540  O     0.75000   0.53037   0.66245   0.00000  Uiso   1.00
O1541  O     0.79625   0.91133   0.53989   0.00000  Uiso   1.00
O1542  O     0.83867   0.95376   0.96011   0.00000  Uiso   1.00
O1543  O     0.67251   0.56312   0.03905   0.00000  Uiso   1.00
O1544  O     0.55218   0.66418   0.96036   0.00000  Uiso   1.00
O1545  O     0.94085   0.83092   0.03926   0.00000  Uiso   1.00
O1546  O     0.66908   0.55915   0.96074   0.00000  Uiso   1.00
O1547  O     0.83583   0.94783   0.03964   0.00000  Uiso   1.00
O1548  O     0.93687   0.82749   0.96095   0.00000  Uiso   1.00
O1549  O     0.54625   0.66133   0.03989   0.00000  Uiso   1.00
O1550  O     0.95034   0.79325   0.39720   0.00000  Uiso   1.00
O1551  O     0.53036   0.75000   0.33755   0.00000  Uiso   1.00
O1552  O     0.55230   0.70962   0.60223   0.00000  Uiso   1.00
O1553  O     0.71874   0.55800   0.39847   0.00000  Uiso   1.00
O1554  O     0.79049   0.94829   0.60234   0.00000  Uiso   1.00
O1555  O     0.55171   0.70951   0.39766   0.00000  Uiso   1.00
O1556  O     0.94200   0.78126   0.60153   0.00000  Uiso   1.00
O1557  O     0.79038   0.94770   0.39777   0.00000  Uiso   1.00
O1558  O     0.70674   0.54966   0.60280   0.00000  Uiso   1.00
O1559  O     0.70034   0.54325   0.89720   0.00000  Uiso   1.00
O1560  O     0.80230   0.95962   0.10223   0.00000  Uiso   1.00
O1561  O     0.96874   0.80800   0.89847   0.00000  Uiso   1.00
O1562  O     0.96963   0.75000   0.66245   0.00000  Uiso   1.00
O1563  O     0.54049   0.69829   0.10234   0.00000  Uiso   1.00
O1564  O     0.80171   0.95951   0.89766   0.00000  Uiso   1.00
O1565  O     0.69200   0.53126   0.10153   0.00000  Uiso   1.00
O1566  O     0.54038   0.69770   0.89777   0.00000  Uiso   1.00
O1567  O     0.95674   0.79966   0.10280   0.00000  Uiso   1.00
O1568  O     0.75000   0.53037   0.33755   0.00000  Uiso   1.00
Zn1569 Zn    0.70659   0.50000   0.21735   0.00000  Uiso   1.00
Zn1570 Zn    0.54340   0.75000   0.28265   0.00000  Uiso   1.00
Zn1571 Zn    0.75000   0.95659   0.71735   0.00000  Uiso   1.00
Zn1572 Zn    0.75000   0.54341   0.28265   0.00000  Uiso   1.00
Zn1573 Zn    0.54340   0.75000   0.71735   0.00000  Uiso   1.00
Zn1574 Zn    0.95659   0.75000   0.28265   0.00000  Uiso   1.00
Zn1575 Zn    0.75000   0.54341   0.71735   0.00000  Uiso   1.00
Zn1576 Zn    0.75000   0.95659   0.28265   0.00000  Uiso   1.00
Zn1577 Zn    0.79340   0.50000   0.78265   0.00000  Uiso   1.00
Zn1578 Zn    0.50000   0.70659   0.21735   0.00000  Uiso   1.00
Zn1579 Zn    0.50000   0.79340   0.78265   0.00000  Uiso   1.00
Zn1580 Zn    0.79340   0.50000   0.21735   0.00000  Uiso   1.00
Zn1581 Zn    0.70659   0.50000   0.78265   0.00000  Uiso   1.00
Zn1582 Zn    0.50000   0.79340   0.21735   0.00000  Uiso   1.00
Zn1583 Zn    0.50000   0.70659   0.78265   0.00000  Uiso   1.00
Zn1584 Zn    0.95659   0.75000   0.71735   0.00000  Uiso   1.00
loop_
_geom_bond_atom_site_label_1
_geom_bond_atom_site_label_2
_geom_bond_distance
_geom_bond_site_symmetry_2
_ccdc_geom_bond_type
C1     O362    1.385   .     S
C1     C4      1.410   .     A
C1     C474    1.403   .     S
C2     C84     1.407   .     A
C2     C14     1.413   .     A
C2     O372    1.386   .     S
C3     C147    1.410   .     A
C3     C90     1.412   .     A
C3     C830    1.421   1_545 S
C4     C91     1.412   .     A
C4     C430    1.421   .     S
C5     C36     1.422   .     A
C5     C81     1.413   .     A
C5     C93     1.417   .     A
C6     C94     1.414   .     A
C6     C92     1.408   .     A
C6     C829    1.418   1_545 S
C7     C103    1.408   .     A
C7     C38     1.416   .     A
C7     C95     1.411   .     A
C8     C35     1.408   .     A
C8     C96     1.411   .     A
C8     C831    1.416   .     S
C9     C46     1.408   .     A
C9     C97     1.414   .     A
C9     C40     1.418   .     A
C10    C57     1.413   .     A
C10    C98     1.417   .     A
C10    C437    1.422   1_455 S
C11    C99     1.412   .     A
C11    C68     1.410   .     A
C11    C42     1.421   .     A
C12    C158    1.410   .     A
C12    C39     1.421   .     A
C12    C100    1.412   .     A
C13    O373    1.386   .     S
C13    C15     1.408   .     A
C13    C481    1.406   .     S
C14    C101    1.417   .     A
C14    C832    1.422   .     S
C15    C41     1.418   .     A
C15    C102    1.414   .     A
C16    C104    1.411   .     A
C16    C24     1.408   .     A
C16    C438    1.416   1_455 S
C17    C120    1.455   .     S
C17    C148    1.402   .     A
C17    C150    1.401   .     A
C18    C121    1.455   .     S
C18    C149    1.401   .     A
C18    C146    1.402   .     A
C19    C113    1.453   .     S
C19    C145    1.401   .     A
C19    C152    1.401   .     A
C20    C144    1.401   .     A
C20    C151    1.401   .     A
C20    C115    1.453   .     S
C21    C116    1.455   .     S
C21    C143    1.401   .     A
C21    C154    1.402   .     A
C22    C153    1.402   .     A
C22    C117    1.455   .     S
C22    C142    1.401   .     A
C23    C118    1.454   .     S
C23    C156    1.402   .     A
C23    C141    1.402   .     A
C24    O375    1.386   .     S
C24    C482    1.403   1_455 S
C25    C119    1.454   .     S
C25    C140    1.402   .     A
C25    C155    1.402   .     A
C26    C139    1.402   .     A
C26    C159    1.402   .     A
C26    C129    1.454   .     S
C27    C138    1.402   .     A
C27    C157    1.402   .     A
C27    C130    1.454   .     S
C28    C161    1.401   .     A
C28    C137    1.402   .     A
C28    C122    1.455   .     S
C29    C135    1.402   .     A
C29    C160    1.401   .     A
C29    C123    1.455   .     S
C30    C134    1.401   .     A
C30    C163    1.401   .     A
C30    C124    1.453   .     S
C31    C162    1.401   .     A
C31    C133    1.401   .     A
C31    C126    1.453   .     S
C32    C127    1.455   .     S
C32    C165    1.402   .     A
C32    C132    1.401   .     A
C33    C131    1.401   .     A
C33    C164    1.402   .     A
C33    C128    1.455   .     S
C34    C36     1.413   .     A
C34    C166    1.416   .     A
C34    C400    1.421   1_455 S
C35    O376    1.386   .     S
C35    C875    1.403   .     S
C36    C563    1.418   1_455 S
C37    C168    1.422   .     A
C37    C38     1.413   .     A
C37    C798    1.418   .     S
C38    C795    1.421   .     S
C39    C800    1.416   1_545 S
C39    C40     1.413   1_556 S
C40    C806    1.422   1_545 S
C40    C39     1.413   1_554 S
C41    C406    1.422   .     S
C41    C42     1.413   1_556 S
C42    C412    1.416   .     S
C42    C41     1.413   1_554 S
C43    O345    1.410   .     S
C43    H226    1.113   .     S
C43    H224    1.113   .     S
C43    H225    1.109   .     S
C44    H227    1.114   .     S
C44    O346    1.410   .     S
C44    H229    1.113   .     S
C44    H228    1.109   .     S
C45    O347    1.415   .     S
C45    H230    1.115   .     S
C45    H233    1.109   .     S
C45    H232    1.109   .     S
C46    O377    1.386   .     S
C46    C876    1.406   1_545 S
C47    H235    1.109   .     S
C47    H236    1.113   .     S
C47    H234    1.114   .     S
C47    O348    1.411   .     S
C48    H239    1.113   .     S
C48    H237    1.114   .     S
C48    O349    1.411   .     S
C48    H238    1.109   .     S
C49    H241    1.109   .     S
C49    H243    1.109   .     S
C49    O350    1.415   .     S
C49    H240    1.115   .     S
C50    O351    1.410   .     S
C50    H246    1.113   .     S
C50    H244    1.114   .     S
C50    H245    1.109   .     S
C51    O353    1.410   .     S
C51    H248    1.109   .     S
C51    H247    1.114   .     S
C51    H249    1.113   .     S
C52    H252    1.113   .     S
C52    O354    1.410   .     S
C52    H251    1.109   .     S
C52    H1042   1.114   .     S
C53    H254    1.113   .     S
C53    H256    1.109   .     S
C53    O355    1.410   .     S
C53    H255    1.114   .     S
C54    H258    1.109   .     S
C54    O356    1.415   .     S
C54    H259    1.109   .     S
C54    H257    1.115   .     S
C55    H260    1.114   .     S
C55    H262    1.113   .     S
C55    O357    1.411   .     S
C55    H261    1.109   .     S
C56    O358    1.411   .     S
C56    H263    1.114   .     S
C56    H266    1.113   .     S
C56    H265    1.109   .     S
C57    O378    1.386   .     S
C57    C85     1.407   .     A
C58    O359    1.415   .     S
C58    H268    1.109   .     S
C58    H269    1.109   .     S
C58    H267    1.115   .     S
C59    O360    1.410   .     S
C59    H272    1.109   .     S
C59    H270    1.113   .     S
C59    H271    1.114   .     S
C60    H274    1.109   .     S
C60    O361    1.410   .     S
C60    H276    1.113   .     S
C60    H669    1.113   1_455 S
C61    H278    1.113   .     S
C61    O362    1.412   .     S
C61    H277    1.112   .     S
C61    H279    1.109   .     S
C62    H281    1.111   .     S
C62    H282    1.109   .     S
C62    H280    1.113   .     S
C62    O364    1.413   .     S
C63    O365    1.414   .     S
C63    H285    1.109   .     S
C63    H284    1.112   .     S
C63    H283    1.113   .     S
C64    H288    1.113   .     S
C64    O366    1.411   .     S
C64    H287    1.113   .     S
C64    H289    1.109   .     S
C65    H290    1.113   .     S
C65    H292    1.109   .     S
C65    O367    1.411   .     S
C65    H291    1.113   .     S
C66    H294    1.112   .     S
C66    O368    1.414   .     S
C66    H295    1.109   .     S
C66    H293    1.113   .     S
C67    H296    1.113   .     S
C67    H172    1.109   .     S
C67    H171    1.111   .     S
C67    O369    1.413   .     S
C68    O379    1.385   .     S
C68    C86     1.403   .     A
C69    H173    1.112   .     S
C69    H175    1.109   .     S
C69    O370    1.412   .     S
C69    H174    1.113   .     S
C70    H176    1.112   .     S
C70    H177    1.113   .     S
C70    O371    1.412   .     S
C70    H178    1.109   .     S
C71    O372    1.413   .     S
C71    H180    1.111   .     S
C71    H179    1.113   .     S
C71    H182    1.109   .     S
C72    H184    1.112   .     S
C72    H185    1.109   .     S
C72    O373    1.414   .     S
C72    H579    1.113   .     S
C73    H186    1.113   .     S
C73    H188    1.109   .     S
C73    H187    1.113   .     S
C73    O375    1.411   .     S
C74    H190    1.113   .     S
C74    H191    1.109   .     S
C74    H189    1.113   .     S
C74    O376    1.411   .     S
C75    O377    1.414   .     S
C75    H194    1.112   .     S
C75    H195    1.109   .     S
C75    H985    1.113   1_545 S
C76    H197    1.111   .     S
C76    H196    1.113   .     S
C76    O378    1.413   .     S
C76    H198    1.109   .     S
C77    O379    1.412   .     S
C77    H201    1.109   .     S
C77    H200    1.113   .     S
C77    H199    1.112   .     S
C78    C114    1.403   .     A
C78    C107    1.460   .     S
C78    C397    1.403   1_455 S
C79    C108    1.468   .     S
C79    C125    1.406   .     A
C79    C477    1.407   .     S
C80    C92     1.406   .     A
C80    C105    1.468   .     S
C80    C928    1.407   1_545 S
C81    O364    1.386   .     S
C81    C475    1.407   1_455 S
C82    C106    1.460   .     S
C82    C103    1.403   .     A
C82    C939    1.403   .     S
C83    C111    1.460   .     S
C83    C158    1.403   .     A
C83    C827    1.403   1_545 S
C84    C112    1.468   .     S
C84    C838    1.406   .     S
C85    C109    1.468   .     S
C85    C409    1.406   1_455 S
C86    C110    1.460   .     S
C86    C420    1.403   .     S
C87    C93     1.404   .     A
C87    O345    1.383   .     S
C87    C166    1.411   .     A
C88    O346    1.384   .     S
C88    C91     1.396   .     A
C88    C167    1.414   .     A
C89    C95     1.404   .     A
C89    C168    1.417   .     A
C89    O347    1.389   .     S
C90    C94     1.396   .     A
C90    O348    1.384   .     S
C91    O349    1.384   .     S
C92    O365    1.386   .     S
C93    O350    1.389   .     S
C94    O351    1.384   .     S
C95    O353    1.383   .     S
C96    O354    1.383   .     S
C96    C101    1.404   1_556 S
C97    O355    1.384   .     S
C97    C100    1.396   1_554 S
C98    O356    1.389   .     S
C98    C104    1.404   1_556 S
C99    O357    1.384   .     S
C99    C102    1.396   1_554 S
C100   O358    1.384   .     S
C100   C97     1.396   1_556 S
C101   O359    1.389   .     S
C101   C96     1.404   1_554 S
C102   O360    1.384   .     S
C102   C99     1.396   1_556 S
C103   O366    1.386   .     S
C104   O361    1.383   .     S
C104   C98     1.404   1_554 S
C105   O380    1.277   .     A
C105   O1133   1.285   1_545 S
C106   O298    1.277   .     A
C106   O1144   1.280   .     S
C107   O363    1.277   .     A
C107   O695    1.280   1_455 S
C108   O374    1.277   .     A
C108   O696    1.285   .     S
C109   O305    1.277   .     A
C109   O301    1.285   .     A
C110   O698    1.280   .     S
C110   O702    1.277   .     S
C111   O307    1.280   .     A
C111   O303    1.277   .     A
C112   O1096   1.277   .     S
C112   O1101   1.285   .     S
C113   O310    1.281   .     A
C113   O338    1.281   .     A
C114   O367    1.386   .     S
C114   C166    1.408   .     A
C115   O311    1.281   .     A
C115   O339    1.281   .     A
C116   O336    1.283   .     A
C116   O312    1.282   .     A
C117   O337    1.283   .     A
C117   O313    1.282   .     A
C118   O314    1.284   .     A
C118   O343    1.284   .     A
C119   O344    1.284   .     A
C119   O315    1.284   .     A
C120   O316    1.283   .     A
C120   O340    1.282   .     A
C121   O317    1.283   .     A
C121   O342    1.282   .     A
C122   O329    1.282   .     A
C122   O318    1.283   .     A
C123   O331    1.282   .     A
C123   O320    1.283   .     A
C124   O321    1.281   .     A
C124   O327    1.281   .     A
C125   C167    1.408   .     A
C125   O368    1.386   .     S
C126   O322    1.281   .     A
C126   O328    1.281   .     A
C127   O323    1.282   .     A
C127   O334    1.283   .     A
C128   O335    1.283   .     A
C128   O324    1.282   .     A
C129   O332    1.284   .     A
C129   O325    1.284   .     A
C130   O333    1.284   .     A
C130   O326    1.284   .     A
C131   H169    1.083   .     S
C131   C148    1.386   .     A
C132   H209    1.083   .     S
C132   C146    1.386   .     A
C133   C145    1.385   .     A
C133   H220    1.083   .     S
C134   C144    1.385   .     A
C134   H231    1.083   .     S
C135   C143    1.386   .     A
C135   H242    1.083   .     S
C136   O369    1.386   .     S
C136   C168    1.413   .     A
C136   C872    1.407   .     S
C137   C142    1.386   .     A
C137   H253    1.083   .     S
C138   C141    1.385   .     A
C138   H264    1.083   .     S
C139   C140    1.385   .     A
C139   H275    1.083   .     S
C140   H286    1.083   .     S
C141   H170    1.083   .     S
C142   H181    1.083   .     S
C143   H192    1.083   .     S
C144   H202    1.083   .     S
C145   H203    1.083   .     S
C146   H204    1.083   .     S
C147   O370    1.385   .     S
C147   C874    1.403   1_545 S
C148   H205    1.083   .     S
C149   H206    1.083   .     S
C149   C165    1.386   .     A
C150   C164    1.386   .     A
C150   H207    1.083   .     S
C151   H208    1.083   .     S
C151   C163    1.385   .     A
C152   H210    1.083   .     S
C152   C162    1.385   .     A
C153   C161    1.386   .     A
C153   H211    1.083   .     S
C154   H212    1.083   .     S
C154   C160    1.386   .     A
C155   C159    1.385   .     A
C155   H213    1.083   .     S
C156   C157    1.385   .     A
C156   H214    1.083   .     S
C157   H215    1.083   .     S
C158   O371    1.385   .     S
C159   H216    1.083   .     S
C160   H217    1.083   .     S
C161   H218    1.083   .     S
C162   H219    1.083   .     S
C163   H221    1.083   .     S
C164   H222    1.083   .     S
C165   H223    1.083   .     S
C167   C432    1.418   .     S
H183   C468    1.113   1_455 S
H193   C867    1.113   .     S
H250   C844    1.114   1_545 S
H273   C456    1.113   .     S
O297   Zn384   1.947   .     S
O297   Zn392   1.951   .     S
O297   Zn381   1.947   .     S
O297   Zn1180  1.951   1_545 S
O298   Zn383   1.956   .     S
O299   Zn386   1.953   .     S
O299   C503    1.280   .     S
O300   Zn385   1.953   .     S
O300   C504    1.285   1_455 S
O301   Zn395   1.953   .     S
O302   Zn394   1.953   .     S
O302   C506    1.280   1_455 S
O303   Zn389   1.956   .     S
O304   Zn381   1.956   .     S
O304   C904    1.277   1_545 S
O305   Zn391   1.956   .     S
O306   Zn390   1.956   .     S
O306   C506    1.277   1_455 S
O307   Zn393   1.953   .     S
O308   Zn387   1.951   .     S
O308   Zn389   1.947   .     S
O308   Zn393   1.951   .     S
O308   Zn1175  1.947   1_545 S
O309   Zn392   1.953   .     S
O309   C904    1.285   1_545 S
O310   Zn384   1.934   .     S
O311   Zn383   1.934   .     S
O312   Zn386   1.935   .     S
O313   Zn385   1.935   .     S
O314   Zn388   1.934   .     S
O315   Zn387   1.934   .     S
O316   Zn382   1.937   .     S
O317   Zn396   1.937   .     S
O318   Zn383   1.937   .     S
O319   Zn394   1.951   .     S
O319   Zn390   1.947   .     S
O319   Zn382   1.947   .     S
O319   Zn782   1.951   1_455 S
O320   Zn384   1.937   .     S
O321   Zn396   1.934   .     S
O322   Zn382   1.934   .     S
O323   Zn387   1.935   .     S
O324   Zn388   1.935   .     S
O325   Zn385   1.934   .     S
O326   Zn386   1.934   .     S
O327   Zn787   1.934   .     S
O328   Zn390   1.934   .     S
O329   Zn1185  1.935   .     S
O330   Zn395   1.951   .     S
O330   Zn385   1.951   .     S
O330   Zn391   1.947   .     S
O330   Zn792   1.947   1_455 S
O331   Zn392   1.935   .     S
O332   Zn395   1.934   .     S
O333   Zn790   1.934   .     S
O334   Zn389   1.937   .     S
O335   Zn1173  1.937   .     S
O336   Zn786   1.937   .     S
O337   Zn391   1.937   .     S
O338   Zn381   1.934   .     S
O339   Zn1181  1.934   .     S
O340   Zn394   1.935   .     S
O341   Zn388   1.953   .     S
O341   C897    1.285   .     S
O342   Zn791   1.935   .     S
O343   Zn1184  1.934   .     S
O344   Zn393   1.934   .     S
O352   Zn387   1.953   .     S
O352   C898    1.280   1_545 S
O363   Zn382   1.956   .     S
O374   Zn396   1.956   .     S
O380   Zn384   1.956   .     S
Zn381  O1127   1.937   1_545 S
Zn383  O1100   1.947   .     S
Zn386  O715    1.951   .     S
Zn388  O1089   1.951   .     S
Zn389  O1131   1.934   1_545 S
Zn390  O732    1.937   1_455 S
Zn391  O723    1.934   1_455 S
Zn392  O1135   1.934   1_545 S
Zn393  O1121   1.935   1_545 S
Zn394  O729    1.934   1_455 S
Zn395  O738    1.935   1_455 S
Zn396  O726    1.947   .     S
C397   O758    1.385   .     S
C397   C400    1.410   .     A
C397   C78     1.403   1_655 S
C398   C480    1.407   .     A
C398   C410    1.413   .     A
C398   O768    1.386   .     S
C399   C543    1.410   .     A
C399   C486    1.412   .     A
C399   C1226   1.421   1_545 S
C400   C487    1.412   .     A
C400   C34     1.421   1_655 S
C401   C432    1.422   .     A
C401   C477    1.413   .     A
C401   C489    1.417   .     A
C402   C490    1.414   .     A
C402   C488    1.408   .     A
C402   C1225   1.418   1_545 S
C403   C499    1.408   .     A
C403   C434    1.416   .     A
C403   C491    1.411   .     A
C404   C431    1.408   .     A
C404   C492    1.411   .     A
C404   C1227   1.416   .     S
C405   C442    1.408   .     A
C405   C493    1.414   .     A
C405   C436    1.418   .     A
C406   C453    1.413   .     A
C406   C494    1.417   .     A
C407   C495    1.412   .     A
C407   C464    1.410   .     A
C407   C438    1.421   .     A
C408   C554    1.410   .     A
C408   C435    1.421   .     A
C408   C496    1.412   .     A
C409   O769    1.386   .     S
C409   C411    1.408   .     A
C409   C85     1.406   1_655 S
C410   C497    1.417   .     A
C410   C1228   1.422   .     S
C411   C437    1.418   .     A
C411   C498    1.414   .     A
C412   C500    1.411   .     A
C412   C420    1.408   .     A
C413   C516    1.455   .     S
C413   C544    1.402   .     A
C413   C546    1.401   .     A
C414   C517    1.455   .     S
C414   C545    1.401   .     A
C414   C542    1.402   .     A
C415   C509    1.453   .     S
C415   C541    1.401   .     A
C415   C548    1.401   .     A
C416   C540    1.401   .     A
C416   C547    1.401   .     A
C416   C511    1.453   .     S
C417   C512    1.455   .     S
C417   C539    1.401   .     A
C417   C550    1.402   .     A
C418   C549    1.402   .     A
C418   C513    1.455   .     S
C418   C538    1.401   .     A
C419   C514    1.454   .     S
C419   C552    1.402   .     A
C419   C537    1.402   .     A
C420   O771    1.386   .     S
C421   C515    1.454   .     S
C421   C536    1.402   .     A
C421   C551    1.402   .     A
C422   C535    1.402   .     A
C422   C555    1.402   .     A
C422   C525    1.454   .     S
C423   C534    1.402   .     A
C423   C553    1.402   .     A
C423   C526    1.454   .     S
C424   C557    1.401   .     A
C424   C533    1.402   .     A
C424   C518    1.455   .     S
C425   C531    1.402   .     A
C425   C556    1.401   .     A
C425   C519    1.455   .     S
C426   C530    1.401   .     A
C426   C559    1.401   .     A
C426   C520    1.453   .     S
C427   C558    1.401   .     A
C427   C529    1.401   .     A
C427   C522    1.453   .     S
C428   C523    1.455   .     S
C428   C561    1.402   .     A
C428   C528    1.401   .     A
C429   C527    1.401   .     A
C429   C560    1.402   .     A
C429   C524    1.455   .     S
C430   C432    1.413   .     A
C430   C562    1.416   .     A
C431   O772    1.386   .     S
C431   C1271   1.403   .     S
C433   C564    1.422   .     A
C433   C434    1.413   .     A
C433   C1194   1.418   .     S
C434   C1191   1.421   .     S
C435   C1196   1.416   1_545 S
C435   C436    1.413   1_556 S
C436   C1202   1.422   1_545 S
C436   C435    1.413   1_554 S
C437   C10     1.422   1_655 S
C437   C438    1.413   1_556 S
C438   C16     1.416   1_655 S
C438   C437    1.413   1_554 S
C439   O741    1.410   .     S
C439   H622    1.113   .     S
C439   H620    1.113   .     S
C439   H621    1.109   .     S
C440   H623    1.114   .     S
C440   O742    1.410   .     S
C440   H625    1.113   .     S
C440   H624    1.109   .     S
C441   O743    1.415   .     S
C441   H626    1.115   .     S
C441   H629    1.109   .     S
C441   H628    1.109   .     S
C442   O773    1.386   .     S
C442   C1272   1.406   1_545 S
C443   H631    1.109   .     S
C443   H632    1.113   .     S
C443   H630    1.114   .     S
C443   O744    1.411   .     S
C444   H635    1.113   .     S
C444   H633    1.114   .     S
C444   O745    1.411   .     S
C444   H634    1.109   .     S
C445   H637    1.109   .     S
C445   H639    1.109   .     S
C445   O746    1.415   .     S
C445   H636    1.115   .     S
C446   O747    1.410   .     S
C446   H642    1.113   .     S
C446   H640    1.114   .     S
C446   H641    1.109   .     S
C447   O749    1.410   .     S
C447   H644    1.109   .     S
C447   H643    1.114   .     S
C447   H645    1.113   .     S
C448   H648    1.113   .     S
C448   O750    1.410   .     S
C448   H647    1.109   .     S
C448   H1438   1.114   .     S
C449   H650    1.113   .     S
C449   H652    1.109   .     S
C449   O751    1.410   .     S
C449   H651    1.114   .     S
C450   H654    1.109   .     S
C450   O752    1.415   .     S
C450   H655    1.109   .     S
C450   H653    1.115   .     S
C451   H656    1.114   .     S
C451   H658    1.113   .     S
C451   O753    1.411   .     S
C451   H657    1.109   .     S
C452   O754    1.411   .     S
C452   H659    1.114   .     S
C452   H662    1.113   .     S
C452   H661    1.109   .     S
C453   O774    1.386   .     S
C453   C481    1.407   .     A
C454   O755    1.415   .     S
C454   H664    1.109   .     S
C454   H665    1.109   .     S
C454   H663    1.115   .     S
C455   O756    1.410   .     S
C455   H668    1.109   .     S
C455   H666    1.113   .     S
C455   H667    1.114   .     S
C456   H670    1.109   .     S
C456   O757    1.410   .     S
C456   H672    1.113   .     S
C457   H674    1.113   .     S
C457   O758    1.412   .     S
C457   H673    1.112   .     S
C457   H675    1.109   .     S
C458   H677    1.111   .     S
C458   H678    1.109   .     S
C458   H676    1.113   .     S
C458   O760    1.413   .     S
C459   O761    1.414   .     S
C459   H681    1.109   .     S
C459   H680    1.112   .     S
C459   H679    1.113   .     S
C460   H684    1.113   .     S
C460   O762    1.411   .     S
C460   H683    1.113   .     S
C460   H685    1.109   .     S
C461   H686    1.113   .     S
C461   H688    1.109   .     S
C461   O763    1.411   .     S
C461   H687    1.113   .     S
C462   H690    1.112   .     S
C462   O764    1.414   .     S
C462   H691    1.109   .     S
C462   H689    1.113   .     S
C463   H692    1.113   .     S
C463   H568    1.109   .     S
C463   H567    1.111   .     S
C463   O765    1.413   .     S
C464   O775    1.385   .     S
C464   C482    1.403   .     A
C465   H569    1.112   .     S
C465   H571    1.109   .     S
C465   O766    1.412   .     S
C465   H570    1.113   .     S
C466   H572    1.112   .     S
C466   H573    1.113   .     S
C466   O767    1.412   .     S
C466   H574    1.109   .     S
C467   O768    1.413   .     S
C467   H576    1.111   .     S
C467   H575    1.113   .     S
C467   H578    1.109   .     S
C468   H580    1.112   .     S
C468   H581    1.109   .     S
C468   O769    1.414   .     S
C468   H183    1.113   1_655 S
C469   H582    1.113   .     S
C469   H584    1.109   .     S
C469   H583    1.113   .     S
C469   O771    1.411   .     S
C470   H586    1.113   .     S
C470   H587    1.109   .     S
C470   H585    1.113   .     S
C470   O772    1.411   .     S
C471   O773    1.414   .     S
C471   H590    1.112   .     S
C471   H591    1.109   .     S
C471   H1381   1.113   1_545 S
C472   H593    1.111   .     S
C472   H592    1.113   .     S
C472   O774    1.413   .     S
C472   H594    1.109   .     S
C473   O775    1.412   .     S
C473   H597    1.109   .     S
C473   H596    1.113   .     S
C473   H595    1.112   .     S
C474   C510    1.403   .     A
C474   C503    1.460   .     S
C475   C504    1.468   .     S
C475   C521    1.406   .     A
C475   C81     1.407   1_655 S
C476   C488    1.406   .     A
C476   C501    1.468   .     S
C476   C1324   1.407   1_545 S
C477   O760    1.386   .     S
C478   C502    1.460   .     S
C478   C499    1.403   .     A
C478   C1335   1.403   .     S
C479   C507    1.460   .     S
C479   C554    1.403   .     A
C479   C1223   1.403   1_545 S
C480   C508    1.468   .     S
C480   C1234   1.406   .     S
C481   C505    1.468   .     S
C482   C506    1.460   .     S
C482   C24     1.403   1_655 S
C483   C489    1.404   .     A
C483   O741    1.383   .     S
C483   C562    1.411   .     A
C484   O742    1.384   .     S
C484   C487    1.396   .     A
C484   C563    1.414   .     A
C485   C491    1.404   .     A
C485   C564    1.417   .     A
C485   O743    1.389   .     S
C486   C490    1.396   .     A
C486   O744    1.384   .     S
C487   O745    1.384   .     S
C488   O761    1.386   .     S
C489   O746    1.389   .     S
C490   O747    1.384   .     S
C491   O749    1.383   .     S
C492   O750    1.383   .     S
C492   C497    1.404   1_556 S
C493   O751    1.384   .     S
C493   C496    1.396   1_554 S
C494   O752    1.389   .     S
C494   C500    1.404   1_556 S
C495   O753    1.384   .     S
C495   C498    1.396   1_554 S
C496   O754    1.384   .     S
C496   C493    1.396   1_556 S
C497   O755    1.389   .     S
C497   C492    1.404   1_554 S
C498   O756    1.384   .     S
C498   C495    1.396   1_556 S
C499   O762    1.386   .     S
C500   O757    1.383   .     S
C500   C494    1.404   1_554 S
C501   O776    1.277   .     A
C501   O1529   1.285   1_545 S
C502   O694    1.277   .     A
C502   O1540   1.280   .     S
C503   O759    1.277   .     A
C504   O770    1.277   .     A
C504   O300    1.285   1_655 S
C505   O701    1.277   .     A
C505   O697    1.285   .     A
C506   O302    1.280   1_655 S
C506   O306    1.277   1_655 S
C507   O703    1.280   .     A
C507   O699    1.277   .     A
C508   O1492   1.277   .     S
C508   O1497   1.285   .     S
C509   O706    1.281   .     A
C509   O734    1.281   .     A
C510   O763    1.386   .     S
C510   C562    1.408   .     A
C511   O707    1.281   .     A
C511   O735    1.281   .     A
C512   O732    1.283   .     A
C512   O708    1.282   .     A
C513   O733    1.283   .     A
C513   O709    1.282   .     A
C514   O710    1.284   .     A
C514   O739    1.284   .     A
C515   O740    1.284   .     A
C515   O711    1.284   .     A
C516   O712    1.283   .     A
C516   O736    1.282   .     A
C517   O713    1.283   .     A
C517   O738    1.282   .     A
C518   O725    1.282   .     A
C518   O714    1.283   .     A
C519   O727    1.282   .     A
C519   O716    1.283   .     A
C520   O717    1.281   .     A
C520   O723    1.281   .     A
C521   C563    1.408   .     A
C521   O764    1.386   .     S
C522   O718    1.281   .     A
C522   O724    1.281   .     A
C523   O719    1.282   .     A
C523   O730    1.283   .     A
C524   O731    1.283   .     A
C524   O720    1.282   .     A
C525   O728    1.284   .     A
C525   O721    1.284   .     A
C526   O729    1.284   .     A
C526   O722    1.284   .     A
C527   H565    1.083   .     S
C527   C544    1.386   .     A
C528   H605    1.083   .     S
C528   C542    1.386   .     A
C529   C541    1.385   .     A
C529   H616    1.083   .     S
C530   C540    1.385   .     A
C530   H627    1.083   .     S
C531   C539    1.386   .     A
C531   H638    1.083   .     S
C532   O765    1.386   .     S
C532   C564    1.413   .     A
C532   C1268   1.407   .     S
C533   C538    1.386   .     A
C533   H649    1.083   .     S
C534   C537    1.385   .     A
C534   H660    1.083   .     S
C535   C536    1.385   .     A
C535   H671    1.083   .     S
C536   H682    1.083   .     S
C537   H566    1.083   .     S
C538   H577    1.083   .     S
C539   H588    1.083   .     S
C540   H598    1.083   .     S
C541   H599    1.083   .     S
C542   H600    1.083   .     S
C543   O766    1.385   .     S
C543   C1270   1.403   1_545 S
C544   H601    1.083   .     S
C545   H602    1.083   .     S
C545   C561    1.386   .     A
C546   C560    1.386   .     A
C546   H603    1.083   .     S
C547   H604    1.083   .     S
C547   C559    1.385   .     A
C548   H606    1.083   .     S
C548   C558    1.385   .     A
C549   C557    1.386   .     A
C549   H607    1.083   .     S
C550   H608    1.083   .     S
C550   C556    1.386   .     A
C551   C555    1.385   .     A
C551   H609    1.083   .     S
C552   C553    1.385   .     A
C552   H610    1.083   .     S
C553   H611    1.083   .     S
C554   O767    1.385   .     S
C555   H612    1.083   .     S
C556   H613    1.083   .     S
C557   H614    1.083   .     S
C558   H615    1.083   .     S
C559   H617    1.083   .     S
C560   H618    1.083   .     S
C561   H619    1.083   .     S
C563   C36     1.418   1_655 S
H589   C1263   1.113   .     S
H646   C1240   1.114   1_545 S
H669   C60     1.113   1_655 S
O693   Zn780   1.947   .     S
O693   Zn788   1.951   .     S
O693   Zn777   1.947   .     S
O693   Zn1576  1.951   1_545 S
O694   Zn779   1.956   .     S
O695   Zn782   1.953   .     S
O695   C107    1.280   1_655 S
O696   Zn781   1.953   .     S
O697   Zn791   1.953   .     S
O698   Zn790   1.953   .     S
O699   Zn785   1.956   .     S
O700   Zn777   1.956   .     S
O700   C1300   1.277   1_545 S
O701   Zn787   1.956   .     S
O702   Zn786   1.956   .     S
O703   Zn789   1.953   .     S
O704   Zn783   1.951   .     S
O704   Zn785   1.947   .     S
O704   Zn789   1.951   .     S
O704   Zn1571  1.947   1_545 S
O705   Zn788   1.953   .     S
O705   C1300   1.285   1_545 S
O706   Zn780   1.934   .     S
O707   Zn779   1.934   .     S
O708   Zn782   1.935   .     S
O709   Zn781   1.935   .     S
O710   Zn784   1.934   .     S
O711   Zn783   1.934   .     S
O712   Zn778   1.937   .     S
O713   Zn792   1.937   .     S
O714   Zn779   1.937   .     S
O715   Zn790   1.951   .     S
O715   Zn786   1.947   .     S
O715   Zn778   1.947   .     S
O716   Zn780   1.937   .     S
O717   Zn792   1.934   .     S
O718   Zn778   1.934   .     S
O719   Zn783   1.935   .     S
O720   Zn784   1.935   .     S
O721   Zn781   1.934   .     S
O722   Zn782   1.934   .     S
O723   Zn391   1.934   1_655 S
O724   Zn786   1.934   .     S
O725   Zn1581  1.935   .     S
O726   Zn791   1.951   .     S
O726   Zn781   1.951   .     S
O726   Zn787   1.947   .     S
O727   Zn788   1.935   .     S
O728   Zn791   1.934   .     S
O729   Zn394   1.934   1_655 S
O730   Zn785   1.937   .     S
O731   Zn1569  1.937   .     S
O732   Zn390   1.937   1_655 S
O733   Zn787   1.937   .     S
O734   Zn777   1.934   .     S
O735   Zn1577  1.934   .     S
O736   Zn790   1.935   .     S
O737   Zn784   1.953   .     S
O737   C1293   1.285   .     S
O738   Zn395   1.935   1_655 S
O739   Zn1580  1.934   .     S
O740   Zn789   1.934   .     S
O748   Zn783   1.953   .     S
O748   C1294   1.280   1_545 S
O759   Zn778   1.956   .     S
O770   Zn792   1.956   .     S
O776   Zn780   1.956   .     S
Zn777  O1523   1.937   1_545 S
Zn779  O1496   1.947   .     S
Zn782  O319    1.951   1_655 S
Zn784  O1485   1.951   .     S
Zn785  O1527   1.934   1_545 S
Zn788  O1531   1.934   1_545 S
Zn789  O1517   1.935   1_545 S
Zn792  O330    1.947   1_655 S
C793   O1154   1.385   .     S
C793   C796    1.410   .     A
C793   C1266   1.403   .     S
C794   C876    1.407   .     A
C794   C806    1.413   .     A
C794   O1164   1.386   .     S
C795   C939    1.410   .     A
C795   C882    1.412   .     A
C796   C883    1.412   .     A
C796   C1222   1.421   .     S
C797   C828    1.422   .     A
C797   C873    1.413   .     A
C797   C885    1.417   .     A
C798   C886    1.414   .     A
C798   C884    1.408   .     A
C799   C895    1.408   .     A
C799   C830    1.416   .     A
C799   C887    1.411   .     A
C800   C827    1.408   .     A
C800   C888    1.411   .     A
C800   C39     1.416   1_565 S
C801   C838    1.408   .     A
C801   C889    1.414   .     A
C801   C832    1.418   .     A
C802   C849    1.413   .     A
C802   C890    1.417   .     A
C802   C1229   1.422   1_455 S
C803   C891    1.412   .     A
C803   C860    1.410   .     A
C803   C834    1.421   .     A
C804   C950    1.410   .     A
C804   C831    1.421   .     A
C804   C892    1.412   .     A
C805   O1165   1.386   .     S
C805   C807    1.408   .     A
C805   C1273   1.406   .     S
C806   C893    1.417   .     A
C806   C40     1.422   1_565 S
C807   C833    1.418   .     A
C807   C894    1.414   .     A
C808   C896    1.411   .     A
C808   C816    1.408   .     A
C808   C1230   1.416   1_455 S
C809   C912    1.455   .     S
C809   C940    1.402   .     A
C809   C942    1.401   .     A
C810   C913    1.455   .     S
C810   C941    1.401   .     A
C810   C938    1.402   .     A
C811   C905    1.453   .     S
C811   C937    1.401   .     A
C811   C944    1.401   .     A
C812   C936    1.401   .     A
C812   C943    1.401   .     A
C812   C907    1.453   .     S
C813   C908    1.455   .     S
C813   C935    1.401   .     A
C813   C946    1.402   .     A
C814   C945    1.402   .     A
C814   C909    1.455   .     S
C814   C934    1.401   .     A
C815   C910    1.454   .     S
C815   C948    1.402   .     A
C815   C933    1.402   .     A
C816   O1167   1.386   .     S
C816   C1274   1.403   1_455 S
C817   C911    1.454   .     S
C817   C932    1.402   .     A
C817   C947    1.402   .     A
C818   C931    1.402   .     A
C818   C951    1.402   .     A
C818   C921    1.454   .     S
C819   C930    1.402   .     A
C819   C949    1.402   .     A
C819   C922    1.454   .     S
C820   C953    1.401   .     A
C820   C929    1.402   .     A
C820   C914    1.455   .     S
C821   C927    1.402   .     A
C821   C952    1.401   .     A
C821   C915    1.455   .     S
C822   C926    1.401   .     A
C822   C955    1.401   .     A
C822   C916    1.453   .     S
C823   C954    1.401   .     A
C823   C925    1.401   .     A
C823   C918    1.453   .     S
C824   C919    1.455   .     S
C824   C957    1.402   .     A
C824   C924    1.401   .     A
C825   C923    1.401   .     A
C825   C956    1.402   .     A
C825   C920    1.455   .     S
C826   C828    1.413   .     A
C826   C958    1.416   .     A
C826   C1192   1.421   1_455 S
C827   O1168   1.386   .     S
C827   C83     1.403   1_565 S
C828   C1355   1.418   1_455 S
C829   C960    1.422   .     A
C829   C830    1.413   .     A
C829   C6      1.418   1_565 S
C830   C3      1.421   1_565 S
C831   C832    1.413   1_556 S
C832   C831    1.413   1_554 S
C833   C1198   1.422   .     S
C833   C834    1.413   1_556 S
C834   C1204   1.416   .     S
C834   C833    1.413   1_554 S
C835   O1137   1.410   .     S
C835   H1018   1.113   .     S
C835   H1016   1.113   .     S
C835   H1017   1.109   .     S
C836   H1019   1.114   .     S
C836   O1138   1.410   .     S
C836   H1021   1.113   .     S
C836   H1020   1.109   .     S
C837   O1139   1.415   .     S
C837   H1022   1.115   .     S
C837   H1025   1.109   .     S
C837   H1024   1.109   .     S
C838   O1169   1.386   .     S
C839   H1027   1.109   .     S
C839   H1028   1.113   .     S
C839   H1026   1.114   .     S
C839   O1140   1.411   .     S
C840   H1031   1.113   .     S
C840   H1029   1.114   .     S
C840   O1141   1.411   .     S
C840   H1030   1.109   .     S
C841   H1033   1.109   .     S
C841   H1035   1.109   .     S
C841   O1142   1.415   .     S
C841   H1032   1.115   .     S
C842   O1143   1.410   .     S
C842   H1038   1.113   .     S
C842   H1036   1.114   .     S
C842   H1037   1.109   .     S
C843   O1145   1.410   .     S
C843   H1040   1.109   .     S
C843   H1039   1.114   .     S
C843   H1041   1.113   .     S
C844   H1044   1.113   .     S
C844   O1146   1.410   .     S
C844   H1043   1.109   .     S
C844   H250    1.114   1_565 S
C845   H1046   1.113   .     S
C845   H1048   1.109   .     S
C845   O1147   1.410   .     S
C845   H1047   1.114   .     S
C846   H1050   1.109   .     S
C846   O1148   1.415   .     S
C846   H1051   1.109   .     S
C846   H1049   1.115   .     S
C847   H1052   1.114   .     S
C847   H1054   1.113   .     S
C847   O1149   1.411   .     S
C847   H1053   1.109   .     S
C848   O1150   1.411   .     S
C848   H1055   1.114   .     S
C848   H1058   1.113   .     S
C848   H1057   1.109   .     S
C849   O1170   1.386   .     S
C849   C877    1.407   .     A
C850   O1151   1.415   .     S
C850   H1060   1.109   .     S
C850   H1061   1.109   .     S
C850   H1059   1.115   .     S
C851   O1152   1.410   .     S
C851   H1064   1.109   .     S
C851   H1062   1.113   .     S
C851   H1063   1.114   .     S
C852   H1066   1.109   .     S
C852   O1153   1.410   .     S
C852   H1068   1.113   .     S
C852   H1461   1.113   1_455 S
C853   H1070   1.113   .     S
C853   O1154   1.412   .     S
C853   H1069   1.112   .     S
C853   H1071   1.109   .     S
C854   H1073   1.111   .     S
C854   H1074   1.109   .     S
C854   H1072   1.113   .     S
C854   O1156   1.413   .     S
C855   O1157   1.414   .     S
C855   H1077   1.109   .     S
C855   H1076   1.112   .     S
C855   H1075   1.113   .     S
C856   H1080   1.113   .     S
C856   O1158   1.411   .     S
C856   H1079   1.113   .     S
C856   H1081   1.109   .     S
C857   H1082   1.113   .     S
C857   H1084   1.109   .     S
C857   O1159   1.411   .     S
C857   H1083   1.113   .     S
C858   H1086   1.112   .     S
C858   O1160   1.414   .     S
C858   H1087   1.109   .     S
C858   H1085   1.113   .     S
C859   H1088   1.113   .     S
C859   H964    1.109   .     S
C859   H963    1.111   .     S
C859   O1161   1.413   .     S
C860   O1171   1.385   .     S
C860   C878    1.403   .     A
C861   H965    1.112   .     S
C861   H967    1.109   .     S
C861   O1162   1.412   .     S
C861   H966    1.113   .     S
C862   H968    1.112   .     S
C862   H969    1.113   .     S
C862   O1163   1.412   .     S
C862   H970    1.109   .     S
C863   O1164   1.413   .     S
C863   H972    1.111   .     S
C863   H971    1.113   .     S
C863   H974    1.109   .     S
C864   H976    1.112   .     S
C864   H977    1.109   .     S
C864   O1165   1.414   .     S
C864   H1371   1.113   .     S
C865   H978    1.113   .     S
C865   H980    1.109   .     S
C865   H979    1.113   .     S
C865   O1167   1.411   .     S
C866   H982    1.113   .     S
C866   H983    1.109   .     S
C866   H981    1.113   .     S
C866   O1168   1.411   .     S
C867   O1169   1.414   .     S
C867   H986    1.112   .     S
C867   H987    1.109   .     S
C868   H989    1.111   .     S
C868   H988    1.113   .     S
C868   O1170   1.413   .     S
C868   H990    1.109   .     S
C869   O1171   1.412   .     S
C869   H993    1.109   .     S
C869   H992    1.113   .     S
C869   H991    1.112   .     S
C870   C906    1.403   .     A
C870   C899    1.460   .     S
C870   C1189   1.403   1_455 S
C871   C900    1.468   .     S
C871   C917    1.406   .     A
C871   C1269   1.407   .     S
C872   C884    1.406   .     A
C872   C897    1.468   .     S
C873   O1156   1.386   .     S
C873   C1267   1.407   1_455 S
C874   C898    1.460   .     S
C874   C895    1.403   .     A
C874   C147    1.403   1_565 S
C875   C903    1.460   .     S
C875   C950    1.403   .     A
C876   C904    1.468   .     S
C876   C46     1.406   1_565 S
C877   C901    1.468   .     S
C877   C1201   1.406   1_455 S
C878   C902    1.460   .     S
C878   C1212   1.403   .     S
C879   C885    1.404   .     A
C879   O1137   1.383   .     S
C879   C958    1.411   .     A
C880   O1138   1.384   .     S
C880   C883    1.396   .     A
C880   C959    1.414   .     A
C881   C887    1.404   .     A
C881   C960    1.417   .     A
C881   O1139   1.389   .     S
C882   C886    1.396   .     A
C882   O1140   1.384   .     S
C883   O1141   1.384   .     S
C884   O1157   1.386   .     S
C885   O1142   1.389   .     S
C886   O1143   1.384   .     S
C887   O1145   1.383   .     S
C888   O1146   1.383   .     S
C888   C893    1.404   1_556 S
C889   O1147   1.384   .     S
C889   C892    1.396   1_554 S
C890   O1148   1.389   .     S
C890   C896    1.404   1_556 S
C891   O1149   1.384   .     S
C891   C894    1.396   1_554 S
C892   O1150   1.384   .     S
C892   C889    1.396   1_556 S
C893   O1151   1.389   .     S
C893   C888    1.404   1_554 S
C894   O1152   1.384   .     S
C894   C891    1.396   1_556 S
C895   O1158   1.386   .     S
C896   O1153   1.383   .     S
C896   C890    1.404   1_554 S
C897   O1172   1.277   .     A
C898   O1090   1.277   .     A
C898   O352    1.280   1_565 S
C899   O1155   1.277   .     A
C899   O1487   1.280   1_455 S
C900   O1166   1.277   .     A
C900   O1488   1.285   .     S
C901   O1097   1.277   .     A
C901   O1093   1.285   .     A
C902   O1490   1.280   .     S
C902   O1494   1.277   .     S
C903   O1099   1.280   .     A
C903   O1095   1.277   .     A
C904   O304    1.277   1_565 S
C904   O309    1.285   1_565 S
C905   O1102   1.281   .     A
C905   O1130   1.281   .     A
C906   O1159   1.386   .     S
C906   C958    1.408   .     A
C907   O1103   1.281   .     A
C907   O1131   1.281   .     A
C908   O1128   1.283   .     A
C908   O1104   1.282   .     A
C909   O1129   1.283   .     A
C909   O1105   1.282   .     A
C910   O1106   1.284   .     A
C910   O1135   1.284   .     A
C911   O1136   1.284   .     A
C911   O1107   1.284   .     A
C912   O1108   1.283   .     A
C912   O1132   1.282   .     A
C913   O1109   1.283   .     A
C913   O1134   1.282   .     A
C914   O1121   1.282   .     A
C914   O1110   1.283   .     A
C915   O1123   1.282   .     A
C915   O1112   1.283   .     A
C916   O1113   1.281   .     A
C916   O1119   1.281   .     A
C917   C959    1.408   .     A
C917   O1160   1.386   .     S
C918   O1114   1.281   .     A
C918   O1120   1.281   .     A
C919   O1115   1.282   .     A
C919   O1126   1.283   .     A
C920   O1127   1.283   .     A
C920   O1116   1.282   .     A
C921   O1124   1.284   .     A
C921   O1117   1.284   .     A
C922   O1125   1.284   .     A
C922   O1118   1.284   .     A
C923   H961    1.083   .     S
C923   C940    1.386   .     A
C924   H1001   1.083   .     S
C924   C938    1.386   .     A
C925   C937    1.385   .     A
C925   H1012   1.083   .     S
C926   C936    1.385   .     A
C926   H1023   1.083   .     S
C927   C935    1.386   .     A
C927   H1034   1.083   .     S
C928   O1161   1.386   .     S
C928   C960    1.413   .     A
C928   C80     1.407   1_565 S
C929   C934    1.386   .     A
C929   H1045   1.083   .     S
C930   C933    1.385   .     A
C930   H1056   1.083   .     S
C931   C932    1.385   .     A
C931   H1067   1.083   .     S
C932   H1078   1.083   .     S
C933   H962    1.083   .     S
C934   H973    1.083   .     S
C935   H984    1.083   .     S
C936   H994    1.083   .     S
C937   H995    1.083   .     S
C938   H996    1.083   .     S
C939   O1162   1.385   .     S
C940   H997    1.083   .     S
C941   H998    1.083   .     S
C941   C957    1.386   .     A
C942   C956    1.386   .     A
C942   H999    1.083   .     S
C943   H1000   1.083   .     S
C943   C955    1.385   .     A
C944   H1002   1.083   .     S
C944   C954    1.385   .     A
C945   C953    1.386   .     A
C945   H1003   1.083   .     S
C946   H1004   1.083   .     S
C946   C952    1.386   .     A
C947   C951    1.385   .     A
C947   H1005   1.083   .     S
C948   C949    1.385   .     A
C948   H1006   1.083   .     S
C949   H1007   1.083   .     S
C950   O1163   1.385   .     S
C951   H1008   1.083   .     S
C952   H1009   1.083   .     S
C953   H1010   1.083   .     S
C954   H1011   1.083   .     S
C955   H1013   1.083   .     S
C956   H1014   1.083   .     S
C957   H1015   1.083   .     S
C959   C1224   1.418   .     S
H975   C1260   1.113   1_455 S
H985   C75     1.113   1_565 S
H1065  C1248   1.113   .     S
O1089  Zn1176  1.947   .     S
O1089  Zn1184  1.951   .     S
O1089  Zn1173  1.947   .     S
O1090  Zn1175  1.956   .     S
O1091  Zn1178  1.953   .     S
O1091  C1295   1.280   .     S
O1092  Zn1177  1.953   .     S
O1092  C1296   1.285   1_455 S
O1093  Zn1187  1.953   .     S
O1094  Zn1186  1.953   .     S
O1094  C1298   1.280   1_455 S
O1095  Zn1181  1.956   .     S
O1096  Zn1173  1.956   .     S
O1097  Zn1183  1.956   .     S
O1098  Zn1182  1.956   .     S
O1098  C1298   1.277   1_455 S
O1099  Zn1185  1.953   .     S
O1100  Zn1179  1.951   .     S
O1100  Zn1181  1.947   .     S
O1100  Zn1185  1.951   .     S
O1101  Zn1184  1.953   .     S
O1102  Zn1176  1.934   .     S
O1103  Zn1175  1.934   .     S
O1104  Zn1178  1.935   .     S
O1105  Zn1177  1.935   .     S
O1106  Zn1180  1.934   .     S
O1107  Zn1179  1.934   .     S
O1108  Zn1174  1.937   .     S
O1109  Zn1188  1.937   .     S
O1110  Zn1175  1.937   .     S
O1111  Zn1186  1.951   .     S
O1111  Zn1182  1.947   .     S
O1111  Zn1174  1.947   .     S
O1111  Zn1574  1.951   1_455 S
O1112  Zn1176  1.937   .     S
O1113  Zn1188  1.934   .     S
O1114  Zn1174  1.934   .     S
O1115  Zn1179  1.935   .     S
O1116  Zn1180  1.935   .     S
O1117  Zn1177  1.934   .     S
O1118  Zn1178  1.934   .     S
O1119  Zn1579  1.934   .     S
O1120  Zn1182  1.934   .     S
O1121  Zn393   1.935   1_565 S
O1122  Zn1187  1.951   .     S
O1122  Zn1177  1.951   .     S
O1122  Zn1183  1.947   .     S
O1122  Zn1584  1.947   1_455 S
O1123  Zn1184  1.935   .     S
O1124  Zn1187  1.934   .     S
O1125  Zn1582  1.934   .     S
O1126  Zn1181  1.937   .     S
O1127  Zn381   1.937   1_565 S
O1128  Zn1578  1.937   .     S
O1129  Zn1183  1.937   .     S
O1130  Zn1173  1.934   .     S
O1131  Zn389   1.934   1_565 S
O1132  Zn1186  1.935   .     S
O1133  Zn1180  1.953   .     S
O1133  C105    1.285   1_565 S
O1134  Zn1583  1.935   .     S
O1135  Zn392   1.934   1_565 S
O1136  Zn1185  1.934   .     S
O1144  Zn1179  1.953   .     S
O1155  Zn1174  1.956   .     S
O1166  Zn1188  1.956   .     S
O1172  Zn1176  1.956   .     S
Zn1175 O308    1.947   1_565 S
Zn1178 O1507   1.951   .     S
Zn1180 O297    1.951   1_565 S
Zn1182 O1524   1.937   1_455 S
Zn1183 O1515   1.934   1_455 S
Zn1186 O1521   1.934   1_455 S
Zn1187 O1530   1.935   1_455 S
Zn1188 O1518   1.947   .     S
C1189  O1550   1.385   .     S
C1189  C1192   1.410   .     A
C1189  C870    1.403   1_655 S
C1190  C1272   1.407   .     A
C1190  C1202   1.413   .     A
C1190  O1560   1.386   .     S
C1191  C1335   1.410   .     A
C1191  C1278   1.412   .     A
C1192  C1279   1.412   .     A
C1192  C826    1.421   1_655 S
C1193  C1224   1.422   .     A
C1193  C1269   1.413   .     A
C1193  C1281   1.417   .     A
C1194  C1282   1.414   .     A
C1194  C1280   1.408   .     A
C1195  C1291   1.408   .     A
C1195  C1226   1.416   .     A
C1195  C1283   1.411   .     A
C1196  C1223   1.408   .     A
C1196  C1284   1.411   .     A
C1196  C435    1.416   1_565 S
C1197  C1234   1.408   .     A
C1197  C1285   1.414   .     A
C1197  C1228   1.418   .     A
C1198  C1245   1.413   .     A
C1198  C1286   1.417   .     A
C1199  C1287   1.412   .     A
C1199  C1256   1.410   .     A
C1199  C1230   1.421   .     A
C1200  C1346   1.410   .     A
C1200  C1227   1.421   .     A
C1200  C1288   1.412   .     A
C1201  O1561   1.386   .     S
C1201  C1203   1.408   .     A
C1201  C877    1.406   1_655 S
C1202  C1289   1.417   .     A
C1202  C436    1.422   1_565 S
C1203  C1229   1.418   .     A
C1203  C1290   1.414   .     A
C1204  C1292   1.411   .     A
C1204  C1212   1.408   .     A
C1205  C1308   1.455   .     S
C1205  C1336   1.402   .     A
C1205  C1338   1.401   .     A
C1206  C1309   1.455   .     S
C1206  C1337   1.401   .     A
C1206  C1334   1.402   .     A
C1207  C1301   1.453   .     S
C1207  C1333   1.401   .     A
C1207  C1340   1.401   .     A
C1208  C1332   1.401   .     A
C1208  C1339   1.401   .     A
C1208  C1303   1.453   .     S
C1209  C1304   1.455   .     S
C1209  C1331   1.401   .     A
C1209  C1342   1.402   .     A
C1210  C1341   1.402   .     A
C1210  C1305   1.455   .     S
C1210  C1330   1.401   .     A
C1211  C1306   1.454   .     S
C1211  C1344   1.402   .     A
C1211  C1329   1.402   .     A
C1212  O1563   1.386   .     S
C1213  C1307   1.454   .     S
C1213  C1328   1.402   .     A
C1213  C1343   1.402   .     A
C1214  C1327   1.402   .     A
C1214  C1347   1.402   .     A
C1214  C1317   1.454   .     S
C1215  C1326   1.402   .     A
C1215  C1345   1.402   .     A
C1215  C1318   1.454   .     S
C1216  C1349   1.401   .     A
C1216  C1325   1.402   .     A
C1216  C1310   1.455   .     S
C1217  C1323   1.402   .     A
C1217  C1348   1.401   .     A
C1217  C1311   1.455   .     S
C1218  C1322   1.401   .     A
C1218  C1351   1.401   .     A
C1218  C1312   1.453   .     S
C1219  C1350   1.401   .     A
C1219  C1321   1.401   .     A
C1219  C1314   1.453   .     S
C1220  C1315   1.455   .     S
C1220  C1353   1.402   .     A
C1220  C1320   1.401   .     A
C1221  C1319   1.401   .     A
C1221  C1352   1.402   .     A
C1221  C1316   1.455   .     S
C1222  C1224   1.413   .     A
C1222  C1354   1.416   .     A
C1223  O1564   1.386   .     S
C1223  C479    1.403   1_565 S
C1225  C1356   1.422   .     A
C1225  C1226   1.413   .     A
C1225  C402    1.418   1_565 S
C1226  C399    1.421   1_565 S
C1227  C1228   1.413   1_556 S
C1228  C1227   1.413   1_554 S
C1229  C802    1.422   1_655 S
C1229  C1230   1.413   1_556 S
C1230  C808    1.416   1_655 S
C1230  C1229   1.413   1_554 S
C1231  O1533   1.410   .     S
C1231  H1414   1.113   .     S
C1231  H1412   1.113   .     S
C1231  H1413   1.109   .     S
C1232  H1415   1.114   .     S
C1232  O1534   1.410   .     S
C1232  H1417   1.113   .     S
C1232  H1416   1.109   .     S
C1233  O1535   1.415   .     S
C1233  H1418   1.115   .     S
C1233  H1421   1.109   .     S
C1233  H1420   1.109   .     S
C1234  O1565   1.386   .     S
C1235  H1423   1.109   .     S
C1235  H1424   1.113   .     S
C1235  H1422   1.114   .     S
C1235  O1536   1.411   .     S
C1236  H1427   1.113   .     S
C1236  H1425   1.114   .     S
C1236  O1537   1.411   .     S
C1236  H1426   1.109   .     S
C1237  H1429   1.109   .     S
C1237  H1431   1.109   .     S
C1237  O1538   1.415   .     S
C1237  H1428   1.115   .     S
C1238  O1539   1.410   .     S
C1238  H1434   1.113   .     S
C1238  H1432   1.114   .     S
C1238  H1433   1.109   .     S
C1239  O1541   1.410   .     S
C1239  H1436   1.109   .     S
C1239  H1435   1.114   .     S
C1239  H1437   1.113   .     S
C1240  H1440   1.113   .     S
C1240  O1542   1.410   .     S
C1240  H1439   1.109   .     S
C1240  H646    1.114   1_565 S
C1241  H1442   1.113   .     S
C1241  H1444   1.109   .     S
C1241  O1543   1.410   .     S
C1241  H1443   1.114   .     S
C1242  H1446   1.109   .     S
C1242  O1544   1.415   .     S
C1242  H1447   1.109   .     S
C1242  H1445   1.115   .     S
C1243  H1448   1.114   .     S
C1243  H1450   1.113   .     S
C1243  O1545   1.411   .     S
C1243  H1449   1.109   .     S
C1244  O1546   1.411   .     S
C1244  H1451   1.114   .     S
C1244  H1454   1.113   .     S
C1244  H1453   1.109   .     S
C1245  O1566   1.386   .     S
C1245  C1273   1.407   .     A
C1246  O1547   1.415   .     S
C1246  H1456   1.109   .     S
C1246  H1457   1.109   .     S
C1246  H1455   1.115   .     S
C1247  O1548   1.410   .     S
C1247  H1460   1.109   .     S
C1247  H1458   1.113   .     S
C1247  H1459   1.114   .     S
C1248  H1462   1.109   .     S
C1248  O1549   1.410   .     S
C1248  H1464   1.113   .     S
C1249  H1466   1.113   .     S
C1249  O1550   1.412   .     S
C1249  H1465   1.112   .     S
C1249  H1467   1.109   .     S
C1250  H1469   1.111   .     S
C1250  H1470   1.109   .     S
C1250  H1468   1.113   .     S
C1250  O1552   1.413   .     S
C1251  O1553   1.414   .     S
C1251  H1473   1.109   .     S
C1251  H1472   1.112   .     S
C1251  H1471   1.113   .     S
C1252  H1476   1.113   .     S
C1252  O1554   1.411   .     S
C1252  H1475   1.113   .     S
C1252  H1477   1.109   .     S
C1253  H1478   1.113   .     S
C1253  H1480   1.109   .     S
C1253  O1555   1.411   .     S
C1253  H1479   1.113   .     S
C1254  H1482   1.112   .     S
C1254  O1556   1.414   .     S
C1254  H1483   1.109   .     S
C1254  H1481   1.113   .     S
C1255  H1484   1.113   .     S
C1255  H1360   1.109   .     S
C1255  H1359   1.111   .     S
C1255  O1557   1.413   .     S
C1256  O1567   1.385   .     S
C1256  C1274   1.403   .     A
C1257  H1361   1.112   .     S
C1257  H1363   1.109   .     S
C1257  O1558   1.412   .     S
C1257  H1362   1.113   .     S
C1258  H1364   1.112   .     S
C1258  H1365   1.113   .     S
C1258  O1559   1.412   .     S
C1258  H1366   1.109   .     S
C1259  O1560   1.413   .     S
C1259  H1368   1.111   .     S
C1259  H1367   1.113   .     S
C1259  H1370   1.109   .     S
C1260  H1372   1.112   .     S
C1260  H1373   1.109   .     S
C1260  O1561   1.414   .     S
C1260  H975    1.113   1_655 S
C1261  H1374   1.113   .     S
C1261  H1376   1.109   .     S
C1261  H1375   1.113   .     S
C1261  O1563   1.411   .     S
C1262  H1378   1.113   .     S
C1262  H1379   1.109   .     S
C1262  H1377   1.113   .     S
C1262  O1564   1.411   .     S
C1263  O1565   1.414   .     S
C1263  H1382   1.112   .     S
C1263  H1383   1.109   .     S
C1264  H1385   1.111   .     S
C1264  H1384   1.113   .     S
C1264  O1566   1.413   .     S
C1264  H1386   1.109   .     S
C1265  O1567   1.412   .     S
C1265  H1389   1.109   .     S
C1265  H1388   1.113   .     S
C1265  H1387   1.112   .     S
C1266  C1302   1.403   .     A
C1266  C1295   1.460   .     S
C1267  C1296   1.468   .     S
C1267  C1313   1.406   .     A
C1267  C873    1.407   1_655 S
C1268  C1280   1.406   .     A
C1268  C1293   1.468   .     S
C1269  O1552   1.386   .     S
C1270  C1294   1.460   .     S
C1270  C1291   1.403   .     A
C1270  C543    1.403   1_565 S
C1271  C1299   1.460   .     S
C1271  C1346   1.403   .     A
C1272  C1300   1.468   .     S
C1272  C442    1.406   1_565 S
C1273  C1297   1.468   .     S
C1274  C1298   1.460   .     S
C1274  C816    1.403   1_655 S
C1275  C1281   1.404   .     A
C1275  O1533   1.383   .     S
C1275  C1354   1.411   .     A
C1276  O1534   1.384   .     S
C1276  C1279   1.396   .     A
C1276  C1355   1.414   .     A
C1277  C1283   1.404   .     A
C1277  C1356   1.417   .     A
C1277  O1535   1.389   .     S
C1278  C1282   1.396   .     A
C1278  O1536   1.384   .     S
C1279  O1537   1.384   .     S
C1280  O1553   1.386   .     S
C1281  O1538   1.389   .     S
C1282  O1539   1.384   .     S
C1283  O1541   1.383   .     S
C1284  O1542   1.383   .     S
C1284  C1289   1.404   1_556 S
C1285  O1543   1.384   .     S
C1285  C1288   1.396   1_554 S
C1286  O1544   1.389   .     S
C1286  C1292   1.404   1_556 S
C1287  O1545   1.384   .     S
C1287  C1290   1.396   1_554 S
C1288  O1546   1.384   .     S
C1288  C1285   1.396   1_556 S
C1289  O1547   1.389   .     S
C1289  C1284   1.404   1_554 S
C1290  O1548   1.384   .     S
C1290  C1287   1.396   1_556 S
C1291  O1554   1.386   .     S
C1292  O1549   1.383   .     S
C1292  C1286   1.404   1_554 S
C1293  O1568   1.277   .     A
C1294  O1486   1.277   .     A
C1294  O748    1.280   1_565 S
C1295  O1551   1.277   .     A
C1296  O1562   1.277   .     A
C1296  O1092   1.285   1_655 S
C1297  O1493   1.277   .     A
C1297  O1489   1.285   .     A
C1298  O1094   1.280   1_655 S
C1298  O1098   1.277   1_655 S
C1299  O1495   1.280   .     A
C1299  O1491   1.277   .     A
C1300  O700    1.277   1_565 S
C1300  O705    1.285   1_565 S
C1301  O1498   1.281   .     A
C1301  O1526   1.281   .     A
C1302  O1555   1.386   .     S
C1302  C1354   1.408   .     A
C1303  O1499   1.281   .     A
C1303  O1527   1.281   .     A
C1304  O1524   1.283   .     A
C1304  O1500   1.282   .     A
C1305  O1525   1.283   .     A
C1305  O1501   1.282   .     A
C1306  O1502   1.284   .     A
C1306  O1531   1.284   .     A
C1307  O1532   1.284   .     A
C1307  O1503   1.284   .     A
C1308  O1504   1.283   .     A
C1308  O1528   1.282   .     A
C1309  O1505   1.283   .     A
C1309  O1530   1.282   .     A
C1310  O1517   1.282   .     A
C1310  O1506   1.283   .     A
C1311  O1519   1.282   .     A
C1311  O1508   1.283   .     A
C1312  O1509   1.281   .     A
C1312  O1515   1.281   .     A
C1313  C1355   1.408   .     A
C1313  O1556   1.386   .     S
C1314  O1510   1.281   .     A
C1314  O1516   1.281   .     A
C1315  O1511   1.282   .     A
C1315  O1522   1.283   .     A
C1316  O1523   1.283   .     A
C1316  O1512   1.282   .     A
C1317  O1520   1.284   .     A
C1317  O1513   1.284   .     A
C1318  O1521   1.284   .     A
C1318  O1514   1.284   .     A
C1319  H1357   1.083   .     S
C1319  C1336   1.386   .     A
C1320  H1397   1.083   .     S
C1320  C1334   1.386   .     A
C1321  C1333   1.385   .     A
C1321  H1408   1.083   .     S
C1322  C1332   1.385   .     A
C1322  H1419   1.083   .     S
C1323  C1331   1.386   .     A
C1323  H1430   1.083   .     S
C1324  O1557   1.386   .     S
C1324  C1356   1.413   .     A
C1324  C476    1.407   1_565 S
C1325  C1330   1.386   .     A
C1325  H1441   1.083   .     S
C1326  C1329   1.385   .     A
C1326  H1452   1.083   .     S
C1327  C1328   1.385   .     A
C1327  H1463   1.083   .     S
C1328  H1474   1.083   .     S
C1329  H1358   1.083   .     S
C1330  H1369   1.083   .     S
C1331  H1380   1.083   .     S
C1332  H1390   1.083   .     S
C1333  H1391   1.083   .     S
C1334  H1392   1.083   .     S
C1335  O1558   1.385   .     S
C1336  H1393   1.083   .     S
C1337  H1394   1.083   .     S
C1337  C1353   1.386   .     A
C1338  C1352   1.386   .     A
C1338  H1395   1.083   .     S
C1339  H1396   1.083   .     S
C1339  C1351   1.385   .     A
C1340  H1398   1.083   .     S
C1340  C1350   1.385   .     A
C1341  C1349   1.386   .     A
C1341  H1399   1.083   .     S
C1342  H1400   1.083   .     S
C1342  C1348   1.386   .     A
C1343  C1347   1.385   .     A
C1343  H1401   1.083   .     S
C1344  C1345   1.385   .     A
C1344  H1402   1.083   .     S
C1345  H1403   1.083   .     S
C1346  O1559   1.385   .     S
C1347  H1404   1.083   .     S
C1348  H1405   1.083   .     S
C1349  H1406   1.083   .     S
C1350  H1407   1.083   .     S
C1351  H1409   1.083   .     S
C1352  H1410   1.083   .     S
C1353  H1411   1.083   .     S
C1355  C828    1.418   1_655 S
H1381  C471    1.113   1_565 S
H1461  C852    1.113   1_655 S
O1485  Zn1572  1.947   .     S
O1485  Zn1580  1.951   .     S
O1485  Zn1569  1.947   .     S
O1486  Zn1571  1.956   .     S
O1487  Zn1574  1.953   .     S
O1487  C899    1.280   1_655 S
O1488  Zn1573  1.953   .     S
O1489  Zn1583  1.953   .     S
O1490  Zn1582  1.953   .     S
O1491  Zn1577  1.956   .     S
O1492  Zn1569  1.956   .     S
O1493  Zn1579  1.956   .     S
O1494  Zn1578  1.956   .     S
O1495  Zn1581  1.953   .     S
O1496  Zn1575  1.951   .     S
O1496  Zn1577  1.947   .     S
O1496  Zn1581  1.951   .     S
O1497  Zn1580  1.953   .     S
O1498  Zn1572  1.934   .     S
O1499  Zn1571  1.934   .     S
O1500  Zn1574  1.935   .     S
O1501  Zn1573  1.935   .     S
O1502  Zn1576  1.934   .     S
O1503  Zn1575  1.934   .     S
O1504  Zn1570  1.937   .     S
O1505  Zn1584  1.937   .     S
O1506  Zn1571  1.937   .     S
O1507  Zn1582  1.951   .     S
O1507  Zn1578  1.947   .     S
O1507  Zn1570  1.947   .     S
O1508  Zn1572  1.937   .     S
O1509  Zn1584  1.934   .     S
O1510  Zn1570  1.934   .     S
O1511  Zn1575  1.935   .     S
O1512  Zn1576  1.935   .     S
O1513  Zn1573  1.934   .     S
O1514  Zn1574  1.934   .     S
O1515  Zn1183  1.934   1_655 S
O1516  Zn1578  1.934   .     S
O1517  Zn789   1.935   1_565 S
O1518  Zn1583  1.951   .     S
O1518  Zn1573  1.951   .     S
O1518  Zn1579  1.947   .     S
O1519  Zn1580  1.935   .     S
O1520  Zn1583  1.934   .     S
O1521  Zn1186  1.934   1_655 S
O1522  Zn1577  1.937   .     S
O1523  Zn777   1.937   1_565 S
O1524  Zn1182  1.937   1_655 S
O1525  Zn1579  1.937   .     S
O1526  Zn1569  1.934   .     S
O1527  Zn785   1.934   1_565 S
O1528  Zn1582  1.935   .     S
O1529  Zn1576  1.953   .     S
O1529  C501    1.285   1_565 S
O1530  Zn1187  1.935   1_655 S
O1531  Zn788   1.934   1_565 S
O1532  Zn1581  1.934   .     S
O1540  Zn1575  1.953   .     S
O1551  Zn1570  1.956   .     S
O1562  Zn1584  1.956   .     S
O1568  Zn1572  1.956   .     S
Zn1571 O704    1.947   1_565 S
Zn1574 O1111   1.951   1_655 S
Zn1576 O693    1.951   1_565 S
Zn1584 O1122   1.947   1_655 S
