data_str_m1_o10_o16_pcu_sym.95
_audit_creation_date              2020-01-03
_audit_creation_method            'Materials Studio'
_symmetry_space_group_name_H-M    'P1'
_symmetry_Int_Tables_number       1
_symmetry_cell_setting            triclinic
loop_
_symmetry_equiv_pos_as_xyz
  x,y,z
_cell_length_a                    32.5655
_cell_length_b                    32.5582
_cell_length_c                    30.9532
_cell_angle_alpha                 95.8871
_cell_angle_beta                  74.0297
_cell_angle_gamma                 98.8007
loop_
_atom_site_label
_atom_site_type_symbol
_atom_site_fract_x
_atom_site_fract_y
_atom_site_fract_z
_atom_site_U_iso_or_equiv
_atom_site_adp_type
_atom_site_occupancy
C1     C     0.05264   0.15924   0.26070   0.00000  Uiso   1.00
C2     C     0.16729   0.15300   0.05825   0.00000  Uiso   1.00
C3     C     0.23857   0.13924   0.05650   0.00000  Uiso   1.00
C4     C     0.28123   0.17424   0.23968   0.00000  Uiso   1.00
C5     C     0.13973   0.19159   0.42054   0.00000  Uiso   1.00
C6     C     0.32793   0.17692   0.23426   0.00000  Uiso   1.00
C7     C     0.00752   0.15774   0.26362   0.00000  Uiso   1.00
C8     C     0.18133   0.32297   0.23517   0.00000  Uiso   1.00
C9     C     0.15266   0.01176   0.26366   0.00000  Uiso   1.00
C10    C     0.15588   0.05596   0.26058   0.00000  Uiso   1.00
C11    C     0.17684   0.27810   0.23973   0.00000  Uiso   1.00
C12    C     0.08764   0.20755   0.49152   0.00000  Uiso   1.00
C13    C     0.18581   0.14854   0.12912   0.00000  Uiso   1.00
C14    C     0.14902   0.18510   0.37095   0.00000  Uiso   1.00
C15    C     0.25267   0.14499   0.01049   0.00000  Uiso   1.00
C16    C     0.19616   0.14339   0.08027   0.00000  Uiso   1.00
C17    C     0.09946   0.20286   0.44437   0.00000  Uiso   1.00
C18    C     0.29899   0.09851   0.46203   0.00000  Uiso   1.00
C19    C     0.02354   0.24172   0.49285   0.00000  Uiso   1.00
C20    C     0.01639   0.23143   0.17756   0.00000  Uiso   1.00
C21    C     0.11564   0.19753   0.01542   0.00000  Uiso   1.00
C22    C     0.15476   0.18140   0.49185   0.00000  Uiso   1.00
C23    C     0.16880   0.18390   0.44436   0.00000  Uiso   1.00
C24    C     0.18176   0.16486   0.01345   0.00000  Uiso   1.00
C25    C     0.22479   0.15909   0.48900   0.00000  Uiso   1.00
C26    C     0.23971   0.16874   0.44398   0.00000  Uiso   1.00
C27    C     0.21215   0.18035   0.42194   0.00000  Uiso   1.00
H28    H     0.26092   0.13198   0.07402   0.00000  Uiso   1.00
H29    H     0.31727   0.14513   0.00605   0.00000  Uiso   1.00
H30    H     0.28904   0.07318   0.48575   0.00000  Uiso   1.00
H31    H     0.33292   0.09704   0.44241   0.00000  Uiso   1.00
H32    H     0.27846   0.09370   0.43815   0.00000  Uiso   1.00
H33    H     0.07788   0.19306   0.07953   0.00000  Uiso   1.00
H34    H     0.10453   0.24131   0.06751   0.00000  Uiso   1.00
H35    H     0.02959   0.20506   0.04221   0.00000  Uiso   1.00
H36    H     0.33059   0.25591   0.01802   0.00000  Uiso   1.00
H37    H     0.00881   0.21808   0.47114   0.00000  Uiso   1.00
H38    H     0.04457   0.26681   0.47237   0.00000  Uiso   1.00
H39    H     0.31814   0.14175   0.29138   0.00000  Uiso   1.00
H40    H     0.04813   0.17963   0.17756   0.00000  Uiso   1.00
H41    H     0.04694   0.24969   0.15968   0.00000  Uiso   1.00
H42    H     0.33125   0.25272   0.20349   0.00000  Uiso   1.00
H43    H     0.33162   0.21895   0.15242   0.00000  Uiso   1.00
H44    H     0.12645   0.33078   0.28991   0.00000  Uiso   1.00
H45    H     0.27282   0.16691   0.42514   0.00000  Uiso   1.00
H46    H     0.13415   0.15211   0.07741   0.00000  Uiso   1.00
H47    H     0.07730   0.20812   0.42575   0.00000  Uiso   1.00
H48    H     0.22599   0.18806   0.38736   0.00000  Uiso   1.00
H49    H     0.23214   0.32118   0.17831   0.00000  Uiso   1.00
H50    H     0.23783   0.02723   0.21648   0.00000  Uiso   1.00
N51    N     0.21566   0.00981   0.20069   0.00000  Uiso   1.00
N52    N     0.29558   0.13861   0.48667   0.00000  Uiso   1.00
N53    N     0.10715   0.20945   0.06269   0.00000  Uiso   1.00
N54    N     0.04798   0.22247   0.01597   0.00000  Uiso   1.00
N55    N     0.02623   0.19764   0.19831   0.00000  Uiso   1.00
O56    O     0.16667   0.16667   0.25000   0.00000  Uiso   1.00
O57    O     0.15451   0.12637   0.15459   0.00000  Uiso   1.00
O58    O     0.12940   0.20391   0.34968   0.00000  Uiso   1.00
O59    O     0.20824   0.17759   0.14606   0.00000  Uiso   1.00
O60    O     0.17451   0.15880   0.34968   0.00000  Uiso   1.00
O61    O     0.17930   0.08019   0.28214   0.00000  Uiso   1.00
O62    O     0.14632   0.26085   0.27014   0.00000  Uiso   1.00
O63    O     0.07412   0.13291   0.23413   0.00000  Uiso   1.00
O64    O     0.26693   0.19272   0.21361   0.00000  Uiso   1.00
O65    O     0.07071   0.18878   0.28213   0.00000  Uiso   1.00
O66    O     0.25491   0.15226   0.27014   0.00000  Uiso   1.00
O67    O     0.13760   0.06944   0.23413   0.00000  Uiso   1.00
O68    O     0.20345   0.25620   0.21361   0.00000  Uiso   1.00
Zn69   Zn    0.19338   0.13994   0.28734   0.00000  Uiso   1.00
Zn70   Zn    0.13379   0.12458   0.21876   0.00000  Uiso   1.00
Zn71   Zn    0.21056   0.19775   0.20657   0.00000  Uiso   1.00
Zn72   Zn    0.12893   0.20439   0.28734   0.00000  Uiso   1.00
C73    C     0.38597   0.15924   0.26070   0.00000  Uiso   1.00
C74    C     0.50062   0.15300   0.05825   0.00000  Uiso   1.00
C75    C     0.57190   0.13924   0.05650   0.00000  Uiso   1.00
C76    C     0.61456   0.17424   0.23968   0.00000  Uiso   1.00
C77    C     0.47306   0.19159   0.42054   0.00000  Uiso   1.00
C78    C     0.66127   0.17692   0.23426   0.00000  Uiso   1.00
C79    C     0.34085   0.15774   0.26362   0.00000  Uiso   1.00
C80    C     0.51466   0.32297   0.23517   0.00000  Uiso   1.00
C81    C     0.48599   0.01176   0.26366   0.00000  Uiso   1.00
C82    C     0.48921   0.05596   0.26058   0.00000  Uiso   1.00
C83    C     0.51017   0.27810   0.23973   0.00000  Uiso   1.00
C84    C     0.42097   0.20755   0.49152   0.00000  Uiso   1.00
C85    C     0.51914   0.14854   0.12912   0.00000  Uiso   1.00
C86    C     0.48235   0.18510   0.37095   0.00000  Uiso   1.00
C87    C     0.58601   0.14499   0.01049   0.00000  Uiso   1.00
C88    C     0.52949   0.14339   0.08027   0.00000  Uiso   1.00
C89    C     0.43279   0.20286   0.44437   0.00000  Uiso   1.00
C90    C     0.63232   0.09851   0.46203   0.00000  Uiso   1.00
C91    C     0.35687   0.24172   0.49285   0.00000  Uiso   1.00
C92    C     0.34973   0.23143   0.17756   0.00000  Uiso   1.00
C93    C     0.44897   0.19753   0.01542   0.00000  Uiso   1.00
C94    C     0.48809   0.18140   0.49185   0.00000  Uiso   1.00
C95    C     0.50213   0.18390   0.44436   0.00000  Uiso   1.00
C96    C     0.51510   0.16486   0.01345   0.00000  Uiso   1.00
C97    C     0.55813   0.15909   0.48900   0.00000  Uiso   1.00
C98    C     0.57304   0.16874   0.44398   0.00000  Uiso   1.00
C99    C     0.54548   0.18035   0.42194   0.00000  Uiso   1.00
H100   H     0.59426   0.13198   0.07402   0.00000  Uiso   1.00
H101   H     0.65060   0.14513   0.00605   0.00000  Uiso   1.00
H102   H     0.62237   0.07318   0.48575   0.00000  Uiso   1.00
H103   H     0.66625   0.09704   0.44241   0.00000  Uiso   1.00
H104   H     0.61179   0.09370   0.43815   0.00000  Uiso   1.00
H105   H     0.41122   0.19306   0.07953   0.00000  Uiso   1.00
H106   H     0.43787   0.24131   0.06751   0.00000  Uiso   1.00
H107   H     0.36293   0.20506   0.04221   0.00000  Uiso   1.00
H108   H     0.66393   0.25591   0.01802   0.00000  Uiso   1.00
H109   H     0.34214   0.21808   0.47114   0.00000  Uiso   1.00
H110   H     0.37791   0.26681   0.47237   0.00000  Uiso   1.00
H111   H     0.65148   0.14175   0.29138   0.00000  Uiso   1.00
H112   H     0.38147   0.17963   0.17756   0.00000  Uiso   1.00
H113   H     0.38027   0.24969   0.15968   0.00000  Uiso   1.00
H114   H     0.66458   0.25272   0.20349   0.00000  Uiso   1.00
H115   H     0.66495   0.21895   0.15242   0.00000  Uiso   1.00
H116   H     0.45979   0.33078   0.28991   0.00000  Uiso   1.00
H117   H     0.60616   0.16691   0.42514   0.00000  Uiso   1.00
H118   H     0.46748   0.15211   0.07741   0.00000  Uiso   1.00
H119   H     0.41063   0.20812   0.42575   0.00000  Uiso   1.00
H120   H     0.55932   0.18806   0.38736   0.00000  Uiso   1.00
H121   H     0.56548   0.32118   0.17831   0.00000  Uiso   1.00
H122   H     0.57116   0.02723   0.21648   0.00000  Uiso   1.00
N123   N     0.54899   0.00981   0.20069   0.00000  Uiso   1.00
N124   N     0.62892   0.13861   0.48667   0.00000  Uiso   1.00
N125   N     0.44048   0.20945   0.06269   0.00000  Uiso   1.00
N126   N     0.38132   0.22247   0.01597   0.00000  Uiso   1.00
N127   N     0.35956   0.19764   0.19831   0.00000  Uiso   1.00
O128   O     0.50000   0.16667   0.25000   0.00000  Uiso   1.00
O129   O     0.48784   0.12637   0.15459   0.00000  Uiso   1.00
O130   O     0.46274   0.20391   0.34968   0.00000  Uiso   1.00
O131   O     0.54157   0.17759   0.14606   0.00000  Uiso   1.00
O132   O     0.50785   0.15880   0.34968   0.00000  Uiso   1.00
O133   O     0.51264   0.08019   0.28214   0.00000  Uiso   1.00
O134   O     0.47965   0.26085   0.27014   0.00000  Uiso   1.00
O135   O     0.40745   0.13291   0.23413   0.00000  Uiso   1.00
O136   O     0.60026   0.19272   0.21361   0.00000  Uiso   1.00
O137   O     0.40405   0.18878   0.28213   0.00000  Uiso   1.00
O138   O     0.58824   0.15226   0.27014   0.00000  Uiso   1.00
O139   O     0.47093   0.06944   0.23413   0.00000  Uiso   1.00
O140   O     0.53678   0.25620   0.21361   0.00000  Uiso   1.00
Zn141  Zn    0.52672   0.13994   0.28734   0.00000  Uiso   1.00
Zn142  Zn    0.46713   0.12458   0.21876   0.00000  Uiso   1.00
Zn143  Zn    0.54389   0.19775   0.20657   0.00000  Uiso   1.00
Zn144  Zn    0.46226   0.20439   0.28734   0.00000  Uiso   1.00
C145   C     0.71931   0.15924   0.26070   0.00000  Uiso   1.00
C146   C     0.83395   0.15300   0.05825   0.00000  Uiso   1.00
C147   C     0.90524   0.13924   0.05650   0.00000  Uiso   1.00
C148   C     0.94789   0.17424   0.23968   0.00000  Uiso   1.00
C149   C     0.80640   0.19159   0.42054   0.00000  Uiso   1.00
C150   C     0.99460   0.17692   0.23426   0.00000  Uiso   1.00
C151   C     0.67418   0.15774   0.26362   0.00000  Uiso   1.00
C152   C     0.84799   0.32297   0.23517   0.00000  Uiso   1.00
C153   C     0.81932   0.01176   0.26366   0.00000  Uiso   1.00
C154   C     0.82255   0.05596   0.26058   0.00000  Uiso   1.00
C155   C     0.84351   0.27810   0.23973   0.00000  Uiso   1.00
C156   C     0.75430   0.20755   0.49152   0.00000  Uiso   1.00
C157   C     0.85247   0.14854   0.12912   0.00000  Uiso   1.00
C158   C     0.81568   0.18510   0.37095   0.00000  Uiso   1.00
C159   C     0.91934   0.14499   0.01049   0.00000  Uiso   1.00
C160   C     0.86282   0.14339   0.08027   0.00000  Uiso   1.00
C161   C     0.76612   0.20286   0.44437   0.00000  Uiso   1.00
C162   C     0.96565   0.09851   0.46203   0.00000  Uiso   1.00
C163   C     0.69021   0.24172   0.49285   0.00000  Uiso   1.00
C164   C     0.68306   0.23143   0.17756   0.00000  Uiso   1.00
C165   C     0.78230   0.19753   0.01542   0.00000  Uiso   1.00
C166   C     0.82143   0.18140   0.49185   0.00000  Uiso   1.00
C167   C     0.83547   0.18390   0.44436   0.00000  Uiso   1.00
C168   C     0.84843   0.16486   0.01345   0.00000  Uiso   1.00
C169   C     0.89146   0.15909   0.48900   0.00000  Uiso   1.00
C170   C     0.90637   0.16874   0.44398   0.00000  Uiso   1.00
C171   C     0.87882   0.18035   0.42194   0.00000  Uiso   1.00
H172   H     0.92759   0.13198   0.07402   0.00000  Uiso   1.00
H173   H     0.98393   0.14513   0.00605   0.00000  Uiso   1.00
H174   H     0.95570   0.07318   0.48575   0.00000  Uiso   1.00
H175   H     0.99959   0.09704   0.44241   0.00000  Uiso   1.00
H176   H     0.94513   0.09370   0.43815   0.00000  Uiso   1.00
H177   H     0.74455   0.19306   0.07953   0.00000  Uiso   1.00
H178   H     0.77120   0.24131   0.06751   0.00000  Uiso   1.00
H179   H     0.69626   0.20506   0.04221   0.00000  Uiso   1.00
H180   H     0.99726   0.25591   0.01802   0.00000  Uiso   1.00
H181   H     0.67547   0.21808   0.47114   0.00000  Uiso   1.00
H182   H     0.71124   0.26681   0.47237   0.00000  Uiso   1.00
H183   H     0.98481   0.14175   0.29138   0.00000  Uiso   1.00
H184   H     0.71480   0.17963   0.17756   0.00000  Uiso   1.00
H185   H     0.71361   0.24969   0.15968   0.00000  Uiso   1.00
H186   H     0.99791   0.25272   0.20349   0.00000  Uiso   1.00
H187   H     0.99828   0.21895   0.15242   0.00000  Uiso   1.00
H188   H     0.79312   0.33078   0.28991   0.00000  Uiso   1.00
H189   H     0.93949   0.16691   0.42514   0.00000  Uiso   1.00
H190   H     0.80082   0.15211   0.07741   0.00000  Uiso   1.00
H191   H     0.74397   0.20812   0.42575   0.00000  Uiso   1.00
H192   H     0.89265   0.18806   0.38736   0.00000  Uiso   1.00
H193   H     0.89881   0.32118   0.17831   0.00000  Uiso   1.00
H194   H     0.90449   0.02723   0.21648   0.00000  Uiso   1.00
N195   N     0.88232   0.00981   0.20069   0.00000  Uiso   1.00
N196   N     0.96225   0.13861   0.48667   0.00000  Uiso   1.00
N197   N     0.77382   0.20945   0.06269   0.00000  Uiso   1.00
N198   N     0.71465   0.22247   0.01597   0.00000  Uiso   1.00
N199   N     0.69290   0.19764   0.19831   0.00000  Uiso   1.00
O200   O     0.83333   0.16667   0.25000   0.00000  Uiso   1.00
O201   O     0.82118   0.12637   0.15459   0.00000  Uiso   1.00
O202   O     0.79607   0.20391   0.34968   0.00000  Uiso   1.00
O203   O     0.87491   0.17759   0.14606   0.00000  Uiso   1.00
O204   O     0.84118   0.15880   0.34968   0.00000  Uiso   1.00
O205   O     0.84597   0.08019   0.28214   0.00000  Uiso   1.00
O206   O     0.81298   0.26085   0.27014   0.00000  Uiso   1.00
O207   O     0.74078   0.13291   0.23413   0.00000  Uiso   1.00
O208   O     0.93360   0.19272   0.21361   0.00000  Uiso   1.00
O209   O     0.73738   0.18878   0.28213   0.00000  Uiso   1.00
O210   O     0.92158   0.15226   0.27014   0.00000  Uiso   1.00
O211   O     0.80426   0.06944   0.23413   0.00000  Uiso   1.00
O212   O     0.87012   0.25620   0.21361   0.00000  Uiso   1.00
Zn213  Zn    0.86005   0.13994   0.28734   0.00000  Uiso   1.00
Zn214  Zn    0.80046   0.12458   0.21876   0.00000  Uiso   1.00
Zn215  Zn    0.87723   0.19775   0.20657   0.00000  Uiso   1.00
Zn216  Zn    0.79560   0.20439   0.28734   0.00000  Uiso   1.00
C217   C     0.05264   0.49257   0.26070   0.00000  Uiso   1.00
C218   C     0.16729   0.48633   0.05825   0.00000  Uiso   1.00
C219   C     0.23857   0.47257   0.05650   0.00000  Uiso   1.00
C220   C     0.28123   0.50758   0.23968   0.00000  Uiso   1.00
C221   C     0.13973   0.52493   0.42054   0.00000  Uiso   1.00
C222   C     0.32793   0.51025   0.23426   0.00000  Uiso   1.00
C223   C     0.00752   0.49107   0.26362   0.00000  Uiso   1.00
C224   C     0.18133   0.65631   0.23517   0.00000  Uiso   1.00
C225   C     0.15266   0.34509   0.26366   0.00000  Uiso   1.00
C226   C     0.15588   0.38930   0.26058   0.00000  Uiso   1.00
C227   C     0.17684   0.61144   0.23973   0.00000  Uiso   1.00
C228   C     0.08764   0.54088   0.49152   0.00000  Uiso   1.00
C229   C     0.18581   0.48187   0.12912   0.00000  Uiso   1.00
C230   C     0.14902   0.51843   0.37095   0.00000  Uiso   1.00
C231   C     0.25267   0.47832   0.01049   0.00000  Uiso   1.00
C232   C     0.19616   0.47672   0.08027   0.00000  Uiso   1.00
C233   C     0.09946   0.53620   0.44437   0.00000  Uiso   1.00
C234   C     0.29899   0.43185   0.46203   0.00000  Uiso   1.00
C235   C     0.02354   0.57506   0.49285   0.00000  Uiso   1.00
C236   C     0.01639   0.56476   0.17756   0.00000  Uiso   1.00
C237   C     0.11564   0.53086   0.01542   0.00000  Uiso   1.00
C238   C     0.15476   0.51474   0.49185   0.00000  Uiso   1.00
C239   C     0.16880   0.51723   0.44436   0.00000  Uiso   1.00
C240   C     0.18176   0.49819   0.01345   0.00000  Uiso   1.00
C241   C     0.22479   0.49242   0.48900   0.00000  Uiso   1.00
C242   C     0.23971   0.50207   0.44398   0.00000  Uiso   1.00
C243   C     0.21215   0.51368   0.42194   0.00000  Uiso   1.00
H244   H     0.26092   0.46532   0.07402   0.00000  Uiso   1.00
H245   H     0.31727   0.47846   0.00605   0.00000  Uiso   1.00
H246   H     0.28904   0.40651   0.48575   0.00000  Uiso   1.00
H247   H     0.33292   0.43037   0.44241   0.00000  Uiso   1.00
H248   H     0.27846   0.42703   0.43815   0.00000  Uiso   1.00
H249   H     0.07788   0.52640   0.07953   0.00000  Uiso   1.00
H250   H     0.10453   0.57464   0.06751   0.00000  Uiso   1.00
H251   H     0.02959   0.53839   0.04221   0.00000  Uiso   1.00
H252   H     0.33059   0.58924   0.01802   0.00000  Uiso   1.00
H253   H     0.00881   0.55142   0.47114   0.00000  Uiso   1.00
H254   H     0.04457   0.60014   0.47237   0.00000  Uiso   1.00
H255   H     0.31814   0.47508   0.29138   0.00000  Uiso   1.00
H256   H     0.04813   0.51296   0.17756   0.00000  Uiso   1.00
H257   H     0.04694   0.58302   0.15968   0.00000  Uiso   1.00
H258   H     0.33125   0.58605   0.20349   0.00000  Uiso   1.00
H259   H     0.33162   0.55228   0.15242   0.00000  Uiso   1.00
H260   H     0.12645   0.66412   0.28991   0.00000  Uiso   1.00
H261   H     0.27282   0.50024   0.42514   0.00000  Uiso   1.00
H262   H     0.13415   0.48545   0.07741   0.00000  Uiso   1.00
H263   H     0.07730   0.54146   0.42575   0.00000  Uiso   1.00
H264   H     0.22599   0.52139   0.38736   0.00000  Uiso   1.00
H265   H     0.23214   0.65451   0.17831   0.00000  Uiso   1.00
H266   H     0.23783   0.36056   0.21648   0.00000  Uiso   1.00
N267   N     0.21566   0.34314   0.20069   0.00000  Uiso   1.00
N268   N     0.29558   0.47194   0.48667   0.00000  Uiso   1.00
N269   N     0.10715   0.54278   0.06269   0.00000  Uiso   1.00
N270   N     0.04798   0.55580   0.01597   0.00000  Uiso   1.00
N271   N     0.02623   0.53098   0.19831   0.00000  Uiso   1.00
O272   O     0.16667   0.50000   0.25000   0.00000  Uiso   1.00
O273   O     0.15451   0.45970   0.15459   0.00000  Uiso   1.00
O274   O     0.12940   0.53724   0.34968   0.00000  Uiso   1.00
O275   O     0.20824   0.51092   0.14606   0.00000  Uiso   1.00
O276   O     0.17451   0.49213   0.34968   0.00000  Uiso   1.00
O277   O     0.17930   0.41352   0.28214   0.00000  Uiso   1.00
O278   O     0.14632   0.59418   0.27014   0.00000  Uiso   1.00
O279   O     0.07412   0.46625   0.23413   0.00000  Uiso   1.00
O280   O     0.26693   0.52605   0.21361   0.00000  Uiso   1.00
O281   O     0.07071   0.52211   0.28213   0.00000  Uiso   1.00
O282   O     0.25491   0.48559   0.27014   0.00000  Uiso   1.00
O283   O     0.13760   0.40277   0.23413   0.00000  Uiso   1.00
O284   O     0.20345   0.58953   0.21361   0.00000  Uiso   1.00
Zn285  Zn    0.19338   0.47327   0.28734   0.00000  Uiso   1.00
Zn286  Zn    0.13379   0.45791   0.21876   0.00000  Uiso   1.00
Zn287  Zn    0.21056   0.53109   0.20657   0.00000  Uiso   1.00
Zn288  Zn    0.12893   0.53773   0.28734   0.00000  Uiso   1.00
C289   C     0.38597   0.49257   0.26070   0.00000  Uiso   1.00
C290   C     0.50062   0.48633   0.05825   0.00000  Uiso   1.00
C291   C     0.57190   0.47257   0.05650   0.00000  Uiso   1.00
C292   C     0.61456   0.50758   0.23968   0.00000  Uiso   1.00
C293   C     0.47306   0.52493   0.42054   0.00000  Uiso   1.00
C294   C     0.66127   0.51025   0.23426   0.00000  Uiso   1.00
C295   C     0.34085   0.49107   0.26362   0.00000  Uiso   1.00
C296   C     0.51466   0.65631   0.23517   0.00000  Uiso   1.00
C297   C     0.48599   0.34509   0.26366   0.00000  Uiso   1.00
C298   C     0.48921   0.38930   0.26058   0.00000  Uiso   1.00
C299   C     0.51017   0.61144   0.23973   0.00000  Uiso   1.00
C300   C     0.42097   0.54088   0.49152   0.00000  Uiso   1.00
C301   C     0.51914   0.48187   0.12912   0.00000  Uiso   1.00
C302   C     0.48235   0.51843   0.37095   0.00000  Uiso   1.00
C303   C     0.58601   0.47832   0.01049   0.00000  Uiso   1.00
C304   C     0.52949   0.47672   0.08027   0.00000  Uiso   1.00
C305   C     0.43279   0.53620   0.44437   0.00000  Uiso   1.00
C306   C     0.63232   0.43185   0.46203   0.00000  Uiso   1.00
C307   C     0.35687   0.57506   0.49285   0.00000  Uiso   1.00
C308   C     0.34973   0.56476   0.17756   0.00000  Uiso   1.00
C309   C     0.44897   0.53086   0.01542   0.00000  Uiso   1.00
C310   C     0.48809   0.51474   0.49185   0.00000  Uiso   1.00
C311   C     0.50213   0.51723   0.44436   0.00000  Uiso   1.00
C312   C     0.51510   0.49819   0.01345   0.00000  Uiso   1.00
C313   C     0.55813   0.49242   0.48900   0.00000  Uiso   1.00
C314   C     0.57304   0.50207   0.44398   0.00000  Uiso   1.00
C315   C     0.54548   0.51368   0.42194   0.00000  Uiso   1.00
H316   H     0.59426   0.46532   0.07402   0.00000  Uiso   1.00
H317   H     0.65060   0.47846   0.00605   0.00000  Uiso   1.00
H318   H     0.62237   0.40651   0.48575   0.00000  Uiso   1.00
H319   H     0.66625   0.43037   0.44241   0.00000  Uiso   1.00
H320   H     0.61179   0.42703   0.43815   0.00000  Uiso   1.00
H321   H     0.41122   0.52640   0.07953   0.00000  Uiso   1.00
H322   H     0.43787   0.57464   0.06751   0.00000  Uiso   1.00
H323   H     0.36293   0.53839   0.04221   0.00000  Uiso   1.00
H324   H     0.66393   0.58924   0.01802   0.00000  Uiso   1.00
H325   H     0.34214   0.55142   0.47114   0.00000  Uiso   1.00
H326   H     0.37791   0.60014   0.47237   0.00000  Uiso   1.00
H327   H     0.65148   0.47508   0.29138   0.00000  Uiso   1.00
H328   H     0.38147   0.51296   0.17756   0.00000  Uiso   1.00
H329   H     0.38027   0.58302   0.15968   0.00000  Uiso   1.00
H330   H     0.66458   0.58605   0.20349   0.00000  Uiso   1.00
H331   H     0.66495   0.55228   0.15242   0.00000  Uiso   1.00
H332   H     0.45979   0.66412   0.28991   0.00000  Uiso   1.00
H333   H     0.60616   0.50024   0.42514   0.00000  Uiso   1.00
H334   H     0.46748   0.48545   0.07741   0.00000  Uiso   1.00
H335   H     0.41063   0.54146   0.42575   0.00000  Uiso   1.00
H336   H     0.55932   0.52139   0.38736   0.00000  Uiso   1.00
H337   H     0.56548   0.65451   0.17831   0.00000  Uiso   1.00
H338   H     0.57116   0.36056   0.21648   0.00000  Uiso   1.00
N339   N     0.54899   0.34314   0.20069   0.00000  Uiso   1.00
N340   N     0.62892   0.47194   0.48667   0.00000  Uiso   1.00
N341   N     0.44048   0.54278   0.06269   0.00000  Uiso   1.00
N342   N     0.38132   0.55580   0.01597   0.00000  Uiso   1.00
N343   N     0.35956   0.53098   0.19831   0.00000  Uiso   1.00
O344   O     0.50000   0.50000   0.25000   0.00000  Uiso   1.00
O345   O     0.48784   0.45970   0.15459   0.00000  Uiso   1.00
O346   O     0.46274   0.53724   0.34968   0.00000  Uiso   1.00
O347   O     0.54157   0.51092   0.14606   0.00000  Uiso   1.00
O348   O     0.50785   0.49213   0.34968   0.00000  Uiso   1.00
O349   O     0.51264   0.41352   0.28214   0.00000  Uiso   1.00
O350   O     0.47965   0.59418   0.27014   0.00000  Uiso   1.00
O351   O     0.40745   0.46625   0.23413   0.00000  Uiso   1.00
O352   O     0.60026   0.52605   0.21361   0.00000  Uiso   1.00
O353   O     0.40405   0.52211   0.28213   0.00000  Uiso   1.00
O354   O     0.58824   0.48559   0.27014   0.00000  Uiso   1.00
O355   O     0.47093   0.40277   0.23413   0.00000  Uiso   1.00
O356   O     0.53678   0.58953   0.21361   0.00000  Uiso   1.00
Zn357  Zn    0.52672   0.47327   0.28734   0.00000  Uiso   1.00
Zn358  Zn    0.46713   0.45791   0.21876   0.00000  Uiso   1.00
Zn359  Zn    0.54389   0.53109   0.20657   0.00000  Uiso   1.00
Zn360  Zn    0.46226   0.53773   0.28734   0.00000  Uiso   1.00
C361   C     0.71931   0.49257   0.26070   0.00000  Uiso   1.00
C362   C     0.83395   0.48633   0.05825   0.00000  Uiso   1.00
C363   C     0.90524   0.47257   0.05650   0.00000  Uiso   1.00
C364   C     0.94789   0.50758   0.23968   0.00000  Uiso   1.00
C365   C     0.80640   0.52493   0.42054   0.00000  Uiso   1.00
C366   C     0.99460   0.51025   0.23426   0.00000  Uiso   1.00
C367   C     0.67418   0.49107   0.26362   0.00000  Uiso   1.00
C368   C     0.84799   0.65631   0.23517   0.00000  Uiso   1.00
C369   C     0.81932   0.34509   0.26366   0.00000  Uiso   1.00
C370   C     0.82255   0.38930   0.26058   0.00000  Uiso   1.00
C371   C     0.84351   0.61144   0.23973   0.00000  Uiso   1.00
C372   C     0.75430   0.54088   0.49152   0.00000  Uiso   1.00
C373   C     0.85247   0.48187   0.12912   0.00000  Uiso   1.00
C374   C     0.81568   0.51843   0.37095   0.00000  Uiso   1.00
C375   C     0.91934   0.47832   0.01049   0.00000  Uiso   1.00
C376   C     0.86282   0.47672   0.08027   0.00000  Uiso   1.00
C377   C     0.76612   0.53620   0.44437   0.00000  Uiso   1.00
C378   C     0.96565   0.43185   0.46203   0.00000  Uiso   1.00
C379   C     0.69021   0.57506   0.49285   0.00000  Uiso   1.00
C380   C     0.68306   0.56476   0.17756   0.00000  Uiso   1.00
C381   C     0.78230   0.53086   0.01542   0.00000  Uiso   1.00
C382   C     0.82143   0.51474   0.49185   0.00000  Uiso   1.00
C383   C     0.83547   0.51723   0.44436   0.00000  Uiso   1.00
C384   C     0.84843   0.49819   0.01345   0.00000  Uiso   1.00
C385   C     0.89146   0.49242   0.48900   0.00000  Uiso   1.00
C386   C     0.90637   0.50207   0.44398   0.00000  Uiso   1.00
C387   C     0.87882   0.51368   0.42194   0.00000  Uiso   1.00
H388   H     0.92759   0.46532   0.07402   0.00000  Uiso   1.00
H389   H     0.98393   0.47846   0.00605   0.00000  Uiso   1.00
H390   H     0.95570   0.40651   0.48575   0.00000  Uiso   1.00
H391   H     0.99959   0.43037   0.44241   0.00000  Uiso   1.00
H392   H     0.94513   0.42703   0.43815   0.00000  Uiso   1.00
H393   H     0.74455   0.52640   0.07953   0.00000  Uiso   1.00
H394   H     0.77120   0.57464   0.06751   0.00000  Uiso   1.00
H395   H     0.69626   0.53839   0.04221   0.00000  Uiso   1.00
H396   H     0.99726   0.58924   0.01802   0.00000  Uiso   1.00
H397   H     0.67547   0.55142   0.47114   0.00000  Uiso   1.00
H398   H     0.71124   0.60014   0.47237   0.00000  Uiso   1.00
H399   H     0.98481   0.47508   0.29138   0.00000  Uiso   1.00
H400   H     0.71480   0.51296   0.17756   0.00000  Uiso   1.00
H401   H     0.71361   0.58302   0.15968   0.00000  Uiso   1.00
H402   H     0.99791   0.58605   0.20349   0.00000  Uiso   1.00
H403   H     0.99828   0.55228   0.15242   0.00000  Uiso   1.00
H404   H     0.79312   0.66412   0.28991   0.00000  Uiso   1.00
H405   H     0.93949   0.50024   0.42514   0.00000  Uiso   1.00
H406   H     0.80082   0.48545   0.07741   0.00000  Uiso   1.00
H407   H     0.74397   0.54146   0.42575   0.00000  Uiso   1.00
H408   H     0.89265   0.52139   0.38736   0.00000  Uiso   1.00
H409   H     0.89881   0.65451   0.17831   0.00000  Uiso   1.00
H410   H     0.90449   0.36056   0.21648   0.00000  Uiso   1.00
N411   N     0.88232   0.34314   0.20069   0.00000  Uiso   1.00
N412   N     0.96225   0.47194   0.48667   0.00000  Uiso   1.00
N413   N     0.77382   0.54278   0.06269   0.00000  Uiso   1.00
N414   N     0.71465   0.55580   0.01597   0.00000  Uiso   1.00
N415   N     0.69290   0.53098   0.19831   0.00000  Uiso   1.00
O416   O     0.83333   0.50000   0.25000   0.00000  Uiso   1.00
O417   O     0.82118   0.45970   0.15459   0.00000  Uiso   1.00
O418   O     0.79607   0.53724   0.34968   0.00000  Uiso   1.00
O419   O     0.87491   0.51092   0.14606   0.00000  Uiso   1.00
O420   O     0.84118   0.49213   0.34968   0.00000  Uiso   1.00
O421   O     0.84597   0.41352   0.28214   0.00000  Uiso   1.00
O422   O     0.81298   0.59418   0.27014   0.00000  Uiso   1.00
O423   O     0.74078   0.46625   0.23413   0.00000  Uiso   1.00
O424   O     0.93360   0.52605   0.21361   0.00000  Uiso   1.00
O425   O     0.73738   0.52211   0.28213   0.00000  Uiso   1.00
O426   O     0.92158   0.48559   0.27014   0.00000  Uiso   1.00
O427   O     0.80426   0.40277   0.23413   0.00000  Uiso   1.00
O428   O     0.87012   0.58953   0.21361   0.00000  Uiso   1.00
Zn429  Zn    0.86005   0.47327   0.28734   0.00000  Uiso   1.00
Zn430  Zn    0.80046   0.45791   0.21876   0.00000  Uiso   1.00
Zn431  Zn    0.87723   0.53109   0.20657   0.00000  Uiso   1.00
Zn432  Zn    0.79560   0.53773   0.28734   0.00000  Uiso   1.00
C433   C     0.05264   0.82590   0.26070   0.00000  Uiso   1.00
C434   C     0.16729   0.81966   0.05825   0.00000  Uiso   1.00
C435   C     0.23857   0.80591   0.05650   0.00000  Uiso   1.00
C436   C     0.28123   0.84091   0.23968   0.00000  Uiso   1.00
C437   C     0.13973   0.85826   0.42054   0.00000  Uiso   1.00
C438   C     0.32793   0.84358   0.23426   0.00000  Uiso   1.00
C439   C     0.00752   0.82440   0.26362   0.00000  Uiso   1.00
C440   C     0.18133   0.98964   0.23517   0.00000  Uiso   1.00
C441   C     0.15266   0.67842   0.26366   0.00000  Uiso   1.00
C442   C     0.15588   0.72263   0.26058   0.00000  Uiso   1.00
C443   C     0.17684   0.94477   0.23973   0.00000  Uiso   1.00
C444   C     0.08764   0.87421   0.49152   0.00000  Uiso   1.00
C445   C     0.18581   0.81520   0.12912   0.00000  Uiso   1.00
C446   C     0.14902   0.85176   0.37095   0.00000  Uiso   1.00
C447   C     0.25267   0.81165   0.01049   0.00000  Uiso   1.00
C448   C     0.19616   0.81006   0.08027   0.00000  Uiso   1.00
C449   C     0.09946   0.86953   0.44437   0.00000  Uiso   1.00
C450   C     0.29899   0.76518   0.46203   0.00000  Uiso   1.00
C451   C     0.02354   0.90839   0.49285   0.00000  Uiso   1.00
C452   C     0.01639   0.89810   0.17756   0.00000  Uiso   1.00
C453   C     0.11564   0.86420   0.01542   0.00000  Uiso   1.00
C454   C     0.15476   0.84807   0.49185   0.00000  Uiso   1.00
C455   C     0.16880   0.85056   0.44436   0.00000  Uiso   1.00
C456   C     0.18176   0.83153   0.01345   0.00000  Uiso   1.00
C457   C     0.22479   0.82576   0.48900   0.00000  Uiso   1.00
C458   C     0.23971   0.83540   0.44398   0.00000  Uiso   1.00
C459   C     0.21215   0.84701   0.42194   0.00000  Uiso   1.00
H460   H     0.26092   0.79865   0.07402   0.00000  Uiso   1.00
H461   H     0.31727   0.81180   0.00605   0.00000  Uiso   1.00
H462   H     0.28904   0.73985   0.48575   0.00000  Uiso   1.00
H463   H     0.33292   0.76370   0.44241   0.00000  Uiso   1.00
H464   H     0.27846   0.76037   0.43815   0.00000  Uiso   1.00
H465   H     0.07788   0.85973   0.07953   0.00000  Uiso   1.00
H466   H     0.10453   0.90797   0.06751   0.00000  Uiso   1.00
H467   H     0.02959   0.87173   0.04221   0.00000  Uiso   1.00
H468   H     0.33059   0.92257   0.01802   0.00000  Uiso   1.00
H469   H     0.00881   0.88475   0.47114   0.00000  Uiso   1.00
H470   H     0.04457   0.93347   0.47237   0.00000  Uiso   1.00
H471   H     0.31814   0.80842   0.29138   0.00000  Uiso   1.00
H472   H     0.04813   0.84629   0.17756   0.00000  Uiso   1.00
H473   H     0.04694   0.91635   0.15968   0.00000  Uiso   1.00
H474   H     0.33125   0.91939   0.20349   0.00000  Uiso   1.00
H475   H     0.33162   0.88561   0.15242   0.00000  Uiso   1.00
H476   H     0.12645   0.99745   0.28991   0.00000  Uiso   1.00
H477   H     0.27282   0.83357   0.42514   0.00000  Uiso   1.00
H478   H     0.13415   0.81878   0.07741   0.00000  Uiso   1.00
H479   H     0.07730   0.87479   0.42575   0.00000  Uiso   1.00
H480   H     0.22599   0.85473   0.38736   0.00000  Uiso   1.00
H481   H     0.23214   0.98785   0.17831   0.00000  Uiso   1.00
H482   H     0.23783   0.69390   0.21648   0.00000  Uiso   1.00
N483   N     0.21566   0.67648   0.20069   0.00000  Uiso   1.00
N484   N     0.29558   0.80528   0.48667   0.00000  Uiso   1.00
N485   N     0.10715   0.87612   0.06269   0.00000  Uiso   1.00
N486   N     0.04798   0.88913   0.01597   0.00000  Uiso   1.00
N487   N     0.02623   0.86431   0.19831   0.00000  Uiso   1.00
O488   O     0.16667   0.83333   0.25000   0.00000  Uiso   1.00
O489   O     0.15451   0.79304   0.15459   0.00000  Uiso   1.00
O490   O     0.12940   0.87058   0.34968   0.00000  Uiso   1.00
O491   O     0.20824   0.84425   0.14606   0.00000  Uiso   1.00
O492   O     0.17451   0.82546   0.34968   0.00000  Uiso   1.00
O493   O     0.17930   0.74686   0.28214   0.00000  Uiso   1.00
O494   O     0.14632   0.92751   0.27014   0.00000  Uiso   1.00
O495   O     0.07412   0.79958   0.23413   0.00000  Uiso   1.00
O496   O     0.26693   0.85939   0.21361   0.00000  Uiso   1.00
O497   O     0.07071   0.85544   0.28213   0.00000  Uiso   1.00
O498   O     0.25491   0.81892   0.27014   0.00000  Uiso   1.00
O499   O     0.13760   0.73610   0.23413   0.00000  Uiso   1.00
O500   O     0.20345   0.92286   0.21361   0.00000  Uiso   1.00
Zn501  Zn    0.19338   0.80661   0.28734   0.00000  Uiso   1.00
Zn502  Zn    0.13379   0.79124   0.21876   0.00000  Uiso   1.00
Zn503  Zn    0.21056   0.86442   0.20657   0.00000  Uiso   1.00
Zn504  Zn    0.12893   0.87106   0.28734   0.00000  Uiso   1.00
C505   C     0.38597   0.82590   0.26070   0.00000  Uiso   1.00
C506   C     0.50062   0.81966   0.05825   0.00000  Uiso   1.00
C507   C     0.57190   0.80591   0.05650   0.00000  Uiso   1.00
C508   C     0.61456   0.84091   0.23968   0.00000  Uiso   1.00
C509   C     0.47306   0.85826   0.42054   0.00000  Uiso   1.00
C510   C     0.66127   0.84358   0.23426   0.00000  Uiso   1.00
C511   C     0.34085   0.82440   0.26362   0.00000  Uiso   1.00
C512   C     0.51466   0.98964   0.23517   0.00000  Uiso   1.00
C513   C     0.48599   0.67842   0.26366   0.00000  Uiso   1.00
C514   C     0.48921   0.72263   0.26058   0.00000  Uiso   1.00
C515   C     0.51017   0.94477   0.23973   0.00000  Uiso   1.00
C516   C     0.42097   0.87421   0.49152   0.00000  Uiso   1.00
C517   C     0.51914   0.81520   0.12912   0.00000  Uiso   1.00
C518   C     0.48235   0.85176   0.37095   0.00000  Uiso   1.00
C519   C     0.58601   0.81165   0.01049   0.00000  Uiso   1.00
C520   C     0.52949   0.81006   0.08027   0.00000  Uiso   1.00
C521   C     0.43279   0.86953   0.44437   0.00000  Uiso   1.00
C522   C     0.63232   0.76518   0.46203   0.00000  Uiso   1.00
C523   C     0.35687   0.90839   0.49285   0.00000  Uiso   1.00
C524   C     0.34973   0.89810   0.17756   0.00000  Uiso   1.00
C525   C     0.44897   0.86420   0.01542   0.00000  Uiso   1.00
C526   C     0.48809   0.84807   0.49185   0.00000  Uiso   1.00
C527   C     0.50213   0.85056   0.44436   0.00000  Uiso   1.00
C528   C     0.51510   0.83153   0.01345   0.00000  Uiso   1.00
C529   C     0.55813   0.82576   0.48900   0.00000  Uiso   1.00
C530   C     0.57304   0.83540   0.44398   0.00000  Uiso   1.00
C531   C     0.54548   0.84701   0.42194   0.00000  Uiso   1.00
H532   H     0.59426   0.79865   0.07402   0.00000  Uiso   1.00
H533   H     0.65060   0.81180   0.00605   0.00000  Uiso   1.00
H534   H     0.62237   0.73985   0.48575   0.00000  Uiso   1.00
H535   H     0.66625   0.76370   0.44241   0.00000  Uiso   1.00
H536   H     0.61179   0.76037   0.43815   0.00000  Uiso   1.00
H537   H     0.41122   0.85973   0.07953   0.00000  Uiso   1.00
H538   H     0.43787   0.90797   0.06751   0.00000  Uiso   1.00
H539   H     0.36293   0.87173   0.04221   0.00000  Uiso   1.00
H540   H     0.66393   0.92257   0.01802   0.00000  Uiso   1.00
H541   H     0.34214   0.88475   0.47114   0.00000  Uiso   1.00
H542   H     0.37791   0.93347   0.47237   0.00000  Uiso   1.00
H543   H     0.65148   0.80842   0.29138   0.00000  Uiso   1.00
H544   H     0.38147   0.84629   0.17756   0.00000  Uiso   1.00
H545   H     0.38027   0.91635   0.15968   0.00000  Uiso   1.00
H546   H     0.66458   0.91939   0.20349   0.00000  Uiso   1.00
H547   H     0.66495   0.88561   0.15242   0.00000  Uiso   1.00
H548   H     0.45979   0.99745   0.28991   0.00000  Uiso   1.00
H549   H     0.60616   0.83357   0.42514   0.00000  Uiso   1.00
H550   H     0.46748   0.81878   0.07741   0.00000  Uiso   1.00
H551   H     0.41063   0.87479   0.42575   0.00000  Uiso   1.00
H552   H     0.55932   0.85473   0.38736   0.00000  Uiso   1.00
H553   H     0.56548   0.98785   0.17831   0.00000  Uiso   1.00
H554   H     0.57116   0.69390   0.21648   0.00000  Uiso   1.00
N555   N     0.54899   0.67648   0.20069   0.00000  Uiso   1.00
N556   N     0.62892   0.80528   0.48667   0.00000  Uiso   1.00
N557   N     0.44048   0.87612   0.06269   0.00000  Uiso   1.00
N558   N     0.38132   0.88913   0.01597   0.00000  Uiso   1.00
N559   N     0.35956   0.86431   0.19831   0.00000  Uiso   1.00
O560   O     0.50000   0.83333   0.25000   0.00000  Uiso   1.00
O561   O     0.48784   0.79304   0.15459   0.00000  Uiso   1.00
O562   O     0.46274   0.87058   0.34968   0.00000  Uiso   1.00
O563   O     0.54157   0.84425   0.14606   0.00000  Uiso   1.00
O564   O     0.50785   0.82546   0.34968   0.00000  Uiso   1.00
O565   O     0.51264   0.74686   0.28214   0.00000  Uiso   1.00
O566   O     0.47965   0.92751   0.27014   0.00000  Uiso   1.00
O567   O     0.40745   0.79958   0.23413   0.00000  Uiso   1.00
O568   O     0.60026   0.85939   0.21361   0.00000  Uiso   1.00
O569   O     0.40405   0.85544   0.28213   0.00000  Uiso   1.00
O570   O     0.58824   0.81892   0.27014   0.00000  Uiso   1.00
O571   O     0.47093   0.73610   0.23413   0.00000  Uiso   1.00
O572   O     0.53678   0.92286   0.21361   0.00000  Uiso   1.00
Zn573  Zn    0.52672   0.80661   0.28734   0.00000  Uiso   1.00
Zn574  Zn    0.46713   0.79124   0.21876   0.00000  Uiso   1.00
Zn575  Zn    0.54389   0.86442   0.20657   0.00000  Uiso   1.00
Zn576  Zn    0.46226   0.87106   0.28734   0.00000  Uiso   1.00
C577   C     0.71931   0.82590   0.26070   0.00000  Uiso   1.00
C578   C     0.83395   0.81966   0.05825   0.00000  Uiso   1.00
C579   C     0.90524   0.80591   0.05650   0.00000  Uiso   1.00
C580   C     0.94789   0.84091   0.23968   0.00000  Uiso   1.00
C581   C     0.80640   0.85826   0.42054   0.00000  Uiso   1.00
C582   C     0.99460   0.84358   0.23426   0.00000  Uiso   1.00
C583   C     0.67418   0.82440   0.26362   0.00000  Uiso   1.00
C584   C     0.84799   0.98964   0.23517   0.00000  Uiso   1.00
C585   C     0.81932   0.67842   0.26366   0.00000  Uiso   1.00
C586   C     0.82255   0.72263   0.26058   0.00000  Uiso   1.00
C587   C     0.84351   0.94477   0.23973   0.00000  Uiso   1.00
C588   C     0.75430   0.87421   0.49152   0.00000  Uiso   1.00
C589   C     0.85247   0.81520   0.12912   0.00000  Uiso   1.00
C590   C     0.81568   0.85176   0.37095   0.00000  Uiso   1.00
C591   C     0.91934   0.81165   0.01049   0.00000  Uiso   1.00
C592   C     0.86282   0.81006   0.08027   0.00000  Uiso   1.00
C593   C     0.76612   0.86953   0.44437   0.00000  Uiso   1.00
C594   C     0.96565   0.76518   0.46203   0.00000  Uiso   1.00
C595   C     0.69021   0.90839   0.49285   0.00000  Uiso   1.00
C596   C     0.68306   0.89810   0.17756   0.00000  Uiso   1.00
C597   C     0.78230   0.86420   0.01542   0.00000  Uiso   1.00
C598   C     0.82143   0.84807   0.49185   0.00000  Uiso   1.00
C599   C     0.83547   0.85056   0.44436   0.00000  Uiso   1.00
C600   C     0.84843   0.83153   0.01345   0.00000  Uiso   1.00
C601   C     0.89146   0.82576   0.48900   0.00000  Uiso   1.00
C602   C     0.90637   0.83540   0.44398   0.00000  Uiso   1.00
C603   C     0.87882   0.84701   0.42194   0.00000  Uiso   1.00
H604   H     0.92759   0.79865   0.07402   0.00000  Uiso   1.00
H605   H     0.98393   0.81180   0.00605   0.00000  Uiso   1.00
H606   H     0.95570   0.73985   0.48575   0.00000  Uiso   1.00
H607   H     0.99959   0.76370   0.44241   0.00000  Uiso   1.00
H608   H     0.94513   0.76037   0.43815   0.00000  Uiso   1.00
H609   H     0.74455   0.85973   0.07953   0.00000  Uiso   1.00
H610   H     0.77120   0.90797   0.06751   0.00000  Uiso   1.00
H611   H     0.69626   0.87173   0.04221   0.00000  Uiso   1.00
H612   H     0.99726   0.92257   0.01802   0.00000  Uiso   1.00
H613   H     0.67547   0.88475   0.47114   0.00000  Uiso   1.00
H614   H     0.71124   0.93347   0.47237   0.00000  Uiso   1.00
H615   H     0.98481   0.80842   0.29138   0.00000  Uiso   1.00
H616   H     0.71480   0.84629   0.17756   0.00000  Uiso   1.00
H617   H     0.71361   0.91635   0.15968   0.00000  Uiso   1.00
H618   H     0.99791   0.91939   0.20349   0.00000  Uiso   1.00
H619   H     0.99828   0.88561   0.15242   0.00000  Uiso   1.00
H620   H     0.79312   0.99745   0.28991   0.00000  Uiso   1.00
H621   H     0.93949   0.83357   0.42514   0.00000  Uiso   1.00
H622   H     0.80082   0.81878   0.07741   0.00000  Uiso   1.00
H623   H     0.74397   0.87479   0.42575   0.00000  Uiso   1.00
H624   H     0.89265   0.85473   0.38736   0.00000  Uiso   1.00
H625   H     0.89881   0.98785   0.17831   0.00000  Uiso   1.00
H626   H     0.90449   0.69390   0.21648   0.00000  Uiso   1.00
N627   N     0.88232   0.67648   0.20069   0.00000  Uiso   1.00
N628   N     0.96225   0.80528   0.48667   0.00000  Uiso   1.00
N629   N     0.77382   0.87612   0.06269   0.00000  Uiso   1.00
N630   N     0.71465   0.88913   0.01597   0.00000  Uiso   1.00
N631   N     0.69290   0.86431   0.19831   0.00000  Uiso   1.00
O632   O     0.83333   0.83333   0.25000   0.00000  Uiso   1.00
O633   O     0.82118   0.79304   0.15459   0.00000  Uiso   1.00
O634   O     0.79607   0.87058   0.34968   0.00000  Uiso   1.00
O635   O     0.87491   0.84425   0.14606   0.00000  Uiso   1.00
O636   O     0.84118   0.82546   0.34968   0.00000  Uiso   1.00
O637   O     0.84597   0.74686   0.28214   0.00000  Uiso   1.00
O638   O     0.81298   0.92751   0.27014   0.00000  Uiso   1.00
O639   O     0.74078   0.79958   0.23413   0.00000  Uiso   1.00
O640   O     0.93360   0.85939   0.21361   0.00000  Uiso   1.00
O641   O     0.73738   0.85544   0.28213   0.00000  Uiso   1.00
O642   O     0.92158   0.81892   0.27014   0.00000  Uiso   1.00
O643   O     0.80426   0.73610   0.23413   0.00000  Uiso   1.00
O644   O     0.87012   0.92286   0.21361   0.00000  Uiso   1.00
Zn645  Zn    0.86005   0.80661   0.28734   0.00000  Uiso   1.00
Zn646  Zn    0.80046   0.79124   0.21876   0.00000  Uiso   1.00
Zn647  Zn    0.87723   0.86442   0.20657   0.00000  Uiso   1.00
Zn648  Zn    0.79560   0.87106   0.28734   0.00000  Uiso   1.00
C649   C     0.05264   0.15924   0.76070   0.00000  Uiso   1.00
C650   C     0.16729   0.15300   0.55825   0.00000  Uiso   1.00
C651   C     0.23857   0.13924   0.55650   0.00000  Uiso   1.00
C652   C     0.28123   0.17424   0.73968   0.00000  Uiso   1.00
C653   C     0.13973   0.19159   0.92054   0.00000  Uiso   1.00
C654   C     0.32793   0.17692   0.73426   0.00000  Uiso   1.00
C655   C     0.00752   0.15774   0.76362   0.00000  Uiso   1.00
C656   C     0.18133   0.32297   0.73517   0.00000  Uiso   1.00
C657   C     0.15266   0.01176   0.76366   0.00000  Uiso   1.00
C658   C     0.15588   0.05596   0.76058   0.00000  Uiso   1.00
C659   C     0.17684   0.27810   0.73973   0.00000  Uiso   1.00
C660   C     0.08764   0.20755   0.99152   0.00000  Uiso   1.00
C661   C     0.18581   0.14854   0.62912   0.00000  Uiso   1.00
C662   C     0.14902   0.18510   0.87095   0.00000  Uiso   1.00
C663   C     0.25267   0.14499   0.51049   0.00000  Uiso   1.00
C664   C     0.19616   0.14339   0.58027   0.00000  Uiso   1.00
C665   C     0.09946   0.20286   0.94437   0.00000  Uiso   1.00
C666   C     0.29899   0.09851   0.96203   0.00000  Uiso   1.00
C667   C     0.02354   0.24172   0.99285   0.00000  Uiso   1.00
C668   C     0.01639   0.23143   0.67756   0.00000  Uiso   1.00
C669   C     0.11564   0.19753   0.51542   0.00000  Uiso   1.00
C670   C     0.15476   0.18140   0.99185   0.00000  Uiso   1.00
C671   C     0.16880   0.18390   0.94436   0.00000  Uiso   1.00
C672   C     0.18176   0.16486   0.51345   0.00000  Uiso   1.00
C673   C     0.22479   0.15909   0.98900   0.00000  Uiso   1.00
C674   C     0.23971   0.16874   0.94398   0.00000  Uiso   1.00
C675   C     0.21215   0.18035   0.92194   0.00000  Uiso   1.00
H676   H     0.26092   0.13198   0.57402   0.00000  Uiso   1.00
H677   H     0.31727   0.14513   0.50605   0.00000  Uiso   1.00
H678   H     0.28904   0.07318   0.98575   0.00000  Uiso   1.00
H679   H     0.33292   0.09704   0.94241   0.00000  Uiso   1.00
H680   H     0.27846   0.09370   0.93815   0.00000  Uiso   1.00
H681   H     0.07788   0.19306   0.57953   0.00000  Uiso   1.00
H682   H     0.10453   0.24131   0.56751   0.00000  Uiso   1.00
H683   H     0.02959   0.20506   0.54221   0.00000  Uiso   1.00
H684   H     0.33059   0.25591   0.51802   0.00000  Uiso   1.00
H685   H     0.00881   0.21808   0.97114   0.00000  Uiso   1.00
H686   H     0.04457   0.26681   0.97237   0.00000  Uiso   1.00
H687   H     0.31814   0.14175   0.79138   0.00000  Uiso   1.00
H688   H     0.04813   0.17963   0.67756   0.00000  Uiso   1.00
H689   H     0.04694   0.24969   0.65968   0.00000  Uiso   1.00
H690   H     0.33125   0.25272   0.70349   0.00000  Uiso   1.00
H691   H     0.33162   0.21895   0.65242   0.00000  Uiso   1.00
H692   H     0.12645   0.33078   0.78991   0.00000  Uiso   1.00
H693   H     0.27282   0.16691   0.92514   0.00000  Uiso   1.00
H694   H     0.13415   0.15211   0.57741   0.00000  Uiso   1.00
H695   H     0.07730   0.20812   0.92575   0.00000  Uiso   1.00
H696   H     0.22599   0.18806   0.88736   0.00000  Uiso   1.00
H697   H     0.23214   0.32118   0.67831   0.00000  Uiso   1.00
H698   H     0.23783   0.02723   0.71648   0.00000  Uiso   1.00
N699   N     0.21566   0.00981   0.70069   0.00000  Uiso   1.00
N700   N     0.29558   0.13861   0.98667   0.00000  Uiso   1.00
N701   N     0.10715   0.20945   0.56269   0.00000  Uiso   1.00
N702   N     0.04798   0.22247   0.51597   0.00000  Uiso   1.00
N703   N     0.02623   0.19764   0.69831   0.00000  Uiso   1.00
O704   O     0.16667   0.16667   0.75000   0.00000  Uiso   1.00
O705   O     0.15451   0.12637   0.65459   0.00000  Uiso   1.00
O706   O     0.12940   0.20391   0.84968   0.00000  Uiso   1.00
O707   O     0.20824   0.17759   0.64606   0.00000  Uiso   1.00
O708   O     0.17451   0.15880   0.84968   0.00000  Uiso   1.00
O709   O     0.17930   0.08019   0.78214   0.00000  Uiso   1.00
O710   O     0.14632   0.26085   0.77014   0.00000  Uiso   1.00
O711   O     0.07412   0.13291   0.73413   0.00000  Uiso   1.00
O712   O     0.26693   0.19272   0.71361   0.00000  Uiso   1.00
O713   O     0.07071   0.18878   0.78213   0.00000  Uiso   1.00
O714   O     0.25491   0.15226   0.77014   0.00000  Uiso   1.00
O715   O     0.13760   0.06944   0.73413   0.00000  Uiso   1.00
O716   O     0.20345   0.25620   0.71361   0.00000  Uiso   1.00
Zn717  Zn    0.19338   0.13994   0.78734   0.00000  Uiso   1.00
Zn718  Zn    0.13379   0.12458   0.71876   0.00000  Uiso   1.00
Zn719  Zn    0.21056   0.19775   0.70657   0.00000  Uiso   1.00
Zn720  Zn    0.12893   0.20439   0.78734   0.00000  Uiso   1.00
C721   C     0.38597   0.15924   0.76070   0.00000  Uiso   1.00
C722   C     0.50062   0.15300   0.55825   0.00000  Uiso   1.00
C723   C     0.57190   0.13924   0.55650   0.00000  Uiso   1.00
C724   C     0.61456   0.17424   0.73968   0.00000  Uiso   1.00
C725   C     0.47306   0.19159   0.92054   0.00000  Uiso   1.00
C726   C     0.66127   0.17692   0.73426   0.00000  Uiso   1.00
C727   C     0.34085   0.15774   0.76362   0.00000  Uiso   1.00
C728   C     0.51466   0.32297   0.73517   0.00000  Uiso   1.00
C729   C     0.48599   0.01176   0.76366   0.00000  Uiso   1.00
C730   C     0.48921   0.05596   0.76058   0.00000  Uiso   1.00
C731   C     0.51017   0.27810   0.73973   0.00000  Uiso   1.00
C732   C     0.42097   0.20755   0.99152   0.00000  Uiso   1.00
C733   C     0.51914   0.14854   0.62912   0.00000  Uiso   1.00
C734   C     0.48235   0.18510   0.87095   0.00000  Uiso   1.00
C735   C     0.58601   0.14499   0.51049   0.00000  Uiso   1.00
C736   C     0.52949   0.14339   0.58027   0.00000  Uiso   1.00
C737   C     0.43279   0.20286   0.94437   0.00000  Uiso   1.00
C738   C     0.63232   0.09851   0.96203   0.00000  Uiso   1.00
C739   C     0.35687   0.24172   0.99285   0.00000  Uiso   1.00
C740   C     0.34973   0.23143   0.67756   0.00000  Uiso   1.00
C741   C     0.44897   0.19753   0.51542   0.00000  Uiso   1.00
C742   C     0.48809   0.18140   0.99185   0.00000  Uiso   1.00
C743   C     0.50213   0.18390   0.94436   0.00000  Uiso   1.00
C744   C     0.51510   0.16486   0.51345   0.00000  Uiso   1.00
C745   C     0.55813   0.15909   0.98900   0.00000  Uiso   1.00
C746   C     0.57304   0.16874   0.94398   0.00000  Uiso   1.00
C747   C     0.54548   0.18035   0.92194   0.00000  Uiso   1.00
H748   H     0.59426   0.13198   0.57402   0.00000  Uiso   1.00
H749   H     0.65060   0.14513   0.50605   0.00000  Uiso   1.00
H750   H     0.62237   0.07318   0.98575   0.00000  Uiso   1.00
H751   H     0.66625   0.09704   0.94241   0.00000  Uiso   1.00
H752   H     0.61179   0.09370   0.93815   0.00000  Uiso   1.00
H753   H     0.41122   0.19306   0.57953   0.00000  Uiso   1.00
H754   H     0.43787   0.24131   0.56751   0.00000  Uiso   1.00
H755   H     0.36293   0.20506   0.54221   0.00000  Uiso   1.00
H756   H     0.66393   0.25591   0.51802   0.00000  Uiso   1.00
H757   H     0.34214   0.21808   0.97114   0.00000  Uiso   1.00
H758   H     0.37791   0.26681   0.97237   0.00000  Uiso   1.00
H759   H     0.65148   0.14175   0.79138   0.00000  Uiso   1.00
H760   H     0.38147   0.17963   0.67756   0.00000  Uiso   1.00
H761   H     0.38027   0.24969   0.65968   0.00000  Uiso   1.00
H762   H     0.66458   0.25272   0.70349   0.00000  Uiso   1.00
H763   H     0.66495   0.21895   0.65242   0.00000  Uiso   1.00
H764   H     0.45979   0.33078   0.78991   0.00000  Uiso   1.00
H765   H     0.60616   0.16691   0.92514   0.00000  Uiso   1.00
H766   H     0.46748   0.15211   0.57741   0.00000  Uiso   1.00
H767   H     0.41063   0.20812   0.92575   0.00000  Uiso   1.00
H768   H     0.55932   0.18806   0.88736   0.00000  Uiso   1.00
H769   H     0.56548   0.32118   0.67831   0.00000  Uiso   1.00
H770   H     0.57116   0.02723   0.71648   0.00000  Uiso   1.00
N771   N     0.54899   0.00981   0.70069   0.00000  Uiso   1.00
N772   N     0.62892   0.13861   0.98667   0.00000  Uiso   1.00
N773   N     0.44048   0.20945   0.56269   0.00000  Uiso   1.00
N774   N     0.38132   0.22247   0.51597   0.00000  Uiso   1.00
N775   N     0.35956   0.19764   0.69831   0.00000  Uiso   1.00
O776   O     0.50000   0.16667   0.75000   0.00000  Uiso   1.00
O777   O     0.48784   0.12637   0.65459   0.00000  Uiso   1.00
O778   O     0.46274   0.20391   0.84968   0.00000  Uiso   1.00
O779   O     0.54157   0.17759   0.64606   0.00000  Uiso   1.00
O780   O     0.50785   0.15880   0.84968   0.00000  Uiso   1.00
O781   O     0.51264   0.08019   0.78214   0.00000  Uiso   1.00
O782   O     0.47965   0.26085   0.77014   0.00000  Uiso   1.00
O783   O     0.40745   0.13291   0.73413   0.00000  Uiso   1.00
O784   O     0.60026   0.19272   0.71361   0.00000  Uiso   1.00
O785   O     0.40405   0.18878   0.78213   0.00000  Uiso   1.00
O786   O     0.58824   0.15226   0.77014   0.00000  Uiso   1.00
O787   O     0.47093   0.06944   0.73413   0.00000  Uiso   1.00
O788   O     0.53678   0.25620   0.71361   0.00000  Uiso   1.00
Zn789  Zn    0.52672   0.13994   0.78734   0.00000  Uiso   1.00
Zn790  Zn    0.46713   0.12458   0.71876   0.00000  Uiso   1.00
Zn791  Zn    0.54389   0.19775   0.70657   0.00000  Uiso   1.00
Zn792  Zn    0.46226   0.20439   0.78734   0.00000  Uiso   1.00
C793   C     0.71931   0.15924   0.76070   0.00000  Uiso   1.00
C794   C     0.83395   0.15300   0.55825   0.00000  Uiso   1.00
C795   C     0.90524   0.13924   0.55650   0.00000  Uiso   1.00
C796   C     0.94789   0.17424   0.73968   0.00000  Uiso   1.00
C797   C     0.80640   0.19159   0.92054   0.00000  Uiso   1.00
C798   C     0.99460   0.17692   0.73426   0.00000  Uiso   1.00
C799   C     0.67418   0.15774   0.76362   0.00000  Uiso   1.00
C800   C     0.84799   0.32297   0.73517   0.00000  Uiso   1.00
C801   C     0.81932   0.01176   0.76366   0.00000  Uiso   1.00
C802   C     0.82255   0.05596   0.76058   0.00000  Uiso   1.00
C803   C     0.84351   0.27810   0.73973   0.00000  Uiso   1.00
C804   C     0.75430   0.20755   0.99152   0.00000  Uiso   1.00
C805   C     0.85247   0.14854   0.62912   0.00000  Uiso   1.00
C806   C     0.81568   0.18510   0.87095   0.00000  Uiso   1.00
C807   C     0.91934   0.14499   0.51049   0.00000  Uiso   1.00
C808   C     0.86282   0.14339   0.58027   0.00000  Uiso   1.00
C809   C     0.76612   0.20286   0.94437   0.00000  Uiso   1.00
C810   C     0.96565   0.09851   0.96203   0.00000  Uiso   1.00
C811   C     0.69021   0.24172   0.99285   0.00000  Uiso   1.00
C812   C     0.68306   0.23143   0.67756   0.00000  Uiso   1.00
C813   C     0.78230   0.19753   0.51542   0.00000  Uiso   1.00
C814   C     0.82143   0.18140   0.99185   0.00000  Uiso   1.00
C815   C     0.83547   0.18390   0.94436   0.00000  Uiso   1.00
C816   C     0.84843   0.16486   0.51345   0.00000  Uiso   1.00
C817   C     0.89146   0.15909   0.98900   0.00000  Uiso   1.00
C818   C     0.90637   0.16874   0.94398   0.00000  Uiso   1.00
C819   C     0.87882   0.18035   0.92194   0.00000  Uiso   1.00
H820   H     0.92759   0.13198   0.57402   0.00000  Uiso   1.00
H821   H     0.98393   0.14513   0.50605   0.00000  Uiso   1.00
H822   H     0.95570   0.07318   0.98575   0.00000  Uiso   1.00
H823   H     0.99959   0.09704   0.94241   0.00000  Uiso   1.00
H824   H     0.94513   0.09370   0.93815   0.00000  Uiso   1.00
H825   H     0.74455   0.19306   0.57953   0.00000  Uiso   1.00
H826   H     0.77120   0.24131   0.56751   0.00000  Uiso   1.00
H827   H     0.69626   0.20506   0.54221   0.00000  Uiso   1.00
H828   H     0.99726   0.25591   0.51802   0.00000  Uiso   1.00
H829   H     0.67547   0.21808   0.97114   0.00000  Uiso   1.00
H830   H     0.71124   0.26681   0.97237   0.00000  Uiso   1.00
H831   H     0.98481   0.14175   0.79138   0.00000  Uiso   1.00
H832   H     0.71480   0.17963   0.67756   0.00000  Uiso   1.00
H833   H     0.71361   0.24969   0.65968   0.00000  Uiso   1.00
H834   H     0.99791   0.25272   0.70349   0.00000  Uiso   1.00
H835   H     0.99828   0.21895   0.65242   0.00000  Uiso   1.00
H836   H     0.79312   0.33078   0.78991   0.00000  Uiso   1.00
H837   H     0.93949   0.16691   0.92514   0.00000  Uiso   1.00
H838   H     0.80082   0.15211   0.57741   0.00000  Uiso   1.00
H839   H     0.74397   0.20812   0.92575   0.00000  Uiso   1.00
H840   H     0.89265   0.18806   0.88736   0.00000  Uiso   1.00
H841   H     0.89881   0.32118   0.67831   0.00000  Uiso   1.00
H842   H     0.90449   0.02723   0.71648   0.00000  Uiso   1.00
N843   N     0.88232   0.00981   0.70069   0.00000  Uiso   1.00
N844   N     0.96225   0.13861   0.98667   0.00000  Uiso   1.00
N845   N     0.77382   0.20945   0.56269   0.00000  Uiso   1.00
N846   N     0.71465   0.22247   0.51597   0.00000  Uiso   1.00
N847   N     0.69290   0.19764   0.69831   0.00000  Uiso   1.00
O848   O     0.83333   0.16667   0.75000   0.00000  Uiso   1.00
O849   O     0.82118   0.12637   0.65459   0.00000  Uiso   1.00
O850   O     0.79607   0.20391   0.84968   0.00000  Uiso   1.00
O851   O     0.87491   0.17759   0.64606   0.00000  Uiso   1.00
O852   O     0.84118   0.15880   0.84968   0.00000  Uiso   1.00
O853   O     0.84597   0.08019   0.78214   0.00000  Uiso   1.00
O854   O     0.81298   0.26085   0.77014   0.00000  Uiso   1.00
O855   O     0.74078   0.13291   0.73413   0.00000  Uiso   1.00
O856   O     0.93360   0.19272   0.71361   0.00000  Uiso   1.00
O857   O     0.73738   0.18878   0.78213   0.00000  Uiso   1.00
O858   O     0.92158   0.15226   0.77014   0.00000  Uiso   1.00
O859   O     0.80426   0.06944   0.73413   0.00000  Uiso   1.00
O860   O     0.87012   0.25620   0.71361   0.00000  Uiso   1.00
Zn861  Zn    0.86005   0.13994   0.78734   0.00000  Uiso   1.00
Zn862  Zn    0.80046   0.12458   0.71876   0.00000  Uiso   1.00
Zn863  Zn    0.87723   0.19775   0.70657   0.00000  Uiso   1.00
Zn864  Zn    0.79560   0.20439   0.78734   0.00000  Uiso   1.00
C865   C     0.05264   0.49257   0.76070   0.00000  Uiso   1.00
C866   C     0.16729   0.48633   0.55825   0.00000  Uiso   1.00
C867   C     0.23857   0.47257   0.55650   0.00000  Uiso   1.00
C868   C     0.28123   0.50758   0.73968   0.00000  Uiso   1.00
C869   C     0.13973   0.52493   0.92054   0.00000  Uiso   1.00
C870   C     0.32793   0.51025   0.73426   0.00000  Uiso   1.00
C871   C     0.00752   0.49107   0.76362   0.00000  Uiso   1.00
C872   C     0.18133   0.65631   0.73517   0.00000  Uiso   1.00
C873   C     0.15266   0.34509   0.76366   0.00000  Uiso   1.00
C874   C     0.15588   0.38930   0.76058   0.00000  Uiso   1.00
C875   C     0.17684   0.61144   0.73973   0.00000  Uiso   1.00
C876   C     0.08764   0.54088   0.99152   0.00000  Uiso   1.00
C877   C     0.18581   0.48187   0.62912   0.00000  Uiso   1.00
C878   C     0.14902   0.51843   0.87095   0.00000  Uiso   1.00
C879   C     0.25267   0.47832   0.51049   0.00000  Uiso   1.00
C880   C     0.19616   0.47672   0.58027   0.00000  Uiso   1.00
C881   C     0.09946   0.53620   0.94437   0.00000  Uiso   1.00
C882   C     0.29899   0.43185   0.96203   0.00000  Uiso   1.00
C883   C     0.02354   0.57506   0.99285   0.00000  Uiso   1.00
C884   C     0.01639   0.56476   0.67756   0.00000  Uiso   1.00
C885   C     0.11564   0.53086   0.51542   0.00000  Uiso   1.00
C886   C     0.15476   0.51474   0.99185   0.00000  Uiso   1.00
C887   C     0.16880   0.51723   0.94436   0.00000  Uiso   1.00
C888   C     0.18176   0.49819   0.51345   0.00000  Uiso   1.00
C889   C     0.22479   0.49242   0.98900   0.00000  Uiso   1.00
C890   C     0.23971   0.50207   0.94398   0.00000  Uiso   1.00
C891   C     0.21215   0.51368   0.92194   0.00000  Uiso   1.00
H892   H     0.26092   0.46532   0.57402   0.00000  Uiso   1.00
H893   H     0.31727   0.47846   0.50605   0.00000  Uiso   1.00
H894   H     0.28904   0.40651   0.98575   0.00000  Uiso   1.00
H895   H     0.33292   0.43037   0.94241   0.00000  Uiso   1.00
H896   H     0.27846   0.42703   0.93815   0.00000  Uiso   1.00
H897   H     0.07788   0.52640   0.57953   0.00000  Uiso   1.00
H898   H     0.10453   0.57464   0.56751   0.00000  Uiso   1.00
H899   H     0.02959   0.53839   0.54221   0.00000  Uiso   1.00
H900   H     0.33059   0.58924   0.51802   0.00000  Uiso   1.00
H901   H     0.00881   0.55142   0.97114   0.00000  Uiso   1.00
H902   H     0.04457   0.60014   0.97237   0.00000  Uiso   1.00
H903   H     0.31814   0.47508   0.79138   0.00000  Uiso   1.00
H904   H     0.04813   0.51296   0.67756   0.00000  Uiso   1.00
H905   H     0.04694   0.58302   0.65968   0.00000  Uiso   1.00
H906   H     0.33125   0.58605   0.70349   0.00000  Uiso   1.00
H907   H     0.33162   0.55228   0.65242   0.00000  Uiso   1.00
H908   H     0.12645   0.66412   0.78991   0.00000  Uiso   1.00
H909   H     0.27282   0.50024   0.92514   0.00000  Uiso   1.00
H910   H     0.13415   0.48545   0.57741   0.00000  Uiso   1.00
H911   H     0.07730   0.54146   0.92575   0.00000  Uiso   1.00
H912   H     0.22599   0.52139   0.88736   0.00000  Uiso   1.00
H913   H     0.23214   0.65451   0.67831   0.00000  Uiso   1.00
H914   H     0.23783   0.36056   0.71648   0.00000  Uiso   1.00
N915   N     0.21566   0.34314   0.70069   0.00000  Uiso   1.00
N916   N     0.29558   0.47194   0.98667   0.00000  Uiso   1.00
N917   N     0.10715   0.54278   0.56269   0.00000  Uiso   1.00
N918   N     0.04798   0.55580   0.51597   0.00000  Uiso   1.00
N919   N     0.02623   0.53098   0.69831   0.00000  Uiso   1.00
O920   O     0.16667   0.50000   0.75000   0.00000  Uiso   1.00
O921   O     0.15451   0.45970   0.65459   0.00000  Uiso   1.00
O922   O     0.12940   0.53724   0.84968   0.00000  Uiso   1.00
O923   O     0.20824   0.51092   0.64606   0.00000  Uiso   1.00
O924   O     0.17451   0.49213   0.84968   0.00000  Uiso   1.00
O925   O     0.17930   0.41352   0.78214   0.00000  Uiso   1.00
O926   O     0.14632   0.59418   0.77014   0.00000  Uiso   1.00
O927   O     0.07412   0.46625   0.73413   0.00000  Uiso   1.00
O928   O     0.26693   0.52605   0.71361   0.00000  Uiso   1.00
O929   O     0.07071   0.52211   0.78213   0.00000  Uiso   1.00
O930   O     0.25491   0.48559   0.77014   0.00000  Uiso   1.00
O931   O     0.13760   0.40277   0.73413   0.00000  Uiso   1.00
O932   O     0.20345   0.58953   0.71361   0.00000  Uiso   1.00
Zn933  Zn    0.19338   0.47327   0.78734   0.00000  Uiso   1.00
Zn934  Zn    0.13379   0.45791   0.71876   0.00000  Uiso   1.00
Zn935  Zn    0.21056   0.53109   0.70657   0.00000  Uiso   1.00
Zn936  Zn    0.12893   0.53773   0.78734   0.00000  Uiso   1.00
C937   C     0.38597   0.49257   0.76070   0.00000  Uiso   1.00
C938   C     0.50062   0.48633   0.55825   0.00000  Uiso   1.00
C939   C     0.57190   0.47257   0.55650   0.00000  Uiso   1.00
C940   C     0.61456   0.50758   0.73968   0.00000  Uiso   1.00
C941   C     0.47306   0.52493   0.92054   0.00000  Uiso   1.00
C942   C     0.66127   0.51025   0.73426   0.00000  Uiso   1.00
C943   C     0.34085   0.49107   0.76362   0.00000  Uiso   1.00
C944   C     0.51466   0.65631   0.73517   0.00000  Uiso   1.00
C945   C     0.48599   0.34509   0.76366   0.00000  Uiso   1.00
C946   C     0.48921   0.38930   0.76058   0.00000  Uiso   1.00
C947   C     0.51017   0.61144   0.73973   0.00000  Uiso   1.00
C948   C     0.42097   0.54088   0.99152   0.00000  Uiso   1.00
C949   C     0.51914   0.48187   0.62912   0.00000  Uiso   1.00
C950   C     0.48235   0.51843   0.87095   0.00000  Uiso   1.00
C951   C     0.58601   0.47832   0.51049   0.00000  Uiso   1.00
C952   C     0.52949   0.47672   0.58027   0.00000  Uiso   1.00
C953   C     0.43279   0.53620   0.94437   0.00000  Uiso   1.00
C954   C     0.63232   0.43185   0.96203   0.00000  Uiso   1.00
C955   C     0.35687   0.57506   0.99285   0.00000  Uiso   1.00
C956   C     0.34973   0.56476   0.67756   0.00000  Uiso   1.00
C957   C     0.44897   0.53086   0.51542   0.00000  Uiso   1.00
C958   C     0.48809   0.51474   0.99185   0.00000  Uiso   1.00
C959   C     0.50213   0.51723   0.94436   0.00000  Uiso   1.00
C960   C     0.51510   0.49819   0.51345   0.00000  Uiso   1.00
C961   C     0.55813   0.49242   0.98900   0.00000  Uiso   1.00
C962   C     0.57304   0.50207   0.94398   0.00000  Uiso   1.00
C963   C     0.54548   0.51368   0.92194   0.00000  Uiso   1.00
H964   H     0.59426   0.46532   0.57402   0.00000  Uiso   1.00
H965   H     0.65060   0.47846   0.50605   0.00000  Uiso   1.00
H966   H     0.62237   0.40651   0.98575   0.00000  Uiso   1.00
H967   H     0.66625   0.43037   0.94241   0.00000  Uiso   1.00
H968   H     0.61179   0.42703   0.93815   0.00000  Uiso   1.00
H969   H     0.41122   0.52640   0.57953   0.00000  Uiso   1.00
H970   H     0.43787   0.57464   0.56751   0.00000  Uiso   1.00
H971   H     0.36293   0.53839   0.54221   0.00000  Uiso   1.00
H972   H     0.66393   0.58924   0.51802   0.00000  Uiso   1.00
H973   H     0.34214   0.55142   0.97114   0.00000  Uiso   1.00
H974   H     0.37791   0.60014   0.97237   0.00000  Uiso   1.00
H975   H     0.65148   0.47508   0.79138   0.00000  Uiso   1.00
H976   H     0.38147   0.51296   0.67756   0.00000  Uiso   1.00
H977   H     0.38027   0.58302   0.65968   0.00000  Uiso   1.00
H978   H     0.66458   0.58605   0.70349   0.00000  Uiso   1.00
H979   H     0.66495   0.55228   0.65242   0.00000  Uiso   1.00
H980   H     0.45979   0.66412   0.78991   0.00000  Uiso   1.00
H981   H     0.60616   0.50024   0.92514   0.00000  Uiso   1.00
H982   H     0.46748   0.48545   0.57741   0.00000  Uiso   1.00
H983   H     0.41063   0.54146   0.92575   0.00000  Uiso   1.00
H984   H     0.55932   0.52139   0.88736   0.00000  Uiso   1.00
H985   H     0.56548   0.65451   0.67831   0.00000  Uiso   1.00
H986   H     0.57116   0.36056   0.71648   0.00000  Uiso   1.00
N987   N     0.54899   0.34314   0.70069   0.00000  Uiso   1.00
N988   N     0.62892   0.47194   0.98667   0.00000  Uiso   1.00
N989   N     0.44048   0.54278   0.56269   0.00000  Uiso   1.00
N990   N     0.38132   0.55580   0.51597   0.00000  Uiso   1.00
N991   N     0.35956   0.53098   0.69831   0.00000  Uiso   1.00
O992   O     0.50000   0.50000   0.75000   0.00000  Uiso   1.00
O993   O     0.48784   0.45970   0.65459   0.00000  Uiso   1.00
O994   O     0.46274   0.53724   0.84968   0.00000  Uiso   1.00
O995   O     0.54157   0.51092   0.64606   0.00000  Uiso   1.00
O996   O     0.50785   0.49213   0.84968   0.00000  Uiso   1.00
O997   O     0.51264   0.41352   0.78214   0.00000  Uiso   1.00
O998   O     0.47965   0.59418   0.77014   0.00000  Uiso   1.00
O999   O     0.40745   0.46625   0.73413   0.00000  Uiso   1.00
O1000  O     0.60026   0.52605   0.71361   0.00000  Uiso   1.00
O1001  O     0.40405   0.52211   0.78213   0.00000  Uiso   1.00
O1002  O     0.58824   0.48559   0.77014   0.00000  Uiso   1.00
O1003  O     0.47093   0.40277   0.73413   0.00000  Uiso   1.00
O1004  O     0.53678   0.58953   0.71361   0.00000  Uiso   1.00
Zn1005 Zn    0.52672   0.47327   0.78734   0.00000  Uiso   1.00
Zn1006 Zn    0.46713   0.45791   0.71876   0.00000  Uiso   1.00
Zn1007 Zn    0.54389   0.53109   0.70657   0.00000  Uiso   1.00
Zn1008 Zn    0.46226   0.53773   0.78734   0.00000  Uiso   1.00
C1009  C     0.71931   0.49257   0.76070   0.00000  Uiso   1.00
C1010  C     0.83395   0.48633   0.55825   0.00000  Uiso   1.00
C1011  C     0.90524   0.47257   0.55650   0.00000  Uiso   1.00
C1012  C     0.94789   0.50758   0.73968   0.00000  Uiso   1.00
C1013  C     0.80640   0.52493   0.92054   0.00000  Uiso   1.00
C1014  C     0.99460   0.51025   0.73426   0.00000  Uiso   1.00
C1015  C     0.67418   0.49107   0.76362   0.00000  Uiso   1.00
C1016  C     0.84799   0.65631   0.73517   0.00000  Uiso   1.00
C1017  C     0.81932   0.34509   0.76366   0.00000  Uiso   1.00
C1018  C     0.82255   0.38930   0.76058   0.00000  Uiso   1.00
C1019  C     0.84351   0.61144   0.73973   0.00000  Uiso   1.00
C1020  C     0.75430   0.54088   0.99152   0.00000  Uiso   1.00
C1021  C     0.85247   0.48187   0.62912   0.00000  Uiso   1.00
C1022  C     0.81568   0.51843   0.87095   0.00000  Uiso   1.00
C1023  C     0.91934   0.47832   0.51049   0.00000  Uiso   1.00
C1024  C     0.86282   0.47672   0.58027   0.00000  Uiso   1.00
C1025  C     0.76612   0.53620   0.94437   0.00000  Uiso   1.00
C1026  C     0.96565   0.43185   0.96203   0.00000  Uiso   1.00
C1027  C     0.69021   0.57506   0.99285   0.00000  Uiso   1.00
C1028  C     0.68306   0.56476   0.67756   0.00000  Uiso   1.00
C1029  C     0.78230   0.53086   0.51542   0.00000  Uiso   1.00
C1030  C     0.82143   0.51474   0.99185   0.00000  Uiso   1.00
C1031  C     0.83547   0.51723   0.94436   0.00000  Uiso   1.00
C1032  C     0.84843   0.49819   0.51345   0.00000  Uiso   1.00
C1033  C     0.89146   0.49242   0.98900   0.00000  Uiso   1.00
C1034  C     0.90637   0.50207   0.94398   0.00000  Uiso   1.00
C1035  C     0.87882   0.51368   0.92194   0.00000  Uiso   1.00
H1036  H     0.92759   0.46532   0.57402   0.00000  Uiso   1.00
H1037  H     0.98393   0.47846   0.50605   0.00000  Uiso   1.00
H1038  H     0.95570   0.40651   0.98575   0.00000  Uiso   1.00
H1039  H     0.99959   0.43037   0.94241   0.00000  Uiso   1.00
H1040  H     0.94513   0.42703   0.93815   0.00000  Uiso   1.00
H1041  H     0.74455   0.52640   0.57953   0.00000  Uiso   1.00
H1042  H     0.77120   0.57464   0.56751   0.00000  Uiso   1.00
H1043  H     0.69626   0.53839   0.54221   0.00000  Uiso   1.00
H1044  H     0.99726   0.58924   0.51802   0.00000  Uiso   1.00
H1045  H     0.67547   0.55142   0.97114   0.00000  Uiso   1.00
H1046  H     0.71124   0.60014   0.97237   0.00000  Uiso   1.00
H1047  H     0.98481   0.47508   0.79138   0.00000  Uiso   1.00
H1048  H     0.71480   0.51296   0.67756   0.00000  Uiso   1.00
H1049  H     0.71361   0.58302   0.65968   0.00000  Uiso   1.00
H1050  H     0.99791   0.58605   0.70349   0.00000  Uiso   1.00
H1051  H     0.99828   0.55228   0.65242   0.00000  Uiso   1.00
H1052  H     0.79312   0.66412   0.78991   0.00000  Uiso   1.00
H1053  H     0.93949   0.50024   0.92514   0.00000  Uiso   1.00
H1054  H     0.80082   0.48545   0.57741   0.00000  Uiso   1.00
H1055  H     0.74397   0.54146   0.92575   0.00000  Uiso   1.00
H1056  H     0.89265   0.52139   0.88736   0.00000  Uiso   1.00
H1057  H     0.89881   0.65451   0.67831   0.00000  Uiso   1.00
H1058  H     0.90449   0.36056   0.71648   0.00000  Uiso   1.00
N1059  N     0.88232   0.34314   0.70069   0.00000  Uiso   1.00
N1060  N     0.96225   0.47194   0.98667   0.00000  Uiso   1.00
N1061  N     0.77382   0.54278   0.56269   0.00000  Uiso   1.00
N1062  N     0.71465   0.55580   0.51597   0.00000  Uiso   1.00
N1063  N     0.69290   0.53098   0.69831   0.00000  Uiso   1.00
O1064  O     0.83333   0.50000   0.75000   0.00000  Uiso   1.00
O1065  O     0.82118   0.45970   0.65459   0.00000  Uiso   1.00
O1066  O     0.79607   0.53724   0.84968   0.00000  Uiso   1.00
O1067  O     0.87491   0.51092   0.64606   0.00000  Uiso   1.00
O1068  O     0.84118   0.49213   0.84968   0.00000  Uiso   1.00
O1069  O     0.84597   0.41352   0.78214   0.00000  Uiso   1.00
O1070  O     0.81298   0.59418   0.77014   0.00000  Uiso   1.00
O1071  O     0.74078   0.46625   0.73413   0.00000  Uiso   1.00
O1072  O     0.93360   0.52605   0.71361   0.00000  Uiso   1.00
O1073  O     0.73738   0.52211   0.78213   0.00000  Uiso   1.00
O1074  O     0.92158   0.48559   0.77014   0.00000  Uiso   1.00
O1075  O     0.80426   0.40277   0.73413   0.00000  Uiso   1.00
O1076  O     0.87012   0.58953   0.71361   0.00000  Uiso   1.00
Zn1077 Zn    0.86005   0.47327   0.78734   0.00000  Uiso   1.00
Zn1078 Zn    0.80046   0.45791   0.71876   0.00000  Uiso   1.00
Zn1079 Zn    0.87723   0.53109   0.70657   0.00000  Uiso   1.00
Zn1080 Zn    0.79560   0.53773   0.78734   0.00000  Uiso   1.00
C1081  C     0.05264   0.82590   0.76070   0.00000  Uiso   1.00
C1082  C     0.16729   0.81966   0.55825   0.00000  Uiso   1.00
C1083  C     0.23857   0.80591   0.55650   0.00000  Uiso   1.00
C1084  C     0.28123   0.84091   0.73968   0.00000  Uiso   1.00
C1085  C     0.13973   0.85826   0.92054   0.00000  Uiso   1.00
C1086  C     0.32793   0.84358   0.73426   0.00000  Uiso   1.00
C1087  C     0.00752   0.82440   0.76362   0.00000  Uiso   1.00
C1088  C     0.18133   0.98964   0.73517   0.00000  Uiso   1.00
C1089  C     0.15266   0.67842   0.76366   0.00000  Uiso   1.00
C1090  C     0.15588   0.72263   0.76058   0.00000  Uiso   1.00
C1091  C     0.17684   0.94477   0.73973   0.00000  Uiso   1.00
C1092  C     0.08764   0.87421   0.99152   0.00000  Uiso   1.00
C1093  C     0.18581   0.81520   0.62912   0.00000  Uiso   1.00
C1094  C     0.14902   0.85176   0.87095   0.00000  Uiso   1.00
C1095  C     0.25267   0.81165   0.51049   0.00000  Uiso   1.00
C1096  C     0.19616   0.81006   0.58027   0.00000  Uiso   1.00
C1097  C     0.09946   0.86953   0.94437   0.00000  Uiso   1.00
C1098  C     0.29899   0.76518   0.96203   0.00000  Uiso   1.00
C1099  C     0.02354   0.90839   0.99285   0.00000  Uiso   1.00
C1100  C     0.01639   0.89810   0.67756   0.00000  Uiso   1.00
C1101  C     0.11564   0.86420   0.51542   0.00000  Uiso   1.00
C1102  C     0.15476   0.84807   0.99185   0.00000  Uiso   1.00
C1103  C     0.16880   0.85056   0.94436   0.00000  Uiso   1.00
C1104  C     0.18176   0.83153   0.51345   0.00000  Uiso   1.00
C1105  C     0.22479   0.82576   0.98900   0.00000  Uiso   1.00
C1106  C     0.23971   0.83540   0.94398   0.00000  Uiso   1.00
C1107  C     0.21215   0.84701   0.92194   0.00000  Uiso   1.00
H1108  H     0.26092   0.79865   0.57402   0.00000  Uiso   1.00
H1109  H     0.31727   0.81180   0.50605   0.00000  Uiso   1.00
H1110  H     0.28904   0.73985   0.98575   0.00000  Uiso   1.00
H1111  H     0.33292   0.76370   0.94241   0.00000  Uiso   1.00
H1112  H     0.27846   0.76037   0.93815   0.00000  Uiso   1.00
H1113  H     0.07788   0.85973   0.57953   0.00000  Uiso   1.00
H1114  H     0.10453   0.90797   0.56751   0.00000  Uiso   1.00
H1115  H     0.02959   0.87173   0.54221   0.00000  Uiso   1.00
H1116  H     0.33059   0.92257   0.51802   0.00000  Uiso   1.00
H1117  H     0.00881   0.88475   0.97114   0.00000  Uiso   1.00
H1118  H     0.04457   0.93347   0.97237   0.00000  Uiso   1.00
H1119  H     0.31814   0.80842   0.79138   0.00000  Uiso   1.00
H1120  H     0.04813   0.84629   0.67756   0.00000  Uiso   1.00
H1121  H     0.04694   0.91635   0.65968   0.00000  Uiso   1.00
H1122  H     0.33125   0.91939   0.70349   0.00000  Uiso   1.00
H1123  H     0.33162   0.88561   0.65242   0.00000  Uiso   1.00
H1124  H     0.12645   0.99745   0.78991   0.00000  Uiso   1.00
H1125  H     0.27282   0.83357   0.92514   0.00000  Uiso   1.00
H1126  H     0.13415   0.81878   0.57741   0.00000  Uiso   1.00
H1127  H     0.07730   0.87479   0.92575   0.00000  Uiso   1.00
H1128  H     0.22599   0.85473   0.88736   0.00000  Uiso   1.00
H1129  H     0.23214   0.98785   0.67831   0.00000  Uiso   1.00
H1130  H     0.23783   0.69390   0.71648   0.00000  Uiso   1.00
N1131  N     0.21566   0.67648   0.70069   0.00000  Uiso   1.00
N1132  N     0.29558   0.80528   0.98667   0.00000  Uiso   1.00
N1133  N     0.10715   0.87612   0.56269   0.00000  Uiso   1.00
N1134  N     0.04798   0.88913   0.51597   0.00000  Uiso   1.00
N1135  N     0.02623   0.86431   0.69831   0.00000  Uiso   1.00
O1136  O     0.16667   0.83333   0.75000   0.00000  Uiso   1.00
O1137  O     0.15451   0.79304   0.65459   0.00000  Uiso   1.00
O1138  O     0.12940   0.87058   0.84968   0.00000  Uiso   1.00
O1139  O     0.20824   0.84425   0.64606   0.00000  Uiso   1.00
O1140  O     0.17451   0.82546   0.84968   0.00000  Uiso   1.00
O1141  O     0.17930   0.74686   0.78214   0.00000  Uiso   1.00
O1142  O     0.14632   0.92751   0.77014   0.00000  Uiso   1.00
O1143  O     0.07412   0.79958   0.73413   0.00000  Uiso   1.00
O1144  O     0.26693   0.85939   0.71361   0.00000  Uiso   1.00
O1145  O     0.07071   0.85544   0.78213   0.00000  Uiso   1.00
O1146  O     0.25491   0.81892   0.77014   0.00000  Uiso   1.00
O1147  O     0.13760   0.73610   0.73413   0.00000  Uiso   1.00
O1148  O     0.20345   0.92286   0.71361   0.00000  Uiso   1.00
Zn1149 Zn    0.19338   0.80661   0.78734   0.00000  Uiso   1.00
Zn1150 Zn    0.13379   0.79124   0.71876   0.00000  Uiso   1.00
Zn1151 Zn    0.21056   0.86442   0.70657   0.00000  Uiso   1.00
Zn1152 Zn    0.12893   0.87106   0.78734   0.00000  Uiso   1.00
C1153  C     0.38597   0.82590   0.76070   0.00000  Uiso   1.00
C1154  C     0.50062   0.81966   0.55825   0.00000  Uiso   1.00
C1155  C     0.57190   0.80591   0.55650   0.00000  Uiso   1.00
C1156  C     0.61456   0.84091   0.73968   0.00000  Uiso   1.00
C1157  C     0.47306   0.85826   0.92054   0.00000  Uiso   1.00
C1158  C     0.66127   0.84358   0.73426   0.00000  Uiso   1.00
C1159  C     0.34085   0.82440   0.76362   0.00000  Uiso   1.00
C1160  C     0.51466   0.98964   0.73517   0.00000  Uiso   1.00
C1161  C     0.48599   0.67842   0.76366   0.00000  Uiso   1.00
C1162  C     0.48921   0.72263   0.76058   0.00000  Uiso   1.00
C1163  C     0.51017   0.94477   0.73973   0.00000  Uiso   1.00
C1164  C     0.42097   0.87421   0.99152   0.00000  Uiso   1.00
C1165  C     0.51914   0.81520   0.62912   0.00000  Uiso   1.00
C1166  C     0.48235   0.85176   0.87095   0.00000  Uiso   1.00
C1167  C     0.58601   0.81165   0.51049   0.00000  Uiso   1.00
C1168  C     0.52949   0.81006   0.58027   0.00000  Uiso   1.00
C1169  C     0.43279   0.86953   0.94437   0.00000  Uiso   1.00
C1170  C     0.63232   0.76518   0.96203   0.00000  Uiso   1.00
C1171  C     0.35687   0.90839   0.99285   0.00000  Uiso   1.00
C1172  C     0.34973   0.89810   0.67756   0.00000  Uiso   1.00
C1173  C     0.44897   0.86420   0.51542   0.00000  Uiso   1.00
C1174  C     0.48809   0.84807   0.99185   0.00000  Uiso   1.00
C1175  C     0.50213   0.85056   0.94436   0.00000  Uiso   1.00
C1176  C     0.51510   0.83153   0.51345   0.00000  Uiso   1.00
C1177  C     0.55813   0.82576   0.98900   0.00000  Uiso   1.00
C1178  C     0.57304   0.83540   0.94398   0.00000  Uiso   1.00
C1179  C     0.54548   0.84701   0.92194   0.00000  Uiso   1.00
H1180  H     0.59426   0.79865   0.57402   0.00000  Uiso   1.00
H1181  H     0.65060   0.81180   0.50605   0.00000  Uiso   1.00
H1182  H     0.62237   0.73985   0.98575   0.00000  Uiso   1.00
H1183  H     0.66625   0.76370   0.94241   0.00000  Uiso   1.00
H1184  H     0.61179   0.76037   0.93815   0.00000  Uiso   1.00
H1185  H     0.41122   0.85973   0.57953   0.00000  Uiso   1.00
H1186  H     0.43787   0.90797   0.56751   0.00000  Uiso   1.00
H1187  H     0.36293   0.87173   0.54221   0.00000  Uiso   1.00
H1188  H     0.66393   0.92257   0.51802   0.00000  Uiso   1.00
H1189  H     0.34214   0.88475   0.97114   0.00000  Uiso   1.00
H1190  H     0.37791   0.93347   0.97237   0.00000  Uiso   1.00
H1191  H     0.65148   0.80842   0.79138   0.00000  Uiso   1.00
H1192  H     0.38147   0.84629   0.67756   0.00000  Uiso   1.00
H1193  H     0.38027   0.91635   0.65968   0.00000  Uiso   1.00
H1194  H     0.66458   0.91939   0.70349   0.00000  Uiso   1.00
H1195  H     0.66495   0.88561   0.65242   0.00000  Uiso   1.00
H1196  H     0.45979   0.99745   0.78991   0.00000  Uiso   1.00
H1197  H     0.60616   0.83357   0.92514   0.00000  Uiso   1.00
H1198  H     0.46748   0.81878   0.57741   0.00000  Uiso   1.00
H1199  H     0.41063   0.87479   0.92575   0.00000  Uiso   1.00
H1200  H     0.55932   0.85473   0.88736   0.00000  Uiso   1.00
H1201  H     0.56548   0.98785   0.67831   0.00000  Uiso   1.00
H1202  H     0.57116   0.69390   0.71648   0.00000  Uiso   1.00
N1203  N     0.54899   0.67648   0.70069   0.00000  Uiso   1.00
N1204  N     0.62892   0.80528   0.98667   0.00000  Uiso   1.00
N1205  N     0.44048   0.87612   0.56269   0.00000  Uiso   1.00
N1206  N     0.38132   0.88913   0.51597   0.00000  Uiso   1.00
N1207  N     0.35956   0.86431   0.69831   0.00000  Uiso   1.00
O1208  O     0.50000   0.83333   0.75000   0.00000  Uiso   1.00
O1209  O     0.48784   0.79304   0.65459   0.00000  Uiso   1.00
O1210  O     0.46274   0.87058   0.84968   0.00000  Uiso   1.00
O1211  O     0.54157   0.84425   0.64606   0.00000  Uiso   1.00
O1212  O     0.50785   0.82546   0.84968   0.00000  Uiso   1.00
O1213  O     0.51264   0.74686   0.78214   0.00000  Uiso   1.00
O1214  O     0.47965   0.92751   0.77014   0.00000  Uiso   1.00
O1215  O     0.40745   0.79958   0.73413   0.00000  Uiso   1.00
O1216  O     0.60026   0.85939   0.71361   0.00000  Uiso   1.00
O1217  O     0.40405   0.85544   0.78213   0.00000  Uiso   1.00
O1218  O     0.58824   0.81892   0.77014   0.00000  Uiso   1.00
O1219  O     0.47093   0.73610   0.73413   0.00000  Uiso   1.00
O1220  O     0.53678   0.92286   0.71361   0.00000  Uiso   1.00
Zn1221 Zn    0.52672   0.80661   0.78734   0.00000  Uiso   1.00
Zn1222 Zn    0.46713   0.79124   0.71876   0.00000  Uiso   1.00
Zn1223 Zn    0.54389   0.86442   0.70657   0.00000  Uiso   1.00
Zn1224 Zn    0.46226   0.87106   0.78734   0.00000  Uiso   1.00
C1225  C     0.71931   0.82590   0.76070   0.00000  Uiso   1.00
C1226  C     0.83395   0.81966   0.55825   0.00000  Uiso   1.00
C1227  C     0.90524   0.80591   0.55650   0.00000  Uiso   1.00
C1228  C     0.94789   0.84091   0.73968   0.00000  Uiso   1.00
C1229  C     0.80640   0.85826   0.92054   0.00000  Uiso   1.00
C1230  C     0.99460   0.84358   0.73426   0.00000  Uiso   1.00
C1231  C     0.67418   0.82440   0.76362   0.00000  Uiso   1.00
C1232  C     0.84799   0.98964   0.73517   0.00000  Uiso   1.00
C1233  C     0.81932   0.67842   0.76366   0.00000  Uiso   1.00
C1234  C     0.82255   0.72263   0.76058   0.00000  Uiso   1.00
C1235  C     0.84351   0.94477   0.73973   0.00000  Uiso   1.00
C1236  C     0.75430   0.87421   0.99152   0.00000  Uiso   1.00
C1237  C     0.85247   0.81520   0.62912   0.00000  Uiso   1.00
C1238  C     0.81568   0.85176   0.87095   0.00000  Uiso   1.00
C1239  C     0.91934   0.81165   0.51049   0.00000  Uiso   1.00
C1240  C     0.86282   0.81006   0.58027   0.00000  Uiso   1.00
C1241  C     0.76612   0.86953   0.94437   0.00000  Uiso   1.00
C1242  C     0.96565   0.76518   0.96203   0.00000  Uiso   1.00
C1243  C     0.69021   0.90839   0.99285   0.00000  Uiso   1.00
C1244  C     0.68306   0.89810   0.67756   0.00000  Uiso   1.00
C1245  C     0.78230   0.86420   0.51542   0.00000  Uiso   1.00
C1246  C     0.82143   0.84807   0.99185   0.00000  Uiso   1.00
C1247  C     0.83547   0.85056   0.94436   0.00000  Uiso   1.00
C1248  C     0.84843   0.83153   0.51345   0.00000  Uiso   1.00
C1249  C     0.89146   0.82576   0.98900   0.00000  Uiso   1.00
C1250  C     0.90637   0.83540   0.94398   0.00000  Uiso   1.00
C1251  C     0.87882   0.84701   0.92194   0.00000  Uiso   1.00
H1252  H     0.92759   0.79865   0.57402   0.00000  Uiso   1.00
H1253  H     0.98393   0.81180   0.50605   0.00000  Uiso   1.00
H1254  H     0.95570   0.73985   0.98575   0.00000  Uiso   1.00
H1255  H     0.99959   0.76370   0.94241   0.00000  Uiso   1.00
H1256  H     0.94513   0.76037   0.93815   0.00000  Uiso   1.00
H1257  H     0.74455   0.85973   0.57953   0.00000  Uiso   1.00
H1258  H     0.77120   0.90797   0.56751   0.00000  Uiso   1.00
H1259  H     0.69626   0.87173   0.54221   0.00000  Uiso   1.00
H1260  H     0.99726   0.92257   0.51802   0.00000  Uiso   1.00
H1261  H     0.67547   0.88475   0.97114   0.00000  Uiso   1.00
H1262  H     0.71124   0.93347   0.97237   0.00000  Uiso   1.00
H1263  H     0.98481   0.80842   0.79138   0.00000  Uiso   1.00
H1264  H     0.71480   0.84629   0.67756   0.00000  Uiso   1.00
H1265  H     0.71361   0.91635   0.65968   0.00000  Uiso   1.00
H1266  H     0.99791   0.91939   0.70349   0.00000  Uiso   1.00
H1267  H     0.99828   0.88561   0.65242   0.00000  Uiso   1.00
H1268  H     0.79312   0.99745   0.78991   0.00000  Uiso   1.00
H1269  H     0.93949   0.83357   0.92514   0.00000  Uiso   1.00
H1270  H     0.80082   0.81878   0.57741   0.00000  Uiso   1.00
H1271  H     0.74397   0.87479   0.92575   0.00000  Uiso   1.00
H1272  H     0.89265   0.85473   0.88736   0.00000  Uiso   1.00
H1273  H     0.89881   0.98785   0.67831   0.00000  Uiso   1.00
H1274  H     0.90449   0.69390   0.71648   0.00000  Uiso   1.00
N1275  N     0.88232   0.67648   0.70069   0.00000  Uiso   1.00
N1276  N     0.96225   0.80528   0.98667   0.00000  Uiso   1.00
N1277  N     0.77382   0.87612   0.56269   0.00000  Uiso   1.00
N1278  N     0.71465   0.88913   0.51597   0.00000  Uiso   1.00
N1279  N     0.69290   0.86431   0.69831   0.00000  Uiso   1.00
O1280  O     0.83333   0.83333   0.75000   0.00000  Uiso   1.00
O1281  O     0.82118   0.79304   0.65459   0.00000  Uiso   1.00
O1282  O     0.79607   0.87058   0.84968   0.00000  Uiso   1.00
O1283  O     0.87491   0.84425   0.64606   0.00000  Uiso   1.00
O1284  O     0.84118   0.82546   0.84968   0.00000  Uiso   1.00
O1285  O     0.84597   0.74686   0.78214   0.00000  Uiso   1.00
O1286  O     0.81298   0.92751   0.77014   0.00000  Uiso   1.00
O1287  O     0.74078   0.79958   0.73413   0.00000  Uiso   1.00
O1288  O     0.93360   0.85939   0.71361   0.00000  Uiso   1.00
O1289  O     0.73738   0.85544   0.78213   0.00000  Uiso   1.00
O1290  O     0.92158   0.81892   0.77014   0.00000  Uiso   1.00
O1291  O     0.80426   0.73610   0.73413   0.00000  Uiso   1.00
O1292  O     0.87012   0.92286   0.71361   0.00000  Uiso   1.00
Zn1293 Zn    0.86005   0.80661   0.78734   0.00000  Uiso   1.00
Zn1294 Zn    0.80046   0.79124   0.71876   0.00000  Uiso   1.00
Zn1295 Zn    0.87723   0.86442   0.70657   0.00000  Uiso   1.00
Zn1296 Zn    0.79560   0.87106   0.78734   0.00000  Uiso   1.00
loop_
_geom_bond_atom_site_label_1
_geom_bond_atom_site_label_2
_geom_bond_distance
_geom_bond_site_symmetry_2
_ccdc_geom_bond_type
C1     O65     1.274   .     A
C1     O63     1.274   .     A
C1     C7      1.441   .     S
C2     H46     1.077   .     S
C2     C24     1.410   .     A
C2     C16     1.390   .     A
C3     C15     1.394   .     A
C3     H28     1.084   .     S
C3     C16     1.395   .     A
C4     O64     1.274   .     A
C4     O66     1.281   .     A
C4     C6      1.473   .     S
C5     C23     1.413   .     A
C5     C14     1.480   .     S
C5     C17     1.399   .     A
C6     C79     1.342   .     S
C6     N127    1.437   .     S
C7     C150    1.342   1_455 S
C7     H183    1.086   1_455 S
C8     C11     1.463   .     S
C8     C225    1.338   .     S
C8     N267    1.443   .     S
C9     C10     1.438   .     S
C9     C440    1.338   1_545 S
C9     H476    1.086   1_545 S
C10    O67     1.280   .     A
C10    O61     1.279   .     A
C11    O62     1.270   .     A
C11    O68     1.264   .     A
C12    C17     1.401   .     A
C12    C669    1.413   .     S
C12    N702    1.434   .     S
C13    C16     1.454   .     S
C13    O59     1.265   .     A
C13    O57     1.277   .     A
C14    O60     1.287   .     A
C14    O58     1.285   .     A
C15    C673    1.414   1_554 S
C15    N700    1.425   1_554 S
C17    H47     1.081   .     S
C18    H30     1.112   .     S
C18    H32     1.111   .     S
C18    N52     1.446   .     S
C18    H31     1.110   .     S
C19    H38     1.111   .     S
C19    H37     1.110   .     S
C19    H828    1.110   1_455 S
C19    N702    1.448   .     S
C20    H41     1.110   .     S
C20    N55     1.446   .     S
C20    H186    1.111   1_455 S
C20    H187    1.110   1_455 S
C21    N53     1.436   .     S
C21    C660    1.413   1_554 S
C21    C670    1.430   1_554 S
C22    C23     1.421   .     A
C22    C669    1.430   .     S
C22    C672    1.433   .     S
C23    C27     1.408   .     A
C24    C670    1.433   1_554 S
C24    C673    1.428   1_554 S
C25    C26     1.396   .     A
C25    C663    1.414   .     S
C25    C672    1.428   .     S
C26    C27     1.381   .     A
C26    H45     1.083   .     S
C27    H48     1.080   .     S
H29    N700    1.032   1_554 S
H33    N53     1.045   .     S
H34    N53     1.046   .     S
H35    N54     1.031   .     S
H36    C739    1.110   1_554 S
H39    C79     1.086   .     S
H40    N55     1.032   .     S
H42    C92     1.111   .     S
H43    C92     1.110   .     S
H44    C225    1.086   .     S
H49    N267    1.044   .     S
H50    N51     1.046   .     S
N51    H481    1.044   1_545 S
N51    C440    1.443   1_545 S
N52    H677    1.032   .     S
N52    C663    1.425   .     S
N54    C660    1.434   1_554 S
N54    C667    1.448   1_554 S
N55    C150    1.437   1_455 S
O56    Zn71    1.911   .     S
O56    Zn70    1.951   .     S
O56    Zn69    1.960   .     S
O56    Zn72    1.935   .     S
O57    Zn70    1.918   .     S
O58    Zn72    1.936   .     S
O59    Zn71    1.938   .     S
O60    Zn69    1.923   .     S
O61    Zn69    1.930   .     S
O62    Zn72    1.923   .     S
O63    Zn70    1.924   .     S
O64    Zn71    1.940   .     S
O65    Zn72    1.933   .     S
O66    Zn69    1.916   .     S
O67    Zn70    1.934   .     S
O68    Zn71    1.935   .     S
C73    O137    1.274   .     A
C73    O135    1.274   .     A
C73    C79     1.441   .     S
C74    H118    1.077   .     S
C74    C96     1.410   .     A
C74    C88     1.390   .     A
C75    C87     1.394   .     A
C75    H100    1.084   .     S
C75    C88     1.395   .     A
C76    O136    1.274   .     A
C76    O138    1.281   .     A
C76    C78     1.473   .     S
C77    C95     1.413   .     A
C77    C86     1.480   .     S
C77    C89     1.399   .     A
C78    C151    1.342   .     S
C78    N199    1.437   .     S
C80    C83     1.463   .     S
C80    C297    1.338   .     S
C80    N339    1.443   .     S
C81    C82     1.438   .     S
C81    C512    1.338   1_545 S
C81    H548    1.086   1_545 S
C82    O139    1.280   .     A
C82    O133    1.279   .     A
C83    O134    1.270   .     A
C83    O140    1.264   .     A
C84    C89     1.401   .     A
C84    C741    1.413   .     S
C84    N774    1.434   .     S
C85    C88     1.454   .     S
C85    O131    1.265   .     A
C85    O129    1.277   .     A
C86    O132    1.287   .     A
C86    O130    1.285   .     A
C87    C745    1.414   1_554 S
C87    N772    1.425   1_554 S
C89    H119    1.081   .     S
C90    H102    1.112   .     S
C90    H104    1.111   .     S
C90    N124    1.446   .     S
C90    H103    1.110   .     S
C91    H110    1.111   .     S
C91    H109    1.110   .     S
C91    H684    1.110   .     S
C91    N774    1.448   .     S
C92    H113    1.110   .     S
C92    N127    1.446   .     S
C93    N125    1.436   .     S
C93    C732    1.413   1_554 S
C93    C742    1.430   1_554 S
C94    C95     1.421   .     A
C94    C741    1.430   .     S
C94    C744    1.433   .     S
C95    C99     1.408   .     A
C96    C742    1.433   1_554 S
C96    C745    1.428   1_554 S
C97    C98     1.396   .     A
C97    C735    1.414   .     S
C97    C744    1.428   .     S
C98    C99     1.381   .     A
C98    H117    1.083   .     S
C99    H120    1.080   .     S
H101   N772    1.032   1_554 S
H105   N125    1.045   .     S
H106   N125    1.046   .     S
H107   N126    1.031   .     S
H108   C811    1.110   1_554 S
H111   C151    1.086   .     S
H112   N127    1.032   .     S
H114   C164    1.111   .     S
H115   C164    1.110   .     S
H116   C297    1.086   .     S
H121   N339    1.044   .     S
H122   N123    1.046   .     S
N123   H553    1.044   1_545 S
N123   C512    1.443   1_545 S
N124   H749    1.032   .     S
N124   C735    1.425   .     S
N126   C732    1.434   1_554 S
N126   C739    1.448   1_554 S
O128   Zn143   1.911   .     S
O128   Zn142   1.951   .     S
O128   Zn141   1.960   .     S
O128   Zn144   1.935   .     S
O129   Zn142   1.918   .     S
O130   Zn144   1.936   .     S
O131   Zn143   1.938   .     S
O132   Zn141   1.923   .     S
O133   Zn141   1.930   .     S
O134   Zn144   1.923   .     S
O135   Zn142   1.924   .     S
O136   Zn143   1.940   .     S
O137   Zn144   1.933   .     S
O138   Zn141   1.916   .     S
O139   Zn142   1.934   .     S
O140   Zn143   1.935   .     S
C145   O209    1.274   .     A
C145   O207    1.274   .     A
C145   C151    1.441   .     S
C146   H190    1.077   .     S
C146   C168    1.410   .     A
C146   C160    1.390   .     A
C147   C159    1.394   .     A
C147   H172    1.084   .     S
C147   C160    1.395   .     A
C148   O208    1.274   .     A
C148   O210    1.281   .     A
C148   C150    1.473   .     S
C149   C167    1.413   .     A
C149   C158    1.480   .     S
C149   C161    1.399   .     A
C150   C7      1.342   1_655 S
C150   N55     1.437   1_655 S
C152   C155    1.463   .     S
C152   C369    1.338   .     S
C152   N411    1.443   .     S
C153   C154    1.438   .     S
C153   C584    1.338   1_545 S
C153   H620    1.086   1_545 S
C154   O211    1.280   .     A
C154   O205    1.279   .     A
C155   O206    1.270   .     A
C155   O212    1.264   .     A
C156   C161    1.401   .     A
C156   C813    1.413   .     S
C156   N846    1.434   .     S
C157   C160    1.454   .     S
C157   O203    1.265   .     A
C157   O201    1.277   .     A
C158   O204    1.287   .     A
C158   O202    1.285   .     A
C159   C817    1.414   1_554 S
C159   N844    1.425   1_554 S
C161   H191    1.081   .     S
C162   H174    1.112   .     S
C162   H176    1.111   .     S
C162   N196    1.446   .     S
C162   H175    1.110   .     S
C163   H182    1.111   .     S
C163   H181    1.110   .     S
C163   H756    1.110   .     S
C163   N846    1.448   .     S
C164   H185    1.110   .     S
C164   N199    1.446   .     S
C165   N197    1.436   .     S
C165   C804    1.413   1_554 S
C165   C814    1.430   1_554 S
C166   C167    1.421   .     A
C166   C813    1.430   .     S
C166   C816    1.433   .     S
C167   C171    1.408   .     A
C168   C814    1.433   1_554 S
C168   C817    1.428   1_554 S
C169   C170    1.396   .     A
C169   C807    1.414   .     S
C169   C816    1.428   .     S
C170   C171    1.381   .     A
C170   H189    1.083   .     S
C171   H192    1.080   .     S
H173   N844    1.032   1_554 S
H177   N197    1.045   .     S
H178   N197    1.046   .     S
H179   N198    1.031   .     S
H180   C667    1.110   1_654 S
H183   C7      1.086   1_655 S
H184   N199    1.032   .     S
H186   C20     1.111   1_655 S
H187   C20     1.110   1_655 S
H188   C369    1.086   .     S
H193   N411    1.044   .     S
H194   N195    1.046   .     S
N195   H625    1.044   1_545 S
N195   C584    1.443   1_545 S
N196   H821    1.032   .     S
N196   C807    1.425   .     S
N198   C804    1.434   1_554 S
N198   C811    1.448   1_554 S
O200   Zn215   1.911   .     S
O200   Zn214   1.951   .     S
O200   Zn213   1.960   .     S
O200   Zn216   1.935   .     S
O201   Zn214   1.918   .     S
O202   Zn216   1.936   .     S
O203   Zn215   1.938   .     S
O204   Zn213   1.923   .     S
O205   Zn213   1.930   .     S
O206   Zn216   1.923   .     S
O207   Zn214   1.924   .     S
O208   Zn215   1.940   .     S
O209   Zn216   1.933   .     S
O210   Zn213   1.916   .     S
O211   Zn214   1.934   .     S
O212   Zn215   1.935   .     S
C217   O281    1.274   .     A
C217   O279    1.274   .     A
C217   C223    1.441   .     S
C218   H262    1.077   .     S
C218   C240    1.410   .     A
C218   C232    1.390   .     A
C219   C231    1.394   .     A
C219   H244    1.084   .     S
C219   C232    1.395   .     A
C220   O280    1.274   .     A
C220   O282    1.281   .     A
C220   C222    1.473   .     S
C221   C239    1.413   .     A
C221   C230    1.480   .     S
C221   C233    1.399   .     A
C222   C295    1.342   .     S
C222   N343    1.437   .     S
C223   C366    1.342   1_455 S
C223   H399    1.086   1_455 S
C224   C227    1.463   .     S
C224   C441    1.338   .     S
C224   N483    1.443   .     S
C225   C226    1.438   .     S
C226   O283    1.280   .     A
C226   O277    1.279   .     A
C227   O278    1.270   .     A
C227   O284    1.264   .     A
C228   C233    1.401   .     A
C228   C885    1.413   .     S
C228   N918    1.434   .     S
C229   C232    1.454   .     S
C229   O275    1.265   .     A
C229   O273    1.277   .     A
C230   O276    1.287   .     A
C230   O274    1.285   .     A
C231   C889    1.414   1_554 S
C231   N916    1.425   1_554 S
C233   H263    1.081   .     S
C234   H246    1.112   .     S
C234   H248    1.111   .     S
C234   N268    1.446   .     S
C234   H247    1.110   .     S
C235   H254    1.111   .     S
C235   H253    1.110   .     S
C235   H1044   1.110   1_455 S
C235   N918    1.448   .     S
C236   H257    1.110   .     S
C236   N271    1.446   .     S
C236   H402    1.111   1_455 S
C236   H403    1.110   1_455 S
C237   N269    1.436   .     S
C237   C876    1.413   1_554 S
C237   C886    1.430   1_554 S
C238   C239    1.421   .     A
C238   C885    1.430   .     S
C238   C888    1.433   .     S
C239   C243    1.408   .     A
C240   C886    1.433   1_554 S
C240   C889    1.428   1_554 S
C241   C242    1.396   .     A
C241   C879    1.414   .     S
C241   C888    1.428   .     S
C242   C243    1.381   .     A
C242   H261    1.083   .     S
C243   H264    1.080   .     S
H245   N916    1.032   1_554 S
H249   N269    1.045   .     S
H250   N269    1.046   .     S
H251   N270    1.031   .     S
H252   C955    1.110   1_554 S
H255   C295    1.086   .     S
H256   N271    1.032   .     S
H258   C308    1.111   .     S
H259   C308    1.110   .     S
H260   C441    1.086   .     S
H265   N483    1.044   .     S
H266   N267    1.046   .     S
N268   H893    1.032   .     S
N268   C879    1.425   .     S
N270   C876    1.434   1_554 S
N270   C883    1.448   1_554 S
N271   C366    1.437   1_455 S
O272   Zn287   1.911   .     S
O272   Zn286   1.951   .     S
O272   Zn285   1.960   .     S
O272   Zn288   1.935   .     S
O273   Zn286   1.918   .     S
O274   Zn288   1.936   .     S
O275   Zn287   1.938   .     S
O276   Zn285   1.923   .     S
O277   Zn285   1.930   .     S
O278   Zn288   1.923   .     S
O279   Zn286   1.924   .     S
O280   Zn287   1.940   .     S
O281   Zn288   1.933   .     S
O282   Zn285   1.916   .     S
O283   Zn286   1.934   .     S
O284   Zn287   1.935   .     S
C289   O353    1.274   .     A
C289   O351    1.274   .     A
C289   C295    1.441   .     S
C290   H334    1.077   .     S
C290   C312    1.410   .     A
C290   C304    1.390   .     A
C291   C303    1.394   .     A
C291   H316    1.084   .     S
C291   C304    1.395   .     A
C292   O352    1.274   .     A
C292   O354    1.281   .     A
C292   C294    1.473   .     S
C293   C311    1.413   .     A
C293   C302    1.480   .     S
C293   C305    1.399   .     A
C294   C367    1.342   .     S
C294   N415    1.437   .     S
C296   C299    1.463   .     S
C296   C513    1.338   .     S
C296   N555    1.443   .     S
C297   C298    1.438   .     S
C298   O355    1.280   .     A
C298   O349    1.279   .     A
C299   O350    1.270   .     A
C299   O356    1.264   .     A
C300   C305    1.401   .     A
C300   C957    1.413   .     S
C300   N990    1.434   .     S
C301   C304    1.454   .     S
C301   O347    1.265   .     A
C301   O345    1.277   .     A
C302   O348    1.287   .     A
C302   O346    1.285   .     A
C303   C961    1.414   1_554 S
C303   N988    1.425   1_554 S
C305   H335    1.081   .     S
C306   H318    1.112   .     S
C306   H320    1.111   .     S
C306   N340    1.446   .     S
C306   H319    1.110   .     S
C307   H326    1.111   .     S
C307   H325    1.110   .     S
C307   H900    1.110   .     S
C307   N990    1.448   .     S
C308   H329    1.110   .     S
C308   N343    1.446   .     S
C309   N341    1.436   .     S
C309   C948    1.413   1_554 S
C309   C958    1.430   1_554 S
C310   C311    1.421   .     A
C310   C957    1.430   .     S
C310   C960    1.433   .     S
C311   C315    1.408   .     A
C312   C958    1.433   1_554 S
C312   C961    1.428   1_554 S
C313   C314    1.396   .     A
C313   C951    1.414   .     S
C313   C960    1.428   .     S
C314   C315    1.381   .     A
C314   H333    1.083   .     S
C315   H336    1.080   .     S
H317   N988    1.032   1_554 S
H321   N341    1.045   .     S
H322   N341    1.046   .     S
H323   N342    1.031   .     S
H324   C1027   1.110   1_554 S
H327   C367    1.086   .     S
H328   N343    1.032   .     S
H330   C380    1.111   .     S
H331   C380    1.110   .     S
H332   C513    1.086   .     S
H337   N555    1.044   .     S
H338   N339    1.046   .     S
N340   H965    1.032   .     S
N340   C951    1.425   .     S
N342   C948    1.434   1_554 S
N342   C955    1.448   1_554 S
O344   Zn359   1.911   .     S
O344   Zn358   1.951   .     S
O344   Zn357   1.960   .     S
O344   Zn360   1.935   .     S
O345   Zn358   1.918   .     S
O346   Zn360   1.936   .     S
O347   Zn359   1.938   .     S
O348   Zn357   1.923   .     S
O349   Zn357   1.930   .     S
O350   Zn360   1.923   .     S
O351   Zn358   1.924   .     S
O352   Zn359   1.940   .     S
O353   Zn360   1.933   .     S
O354   Zn357   1.916   .     S
O355   Zn358   1.934   .     S
O356   Zn359   1.935   .     S
C361   O425    1.274   .     A
C361   O423    1.274   .     A
C361   C367    1.441   .     S
C362   H406    1.077   .     S
C362   C384    1.410   .     A
C362   C376    1.390   .     A
C363   C375    1.394   .     A
C363   H388    1.084   .     S
C363   C376    1.395   .     A
C364   O424    1.274   .     A
C364   O426    1.281   .     A
C364   C366    1.473   .     S
C365   C383    1.413   .     A
C365   C374    1.480   .     S
C365   C377    1.399   .     A
C366   C223    1.342   1_655 S
C366   N271    1.437   1_655 S
C368   C371    1.463   .     S
C368   C585    1.338   .     S
C368   N627    1.443   .     S
C369   C370    1.438   .     S
C370   O427    1.280   .     A
C370   O421    1.279   .     A
C371   O422    1.270   .     A
C371   O428    1.264   .     A
C372   C377    1.401   .     A
C372   C1029   1.413   .     S
C372   N1062   1.434   .     S
C373   C376    1.454   .     S
C373   O419    1.265   .     A
C373   O417    1.277   .     A
C374   O420    1.287   .     A
C374   O418    1.285   .     A
C375   C1033   1.414   1_554 S
C375   N1060   1.425   1_554 S
C377   H407    1.081   .     S
C378   H390    1.112   .     S
C378   H392    1.111   .     S
C378   N412    1.446   .     S
C378   H391    1.110   .     S
C379   H398    1.111   .     S
C379   H397    1.110   .     S
C379   H972    1.110   .     S
C379   N1062   1.448   .     S
C380   H401    1.110   .     S
C380   N415    1.446   .     S
C381   N413    1.436   .     S
C381   C1020   1.413   1_554 S
C381   C1030   1.430   1_554 S
C382   C383    1.421   .     A
C382   C1029   1.430   .     S
C382   C1032   1.433   .     S
C383   C387    1.408   .     A
C384   C1030   1.433   1_554 S
C384   C1033   1.428   1_554 S
C385   C386    1.396   .     A
C385   C1023   1.414   .     S
C385   C1032   1.428   .     S
C386   C387    1.381   .     A
C386   H405    1.083   .     S
C387   H408    1.080   .     S
H389   N1060   1.032   1_554 S
H393   N413    1.045   .     S
H394   N413    1.046   .     S
H395   N414    1.031   .     S
H396   C883    1.110   1_654 S
H399   C223    1.086   1_655 S
H400   N415    1.032   .     S
H402   C236    1.111   1_655 S
H403   C236    1.110   1_655 S
H404   C585    1.086   .     S
H409   N627    1.044   .     S
H410   N411    1.046   .     S
N412   H1037   1.032   .     S
N412   C1023   1.425   .     S
N414   C1020   1.434   1_554 S
N414   C1027   1.448   1_554 S
O416   Zn431   1.911   .     S
O416   Zn430   1.951   .     S
O416   Zn429   1.960   .     S
O416   Zn432   1.935   .     S
O417   Zn430   1.918   .     S
O418   Zn432   1.936   .     S
O419   Zn431   1.938   .     S
O420   Zn429   1.923   .     S
O421   Zn429   1.930   .     S
O422   Zn432   1.923   .     S
O423   Zn430   1.924   .     S
O424   Zn431   1.940   .     S
O425   Zn432   1.933   .     S
O426   Zn429   1.916   .     S
O427   Zn430   1.934   .     S
O428   Zn431   1.935   .     S
C433   O497    1.274   .     A
C433   O495    1.274   .     A
C433   C439    1.441   .     S
C434   H478    1.077   .     S
C434   C456    1.410   .     A
C434   C448    1.390   .     A
C435   C447    1.394   .     A
C435   H460    1.084   .     S
C435   C448    1.395   .     A
C436   O496    1.274   .     A
C436   O498    1.281   .     A
C436   C438    1.473   .     S
C437   C455    1.413   .     A
C437   C446    1.480   .     S
C437   C449    1.399   .     A
C438   C511    1.342   .     S
C438   N559    1.437   .     S
C439   C582    1.342   1_455 S
C439   H615    1.086   1_455 S
C440   C443    1.463   .     S
C440   C9      1.338   1_565 S
C440   N51     1.443   1_565 S
C441   C442    1.438   .     S
C442   O499    1.280   .     A
C442   O493    1.279   .     A
C443   O494    1.270   .     A
C443   O500    1.264   .     A
C444   C449    1.401   .     A
C444   C1101   1.413   .     S
C444   N1134   1.434   .     S
C445   C448    1.454   .     S
C445   O491    1.265   .     A
C445   O489    1.277   .     A
C446   O492    1.287   .     A
C446   O490    1.285   .     A
C447   C1105   1.414   1_554 S
C447   N1132   1.425   1_554 S
C449   H479    1.081   .     S
C450   H462    1.112   .     S
C450   H464    1.111   .     S
C450   N484    1.446   .     S
C450   H463    1.110   .     S
C451   H470    1.111   .     S
C451   H469    1.110   .     S
C451   H1260   1.110   1_455 S
C451   N1134   1.448   .     S
C452   H473    1.110   .     S
C452   N487    1.446   .     S
C452   H618    1.111   1_455 S
C452   H619    1.110   1_455 S
C453   N485    1.436   .     S
C453   C1092   1.413   1_554 S
C453   C1102   1.430   1_554 S
C454   C455    1.421   .     A
C454   C1101   1.430   .     S
C454   C1104   1.433   .     S
C455   C459    1.408   .     A
C456   C1102   1.433   1_554 S
C456   C1105   1.428   1_554 S
C457   C458    1.396   .     A
C457   C1095   1.414   .     S
C457   C1104   1.428   .     S
C458   C459    1.381   .     A
C458   H477    1.083   .     S
C459   H480    1.080   .     S
H461   N1132   1.032   1_554 S
H465   N485    1.045   .     S
H466   N485    1.046   .     S
H467   N486    1.031   .     S
H468   C1171   1.110   1_554 S
H471   C511    1.086   .     S
H472   N487    1.032   .     S
H474   C524    1.111   .     S
H475   C524    1.110   .     S
H476   C9      1.086   1_565 S
H481   N51     1.044   1_565 S
H482   N483    1.046   .     S
N484   H1109   1.032   .     S
N484   C1095   1.425   .     S
N486   C1092   1.434   1_554 S
N486   C1099   1.448   1_554 S
N487   C582    1.437   1_455 S
O488   Zn503   1.911   .     S
O488   Zn502   1.951   .     S
O488   Zn501   1.960   .     S
O488   Zn504   1.935   .     S
O489   Zn502   1.918   .     S
O490   Zn504   1.936   .     S
O491   Zn503   1.938   .     S
O492   Zn501   1.923   .     S
O493   Zn501   1.930   .     S
O494   Zn504   1.923   .     S
O495   Zn502   1.924   .     S
O496   Zn503   1.940   .     S
O497   Zn504   1.933   .     S
O498   Zn501   1.916   .     S
O499   Zn502   1.934   .     S
O500   Zn503   1.935   .     S
C505   O569    1.274   .     A
C505   O567    1.274   .     A
C505   C511    1.441   .     S
C506   H550    1.077   .     S
C506   C528    1.410   .     A
C506   C520    1.390   .     A
C507   C519    1.394   .     A
C507   H532    1.084   .     S
C507   C520    1.395   .     A
C508   O568    1.274   .     A
C508   O570    1.281   .     A
C508   C510    1.473   .     S
C509   C527    1.413   .     A
C509   C518    1.480   .     S
C509   C521    1.399   .     A
C510   C583    1.342   .     S
C510   N631    1.437   .     S
C512   C515    1.463   .     S
C512   C81     1.338   1_565 S
C512   N123    1.443   1_565 S
C513   C514    1.438   .     S
C514   O571    1.280   .     A
C514   O565    1.279   .     A
C515   O566    1.270   .     A
C515   O572    1.264   .     A
C516   C521    1.401   .     A
C516   C1173   1.413   .     S
C516   N1206   1.434   .     S
C517   C520    1.454   .     S
C517   O563    1.265   .     A
C517   O561    1.277   .     A
C518   O564    1.287   .     A
C518   O562    1.285   .     A
C519   C1177   1.414   1_554 S
C519   N1204   1.425   1_554 S
C521   H551    1.081   .     S
C522   H534    1.112   .     S
C522   H536    1.111   .     S
C522   N556    1.446   .     S
C522   H535    1.110   .     S
C523   H542    1.111   .     S
C523   H541    1.110   .     S
C523   H1116   1.110   .     S
C523   N1206   1.448   .     S
C524   H545    1.110   .     S
C524   N559    1.446   .     S
C525   N557    1.436   .     S
C525   C1164   1.413   1_554 S
C525   C1174   1.430   1_554 S
C526   C527    1.421   .     A
C526   C1173   1.430   .     S
C526   C1176   1.433   .     S
C527   C531    1.408   .     A
C528   C1174   1.433   1_554 S
C528   C1177   1.428   1_554 S
C529   C530    1.396   .     A
C529   C1167   1.414   .     S
C529   C1176   1.428   .     S
C530   C531    1.381   .     A
C530   H549    1.083   .     S
C531   H552    1.080   .     S
H533   N1204   1.032   1_554 S
H537   N557    1.045   .     S
H538   N557    1.046   .     S
H539   N558    1.031   .     S
H540   C1243   1.110   1_554 S
H543   C583    1.086   .     S
H544   N559    1.032   .     S
H546   C596    1.111   .     S
H547   C596    1.110   .     S
H548   C81     1.086   1_565 S
H553   N123    1.044   1_565 S
H554   N555    1.046   .     S
N556   H1181   1.032   .     S
N556   C1167   1.425   .     S
N558   C1164   1.434   1_554 S
N558   C1171   1.448   1_554 S
O560   Zn575   1.911   .     S
O560   Zn574   1.951   .     S
O560   Zn573   1.960   .     S
O560   Zn576   1.935   .     S
O561   Zn574   1.918   .     S
O562   Zn576   1.936   .     S
O563   Zn575   1.938   .     S
O564   Zn573   1.923   .     S
O565   Zn573   1.930   .     S
O566   Zn576   1.923   .     S
O567   Zn574   1.924   .     S
O568   Zn575   1.940   .     S
O569   Zn576   1.933   .     S
O570   Zn573   1.916   .     S
O571   Zn574   1.934   .     S
O572   Zn575   1.935   .     S
C577   O641    1.274   .     A
C577   O639    1.274   .     A
C577   C583    1.441   .     S
C578   H622    1.077   .     S
C578   C600    1.410   .     A
C578   C592    1.390   .     A
C579   C591    1.394   .     A
C579   H604    1.084   .     S
C579   C592    1.395   .     A
C580   O640    1.274   .     A
C580   O642    1.281   .     A
C580   C582    1.473   .     S
C581   C599    1.413   .     A
C581   C590    1.480   .     S
C581   C593    1.399   .     A
C582   C439    1.342   1_655 S
C582   N487    1.437   1_655 S
C584   C587    1.463   .     S
C584   C153    1.338   1_565 S
C584   N195    1.443   1_565 S
C585   C586    1.438   .     S
C586   O643    1.280   .     A
C586   O637    1.279   .     A
C587   O638    1.270   .     A
C587   O644    1.264   .     A
C588   C593    1.401   .     A
C588   C1245   1.413   .     S
C588   N1278   1.434   .     S
C589   C592    1.454   .     S
C589   O635    1.265   .     A
C589   O633    1.277   .     A
C590   O636    1.287   .     A
C590   O634    1.285   .     A
C591   C1249   1.414   1_554 S
C591   N1276   1.425   1_554 S
C593   H623    1.081   .     S
C594   H606    1.112   .     S
C594   H608    1.111   .     S
C594   N628    1.446   .     S
C594   H607    1.110   .     S
C595   H614    1.111   .     S
C595   H613    1.110   .     S
C595   H1188   1.110   .     S
C595   N1278   1.448   .     S
C596   H617    1.110   .     S
C596   N631    1.446   .     S
C597   N629    1.436   .     S
C597   C1236   1.413   1_554 S
C597   C1246   1.430   1_554 S
C598   C599    1.421   .     A
C598   C1245   1.430   .     S
C598   C1248   1.433   .     S
C599   C603    1.408   .     A
C600   C1246   1.433   1_554 S
C600   C1249   1.428   1_554 S
C601   C602    1.396   .     A
C601   C1239   1.414   .     S
C601   C1248   1.428   .     S
C602   C603    1.381   .     A
C602   H621    1.083   .     S
C603   H624    1.080   .     S
H605   N1276   1.032   1_554 S
H609   N629    1.045   .     S
H610   N629    1.046   .     S
H611   N630    1.031   .     S
H612   C1099   1.110   1_654 S
H615   C439    1.086   1_655 S
H616   N631    1.032   .     S
H618   C452    1.111   1_655 S
H619   C452    1.110   1_655 S
H620   C153    1.086   1_565 S
H625   N195    1.044   1_565 S
H626   N627    1.046   .     S
N628   H1253   1.032   .     S
N628   C1239   1.425   .     S
N630   C1236   1.434   1_554 S
N630   C1243   1.448   1_554 S
O632   Zn647   1.911   .     S
O632   Zn646   1.951   .     S
O632   Zn645   1.960   .     S
O632   Zn648   1.935   .     S
O633   Zn646   1.918   .     S
O634   Zn648   1.936   .     S
O635   Zn647   1.938   .     S
O636   Zn645   1.923   .     S
O637   Zn645   1.930   .     S
O638   Zn648   1.923   .     S
O639   Zn646   1.924   .     S
O640   Zn647   1.940   .     S
O641   Zn648   1.933   .     S
O642   Zn645   1.916   .     S
O643   Zn646   1.934   .     S
O644   Zn647   1.935   .     S
C649   O713    1.274   .     A
C649   O711    1.274   .     A
C649   C655    1.441   .     S
C650   H694    1.077   .     S
C650   C672    1.410   .     A
C650   C664    1.390   .     A
C651   C663    1.394   .     A
C651   H676    1.084   .     S
C651   C664    1.395   .     A
C652   O712    1.274   .     A
C652   O714    1.281   .     A
C652   C654    1.473   .     S
C653   C671    1.413   .     A
C653   C662    1.480   .     S
C653   C665    1.399   .     A
C654   C727    1.342   .     S
C654   N775    1.437   .     S
C655   C798    1.342   1_455 S
C655   H831    1.086   1_455 S
C656   C659    1.463   .     S
C656   C873    1.338   .     S
C656   N915    1.443   .     S
C657   C658    1.438   .     S
C657   C1088   1.338   1_545 S
C657   H1124   1.086   1_545 S
C658   O715    1.280   .     A
C658   O709    1.279   .     A
C659   O710    1.270   .     A
C659   O716    1.264   .     A
C660   C665    1.401   .     A
C660   C21     1.413   1_556 S
C660   N54     1.434   1_556 S
C661   C664    1.454   .     S
C661   O707    1.265   .     A
C661   O705    1.277   .     A
C662   O708    1.287   .     A
C662   O706    1.285   .     A
C665   H695    1.081   .     S
C666   H678    1.112   .     S
C666   H680    1.111   .     S
C666   N700    1.446   .     S
C666   H679    1.110   .     S
C667   H686    1.111   .     S
C667   H685    1.110   .     S
C667   H180    1.110   1_456 S
C667   N54     1.448   1_556 S
C668   H689    1.110   .     S
C668   N703    1.446   .     S
C668   H834    1.111   1_455 S
C668   H835    1.110   1_455 S
C669   N701    1.436   .     S
C670   C671    1.421   .     A
C670   C21     1.430   1_556 S
C670   C24     1.433   1_556 S
C671   C675    1.408   .     A
C673   C674    1.396   .     A
C673   C15     1.414   1_556 S
C673   C24     1.428   1_556 S
C674   C675    1.381   .     A
C674   H693    1.083   .     S
C675   H696    1.080   .     S
H681   N701    1.045   .     S
H682   N701    1.046   .     S
H683   N702    1.031   .     S
H687   C727    1.086   .     S
H688   N703    1.032   .     S
H690   C740    1.111   .     S
H691   C740    1.110   .     S
H692   C873    1.086   .     S
H697   N915    1.044   .     S
H698   N699    1.046   .     S
N699   H1129   1.044   1_545 S
N699   C1088   1.443   1_545 S
N700   H29     1.032   1_556 S
N700   C15     1.425   1_556 S
N703   C798    1.437   1_455 S
O704   Zn719   1.911   .     S
O704   Zn718   1.951   .     S
O704   Zn717   1.960   .     S
O704   Zn720   1.935   .     S
O705   Zn718   1.918   .     S
O706   Zn720   1.936   .     S
O707   Zn719   1.938   .     S
O708   Zn717   1.923   .     S
O709   Zn717   1.930   .     S
O710   Zn720   1.923   .     S
O711   Zn718   1.924   .     S
O712   Zn719   1.940   .     S
O713   Zn720   1.933   .     S
O714   Zn717   1.916   .     S
O715   Zn718   1.934   .     S
O716   Zn719   1.935   .     S
C721   O785    1.274   .     A
C721   O783    1.274   .     A
C721   C727    1.441   .     S
C722   H766    1.077   .     S
C722   C744    1.410   .     A
C722   C736    1.390   .     A
C723   C735    1.394   .     A
C723   H748    1.084   .     S
C723   C736    1.395   .     A
C724   O784    1.274   .     A
C724   O786    1.281   .     A
C724   C726    1.473   .     S
C725   C743    1.413   .     A
C725   C734    1.480   .     S
C725   C737    1.399   .     A
C726   C799    1.342   .     S
C726   N847    1.437   .     S
C728   C731    1.463   .     S
C728   C945    1.338   .     S
C728   N987    1.443   .     S
C729   C730    1.438   .     S
C729   C1160   1.338   1_545 S
C729   H1196   1.086   1_545 S
C730   O787    1.280   .     A
C730   O781    1.279   .     A
C731   O782    1.270   .     A
C731   O788    1.264   .     A
C732   C737    1.401   .     A
C732   C93     1.413   1_556 S
C732   N126    1.434   1_556 S
C733   C736    1.454   .     S
C733   O779    1.265   .     A
C733   O777    1.277   .     A
C734   O780    1.287   .     A
C734   O778    1.285   .     A
C737   H767    1.081   .     S
C738   H750    1.112   .     S
C738   H752    1.111   .     S
C738   N772    1.446   .     S
C738   H751    1.110   .     S
C739   H758    1.111   .     S
C739   H757    1.110   .     S
C739   H36     1.110   1_556 S
C739   N126    1.448   1_556 S
C740   H761    1.110   .     S
C740   N775    1.446   .     S
C741   N773    1.436   .     S
C742   C743    1.421   .     A
C742   C93     1.430   1_556 S
C742   C96     1.433   1_556 S
C743   C747    1.408   .     A
C745   C746    1.396   .     A
C745   C87     1.414   1_556 S
C745   C96     1.428   1_556 S
C746   C747    1.381   .     A
C746   H765    1.083   .     S
C747   H768    1.080   .     S
H753   N773    1.045   .     S
H754   N773    1.046   .     S
H755   N774    1.031   .     S
H759   C799    1.086   .     S
H760   N775    1.032   .     S
H762   C812    1.111   .     S
H763   C812    1.110   .     S
H764   C945    1.086   .     S
H769   N987    1.044   .     S
H770   N771    1.046   .     S
N771   H1201   1.044   1_545 S
N771   C1160   1.443   1_545 S
N772   H101    1.032   1_556 S
N772   C87     1.425   1_556 S
O776   Zn791   1.911   .     S
O776   Zn790   1.951   .     S
O776   Zn789   1.960   .     S
O776   Zn792   1.935   .     S
O777   Zn790   1.918   .     S
O778   Zn792   1.936   .     S
O779   Zn791   1.938   .     S
O780   Zn789   1.923   .     S
O781   Zn789   1.930   .     S
O782   Zn792   1.923   .     S
O783   Zn790   1.924   .     S
O784   Zn791   1.940   .     S
O785   Zn792   1.933   .     S
O786   Zn789   1.916   .     S
O787   Zn790   1.934   .     S
O788   Zn791   1.935   .     S
C793   O857    1.274   .     A
C793   O855    1.274   .     A
C793   C799    1.441   .     S
C794   H838    1.077   .     S
C794   C816    1.410   .     A
C794   C808    1.390   .     A
C795   C807    1.394   .     A
C795   H820    1.084   .     S
C795   C808    1.395   .     A
C796   O856    1.274   .     A
C796   O858    1.281   .     A
C796   C798    1.473   .     S
C797   C815    1.413   .     A
C797   C806    1.480   .     S
C797   C809    1.399   .     A
C798   C655    1.342   1_655 S
C798   N703    1.437   1_655 S
C800   C803    1.463   .     S
C800   C1017   1.338   .     S
C800   N1059   1.443   .     S
C801   C802    1.438   .     S
C801   C1232   1.338   1_545 S
C801   H1268   1.086   1_545 S
C802   O859    1.280   .     A
C802   O853    1.279   .     A
C803   O854    1.270   .     A
C803   O860    1.264   .     A
C804   C809    1.401   .     A
C804   C165    1.413   1_556 S
C804   N198    1.434   1_556 S
C805   C808    1.454   .     S
C805   O851    1.265   .     A
C805   O849    1.277   .     A
C806   O852    1.287   .     A
C806   O850    1.285   .     A
C809   H839    1.081   .     S
C810   H822    1.112   .     S
C810   H824    1.111   .     S
C810   N844    1.446   .     S
C810   H823    1.110   .     S
C811   H830    1.111   .     S
C811   H829    1.110   .     S
C811   H108    1.110   1_556 S
C811   N198    1.448   1_556 S
C812   H833    1.110   .     S
C812   N847    1.446   .     S
C813   N845    1.436   .     S
C814   C815    1.421   .     A
C814   C165    1.430   1_556 S
C814   C168    1.433   1_556 S
C815   C819    1.408   .     A
C817   C818    1.396   .     A
C817   C159    1.414   1_556 S
C817   C168    1.428   1_556 S
C818   C819    1.381   .     A
C818   H837    1.083   .     S
C819   H840    1.080   .     S
H825   N845    1.045   .     S
H826   N845    1.046   .     S
H827   N846    1.031   .     S
H828   C19     1.110   1_655 S
H831   C655    1.086   1_655 S
H832   N847    1.032   .     S
H834   C668    1.111   1_655 S
H835   C668    1.110   1_655 S
H836   C1017   1.086   .     S
H841   N1059   1.044   .     S
H842   N843    1.046   .     S
N843   H1273   1.044   1_545 S
N843   C1232   1.443   1_545 S
N844   H173    1.032   1_556 S
N844   C159    1.425   1_556 S
O848   Zn863   1.911   .     S
O848   Zn862   1.951   .     S
O848   Zn861   1.960   .     S
O848   Zn864   1.935   .     S
O849   Zn862   1.918   .     S
O850   Zn864   1.936   .     S
O851   Zn863   1.938   .     S
O852   Zn861   1.923   .     S
O853   Zn861   1.930   .     S
O854   Zn864   1.923   .     S
O855   Zn862   1.924   .     S
O856   Zn863   1.940   .     S
O857   Zn864   1.933   .     S
O858   Zn861   1.916   .     S
O859   Zn862   1.934   .     S
O860   Zn863   1.935   .     S
C865   O929    1.274   .     A
C865   O927    1.274   .     A
C865   C871    1.441   .     S
C866   H910    1.077   .     S
C866   C888    1.410   .     A
C866   C880    1.390   .     A
C867   C879    1.394   .     A
C867   H892    1.084   .     S
C867   C880    1.395   .     A
C868   O928    1.274   .     A
C868   O930    1.281   .     A
C868   C870    1.473   .     S
C869   C887    1.413   .     A
C869   C878    1.480   .     S
C869   C881    1.399   .     A
C870   C943    1.342   .     S
C870   N991    1.437   .     S
C871   C1014   1.342   1_455 S
C871   H1047   1.086   1_455 S
C872   C875    1.463   .     S
C872   C1089   1.338   .     S
C872   N1131   1.443   .     S
C873   C874    1.438   .     S
C874   O931    1.280   .     A
C874   O925    1.279   .     A
C875   O926    1.270   .     A
C875   O932    1.264   .     A
C876   C881    1.401   .     A
C876   C237    1.413   1_556 S
C876   N270    1.434   1_556 S
C877   C880    1.454   .     S
C877   O923    1.265   .     A
C877   O921    1.277   .     A
C878   O924    1.287   .     A
C878   O922    1.285   .     A
C881   H911    1.081   .     S
C882   H894    1.112   .     S
C882   H896    1.111   .     S
C882   N916    1.446   .     S
C882   H895    1.110   .     S
C883   H902    1.111   .     S
C883   H901    1.110   .     S
C883   H396    1.110   1_456 S
C883   N270    1.448   1_556 S
C884   H905    1.110   .     S
C884   N919    1.446   .     S
C884   H1050   1.111   1_455 S
C884   H1051   1.110   1_455 S
C885   N917    1.436   .     S
C886   C887    1.421   .     A
C886   C237    1.430   1_556 S
C886   C240    1.433   1_556 S
C887   C891    1.408   .     A
C889   C890    1.396   .     A
C889   C231    1.414   1_556 S
C889   C240    1.428   1_556 S
C890   C891    1.381   .     A
C890   H909    1.083   .     S
C891   H912    1.080   .     S
H897   N917    1.045   .     S
H898   N917    1.046   .     S
H899   N918    1.031   .     S
H903   C943    1.086   .     S
H904   N919    1.032   .     S
H906   C956    1.111   .     S
H907   C956    1.110   .     S
H908   C1089   1.086   .     S
H913   N1131   1.044   .     S
H914   N915    1.046   .     S
N916   H245    1.032   1_556 S
N916   C231    1.425   1_556 S
N919   C1014   1.437   1_455 S
O920   Zn935   1.911   .     S
O920   Zn934   1.951   .     S
O920   Zn933   1.960   .     S
O920   Zn936   1.935   .     S
O921   Zn934   1.918   .     S
O922   Zn936   1.936   .     S
O923   Zn935   1.938   .     S
O924   Zn933   1.923   .     S
O925   Zn933   1.930   .     S
O926   Zn936   1.923   .     S
O927   Zn934   1.924   .     S
O928   Zn935   1.940   .     S
O929   Zn936   1.933   .     S
O930   Zn933   1.916   .     S
O931   Zn934   1.934   .     S
O932   Zn935   1.935   .     S
C937   O1001   1.274   .     A
C937   O999    1.274   .     A
C937   C943    1.441   .     S
C938   H982    1.077   .     S
C938   C960    1.410   .     A
C938   C952    1.390   .     A
C939   C951    1.394   .     A
C939   H964    1.084   .     S
C939   C952    1.395   .     A
C940   O1000   1.274   .     A
C940   O1002   1.281   .     A
C940   C942    1.473   .     S
C941   C959    1.413   .     A
C941   C950    1.480   .     S
C941   C953    1.399   .     A
C942   C1015   1.342   .     S
C942   N1063   1.437   .     S
C944   C947    1.463   .     S
C944   C1161   1.338   .     S
C944   N1203   1.443   .     S
C945   C946    1.438   .     S
C946   O1003   1.280   .     A
C946   O997    1.279   .     A
C947   O998    1.270   .     A
C947   O1004   1.264   .     A
C948   C953    1.401   .     A
C948   C309    1.413   1_556 S
C948   N342    1.434   1_556 S
C949   C952    1.454   .     S
C949   O995    1.265   .     A
C949   O993    1.277   .     A
C950   O996    1.287   .     A
C950   O994    1.285   .     A
C953   H983    1.081   .     S
C954   H966    1.112   .     S
C954   H968    1.111   .     S
C954   N988    1.446   .     S
C954   H967    1.110   .     S
C955   H974    1.111   .     S
C955   H973    1.110   .     S
C955   H252    1.110   1_556 S
C955   N342    1.448   1_556 S
C956   H977    1.110   .     S
C956   N991    1.446   .     S
C957   N989    1.436   .     S
C958   C959    1.421   .     A
C958   C309    1.430   1_556 S
C958   C312    1.433   1_556 S
C959   C963    1.408   .     A
C961   C962    1.396   .     A
C961   C303    1.414   1_556 S
C961   C312    1.428   1_556 S
C962   C963    1.381   .     A
C962   H981    1.083   .     S
C963   H984    1.080   .     S
H969   N989    1.045   .     S
H970   N989    1.046   .     S
H971   N990    1.031   .     S
H975   C1015   1.086   .     S
H976   N991    1.032   .     S
H978   C1028   1.111   .     S
H979   C1028   1.110   .     S
H980   C1161   1.086   .     S
H985   N1203   1.044   .     S
H986   N987    1.046   .     S
N988   H317    1.032   1_556 S
N988   C303    1.425   1_556 S
O992   Zn1007  1.911   .     S
O992   Zn1006  1.951   .     S
O992   Zn1005  1.960   .     S
O992   Zn1008  1.935   .     S
O993   Zn1006  1.918   .     S
O994   Zn1008  1.936   .     S
O995   Zn1007  1.938   .     S
O996   Zn1005  1.923   .     S
O997   Zn1005  1.930   .     S
O998   Zn1008  1.923   .     S
O999   Zn1006  1.924   .     S
O1000  Zn1007  1.940   .     S
O1001  Zn1008  1.933   .     S
O1002  Zn1005  1.916   .     S
O1003  Zn1006  1.934   .     S
O1004  Zn1007  1.935   .     S
C1009  O1073   1.274   .     A
C1009  O1071   1.274   .     A
C1009  C1015   1.441   .     S
C1010  H1054   1.077   .     S
C1010  C1032   1.410   .     A
C1010  C1024   1.390   .     A
C1011  C1023   1.394   .     A
C1011  H1036   1.084   .     S
C1011  C1024   1.395   .     A
C1012  O1072   1.274   .     A
C1012  O1074   1.281   .     A
C1012  C1014   1.473   .     S
C1013  C1031   1.413   .     A
C1013  C1022   1.480   .     S
C1013  C1025   1.399   .     A
C1014  C871    1.342   1_655 S
C1014  N919    1.437   1_655 S
C1016  C1019   1.463   .     S
C1016  C1233   1.338   .     S
C1016  N1275   1.443   .     S
C1017  C1018   1.438   .     S
C1018  O1075   1.280   .     A
C1018  O1069   1.279   .     A
C1019  O1070   1.270   .     A
C1019  O1076   1.264   .     A
C1020  C1025   1.401   .     A
C1020  C381    1.413   1_556 S
C1020  N414    1.434   1_556 S
C1021  C1024   1.454   .     S
C1021  O1067   1.265   .     A
C1021  O1065   1.277   .     A
C1022  O1068   1.287   .     A
C1022  O1066   1.285   .     A
C1025  H1055   1.081   .     S
C1026  H1038   1.112   .     S
C1026  H1040   1.111   .     S
C1026  N1060   1.446   .     S
C1026  H1039   1.110   .     S
C1027  H1046   1.111   .     S
C1027  H1045   1.110   .     S
C1027  H324    1.110   1_556 S
C1027  N414    1.448   1_556 S
C1028  H1049   1.110   .     S
C1028  N1063   1.446   .     S
C1029  N1061   1.436   .     S
C1030  C1031   1.421   .     A
C1030  C381    1.430   1_556 S
C1030  C384    1.433   1_556 S
C1031  C1035   1.408   .     A
C1033  C1034   1.396   .     A
C1033  C375    1.414   1_556 S
C1033  C384    1.428   1_556 S
C1034  C1035   1.381   .     A
C1034  H1053   1.083   .     S
C1035  H1056   1.080   .     S
H1041  N1061   1.045   .     S
H1042  N1061   1.046   .     S
H1043  N1062   1.031   .     S
H1044  C235    1.110   1_655 S
H1047  C871    1.086   1_655 S
H1048  N1063   1.032   .     S
H1050  C884    1.111   1_655 S
H1051  C884    1.110   1_655 S
H1052  C1233   1.086   .     S
H1057  N1275   1.044   .     S
H1058  N1059   1.046   .     S
N1060  H389    1.032   1_556 S
N1060  C375    1.425   1_556 S
O1064  Zn1079  1.911   .     S
O1064  Zn1078  1.951   .     S
O1064  Zn1077  1.960   .     S
O1064  Zn1080  1.935   .     S
O1065  Zn1078  1.918   .     S
O1066  Zn1080  1.936   .     S
O1067  Zn1079  1.938   .     S
O1068  Zn1077  1.923   .     S
O1069  Zn1077  1.930   .     S
O1070  Zn1080  1.923   .     S
O1071  Zn1078  1.924   .     S
O1072  Zn1079  1.940   .     S
O1073  Zn1080  1.933   .     S
O1074  Zn1077  1.916   .     S
O1075  Zn1078  1.934   .     S
O1076  Zn1079  1.935   .     S
C1081  O1145   1.274   .     A
C1081  O1143   1.274   .     A
C1081  C1087   1.441   .     S
C1082  H1126   1.077   .     S
C1082  C1104   1.410   .     A
C1082  C1096   1.390   .     A
C1083  C1095   1.394   .     A
C1083  H1108   1.084   .     S
C1083  C1096   1.395   .     A
C1084  O1144   1.274   .     A
C1084  O1146   1.281   .     A
C1084  C1086   1.473   .     S
C1085  C1103   1.413   .     A
C1085  C1094   1.480   .     S
C1085  C1097   1.399   .     A
C1086  C1159   1.342   .     S
C1086  N1207   1.437   .     S
C1087  C1230   1.342   1_455 S
C1087  H1263   1.086   1_455 S
C1088  C1091   1.463   .     S
C1088  C657    1.338   1_565 S
C1088  N699    1.443   1_565 S
C1089  C1090   1.438   .     S
C1090  O1147   1.280   .     A
C1090  O1141   1.279   .     A
C1091  O1142   1.270   .     A
C1091  O1148   1.264   .     A
C1092  C1097   1.401   .     A
C1092  C453    1.413   1_556 S
C1092  N486    1.434   1_556 S
C1093  C1096   1.454   .     S
C1093  O1139   1.265   .     A
C1093  O1137   1.277   .     A
C1094  O1140   1.287   .     A
C1094  O1138   1.285   .     A
C1097  H1127   1.081   .     S
C1098  H1110   1.112   .     S
C1098  H1112   1.111   .     S
C1098  N1132   1.446   .     S
C1098  H1111   1.110   .     S
C1099  H1118   1.111   .     S
C1099  H1117   1.110   .     S
C1099  H612    1.110   1_456 S
C1099  N486    1.448   1_556 S
C1100  H1121   1.110   .     S
C1100  N1135   1.446   .     S
C1100  H1266   1.111   1_455 S
C1100  H1267   1.110   1_455 S
C1101  N1133   1.436   .     S
C1102  C1103   1.421   .     A
C1102  C453    1.430   1_556 S
C1102  C456    1.433   1_556 S
C1103  C1107   1.408   .     A
C1105  C1106   1.396   .     A
C1105  C447    1.414   1_556 S
C1105  C456    1.428   1_556 S
C1106  C1107   1.381   .     A
C1106  H1125   1.083   .     S
C1107  H1128   1.080   .     S
H1113  N1133   1.045   .     S
H1114  N1133   1.046   .     S
H1115  N1134   1.031   .     S
H1119  C1159   1.086   .     S
H1120  N1135   1.032   .     S
H1122  C1172   1.111   .     S
H1123  C1172   1.110   .     S
H1124  C657    1.086   1_565 S
H1129  N699    1.044   1_565 S
H1130  N1131   1.046   .     S
N1132  H461    1.032   1_556 S
N1132  C447    1.425   1_556 S
N1135  C1230   1.437   1_455 S
O1136  Zn1151  1.911   .     S
O1136  Zn1150  1.951   .     S
O1136  Zn1149  1.960   .     S
O1136  Zn1152  1.935   .     S
O1137  Zn1150  1.918   .     S
O1138  Zn1152  1.936   .     S
O1139  Zn1151  1.938   .     S
O1140  Zn1149  1.923   .     S
O1141  Zn1149  1.930   .     S
O1142  Zn1152  1.923   .     S
O1143  Zn1150  1.924   .     S
O1144  Zn1151  1.940   .     S
O1145  Zn1152  1.933   .     S
O1146  Zn1149  1.916   .     S
O1147  Zn1150  1.934   .     S
O1148  Zn1151  1.935   .     S
C1153  O1217   1.274   .     A
C1153  O1215   1.274   .     A
C1153  C1159   1.441   .     S
C1154  H1198   1.077   .     S
C1154  C1176   1.410   .     A
C1154  C1168   1.390   .     A
C1155  C1167   1.394   .     A
C1155  H1180   1.084   .     S
C1155  C1168   1.395   .     A
C1156  O1216   1.274   .     A
C1156  O1218   1.281   .     A
C1156  C1158   1.473   .     S
C1157  C1175   1.413   .     A
C1157  C1166   1.480   .     S
C1157  C1169   1.399   .     A
C1158  C1231   1.342   .     S
C1158  N1279   1.437   .     S
C1160  C1163   1.463   .     S
C1160  C729    1.338   1_565 S
C1160  N771    1.443   1_565 S
C1161  C1162   1.438   .     S
C1162  O1219   1.280   .     A
C1162  O1213   1.279   .     A
C1163  O1214   1.270   .     A
C1163  O1220   1.264   .     A
C1164  C1169   1.401   .     A
C1164  C525    1.413   1_556 S
C1164  N558    1.434   1_556 S
C1165  C1168   1.454   .     S
C1165  O1211   1.265   .     A
C1165  O1209   1.277   .     A
C1166  O1212   1.287   .     A
C1166  O1210   1.285   .     A
C1169  H1199   1.081   .     S
C1170  H1182   1.112   .     S
C1170  H1184   1.111   .     S
C1170  N1204   1.446   .     S
C1170  H1183   1.110   .     S
C1171  H1190   1.111   .     S
C1171  H1189   1.110   .     S
C1171  H468    1.110   1_556 S
C1171  N558    1.448   1_556 S
C1172  H1193   1.110   .     S
C1172  N1207   1.446   .     S
C1173  N1205   1.436   .     S
C1174  C1175   1.421   .     A
C1174  C525    1.430   1_556 S
C1174  C528    1.433   1_556 S
C1175  C1179   1.408   .     A
C1177  C1178   1.396   .     A
C1177  C519    1.414   1_556 S
C1177  C528    1.428   1_556 S
C1178  C1179   1.381   .     A
C1178  H1197   1.083   .     S
C1179  H1200   1.080   .     S
H1185  N1205   1.045   .     S
H1186  N1205   1.046   .     S
H1187  N1206   1.031   .     S
H1191  C1231   1.086   .     S
H1192  N1207   1.032   .     S
H1194  C1244   1.111   .     S
H1195  C1244   1.110   .     S
H1196  C729    1.086   1_565 S
H1201  N771    1.044   1_565 S
H1202  N1203   1.046   .     S
N1204  H533    1.032   1_556 S
N1204  C519    1.425   1_556 S
O1208  Zn1223  1.911   .     S
O1208  Zn1222  1.951   .     S
O1208  Zn1221  1.960   .     S
O1208  Zn1224  1.935   .     S
O1209  Zn1222  1.918   .     S
O1210  Zn1224  1.936   .     S
O1211  Zn1223  1.938   .     S
O1212  Zn1221  1.923   .     S
O1213  Zn1221  1.930   .     S
O1214  Zn1224  1.923   .     S
O1215  Zn1222  1.924   .     S
O1216  Zn1223  1.940   .     S
O1217  Zn1224  1.933   .     S
O1218  Zn1221  1.916   .     S
O1219  Zn1222  1.934   .     S
O1220  Zn1223  1.935   .     S
C1225  O1289   1.274   .     A
C1225  O1287   1.274   .     A
C1225  C1231   1.441   .     S
C1226  H1270   1.077   .     S
C1226  C1248   1.410   .     A
C1226  C1240   1.390   .     A
C1227  C1239   1.394   .     A
C1227  H1252   1.084   .     S
C1227  C1240   1.395   .     A
C1228  O1288   1.274   .     A
C1228  O1290   1.281   .     A
C1228  C1230   1.473   .     S
C1229  C1247   1.413   .     A
C1229  C1238   1.480   .     S
C1229  C1241   1.399   .     A
C1230  C1087   1.342   1_655 S
C1230  N1135   1.437   1_655 S
C1232  C1235   1.463   .     S
C1232  C801    1.338   1_565 S
C1232  N843    1.443   1_565 S
C1233  C1234   1.438   .     S
C1234  O1291   1.280   .     A
C1234  O1285   1.279   .     A
C1235  O1286   1.270   .     A
C1235  O1292   1.264   .     A
C1236  C1241   1.401   .     A
C1236  C597    1.413   1_556 S
C1236  N630    1.434   1_556 S
C1237  C1240   1.454   .     S
C1237  O1283   1.265   .     A
C1237  O1281   1.277   .     A
C1238  O1284   1.287   .     A
C1238  O1282   1.285   .     A
C1241  H1271   1.081   .     S
C1242  H1254   1.112   .     S
C1242  H1256   1.111   .     S
C1242  N1276   1.446   .     S
C1242  H1255   1.110   .     S
C1243  H1262   1.111   .     S
C1243  H1261   1.110   .     S
C1243  H540    1.110   1_556 S
C1243  N630    1.448   1_556 S
C1244  H1265   1.110   .     S
C1244  N1279   1.446   .     S
C1245  N1277   1.436   .     S
C1246  C1247   1.421   .     A
C1246  C597    1.430   1_556 S
C1246  C600    1.433   1_556 S
C1247  C1251   1.408   .     A
C1249  C1250   1.396   .     A
C1249  C591    1.414   1_556 S
C1249  C600    1.428   1_556 S
C1250  C1251   1.381   .     A
C1250  H1269   1.083   .     S
C1251  H1272   1.080   .     S
H1257  N1277   1.045   .     S
H1258  N1277   1.046   .     S
H1259  N1278   1.031   .     S
H1260  C451    1.110   1_655 S
H1263  C1087   1.086   1_655 S
H1264  N1279   1.032   .     S
H1266  C1100   1.111   1_655 S
H1267  C1100   1.110   1_655 S
H1268  C801    1.086   1_565 S
H1273  N843    1.044   1_565 S
H1274  N1275   1.046   .     S
N1276  H605    1.032   1_556 S
N1276  C591    1.425   1_556 S
O1280  Zn1295  1.911   .     S
O1280  Zn1294  1.951   .     S
O1280  Zn1293  1.960   .     S
O1280  Zn1296  1.935   .     S
O1281  Zn1294  1.918   .     S
O1282  Zn1296  1.936   .     S
O1283  Zn1295  1.938   .     S
O1284  Zn1293  1.923   .     S
O1285  Zn1293  1.930   .     S
O1286  Zn1296  1.923   .     S
O1287  Zn1294  1.924   .     S
O1288  Zn1295  1.940   .     S
O1289  Zn1296  1.933   .     S
O1290  Zn1293  1.916   .     S
O1291  Zn1294  1.934   .     S
O1292  Zn1295  1.935   .     S
