data_str_m3_o10_o17_pcu_sym.159
_audit_creation_date              2020-01-03
_audit_creation_method            'Materials Studio'
_symmetry_space_group_name_H-M    'P1'
_symmetry_Int_Tables_number       1
_symmetry_cell_setting            triclinic
loop_
_symmetry_equiv_pos_as_xyz
  x,y,z
_cell_length_a                    23.3444
_cell_length_b                    26.0348
_cell_length_c                    29.8643
_cell_angle_alpha                 91.4698
_cell_angle_beta                  85.7567
_cell_angle_gamma                 93.3894
loop_
_atom_site_label
_atom_site_type_symbol
_atom_site_fract_x
_atom_site_fract_y
_atom_site_fract_z
_atom_site_U_iso_or_equiv
_atom_site_adp_type
_atom_site_occupancy
C1     C     0.18169   0.26464   0.24775   0.00000  Uiso   1.00
C2     C     0.19003   0.21007   0.40580   0.00000  Uiso   1.00
C3     C     0.16602   0.16773   0.11601   0.00000  Uiso   1.00
C4     C     0.16829   0.16594   0.38380   0.00000  Uiso   1.00
C5     C     0.18928   0.21133   0.09327   0.00000  Uiso   1.00
C6     C     0.14559   0.12247   0.40686   0.00000  Uiso   1.00
C7     C     0.18734   0.21268   0.04643   0.00000  Uiso   1.00
C8     C     0.15077   0.12052   0.45325   0.00000  Uiso   1.00
C9     C     0.16971   0.16687   0.02316   0.00000  Uiso   1.00
C10    C     0.16995   0.16603   0.47630   0.00000  Uiso   1.00
C11    C     0.15209   0.12163   0.04678   0.00000  Uiso   1.00
C12    C     0.15159   0.06866   0.25181   0.00000  Uiso   1.00
C13    C     0.18883   0.21087   0.45252   0.00000  Uiso   1.00
C14    C     0.20383   0.25801   0.02252   0.00000  Uiso   1.00
C15    C     0.13672   0.07472   0.47704   0.00000  Uiso   1.00
C16    C     0.06787   0.07359   0.11887   0.00000  Uiso   1.00
C17    C     0.17211   0.28331   0.37007   0.00000  Uiso   1.00
C18    C     0.27339   0.25001   0.11486   0.00000  Uiso   1.00
C19    C     0.06057   0.08421   0.38715   0.00000  Uiso   1.00
C20    C     0.26305   0.33192   0.02974   0.00000  Uiso   1.00
C21    C     0.07481   0.00232   0.47309   0.00000  Uiso   1.00
C22    C     0.27812   0.00509   0.21248   0.00000  Uiso   1.00
C23    C     0.20486   0.25625   0.47563   0.00000  Uiso   1.00
C24    C     0.05399   0.32921   0.28606   0.00000  Uiso   1.00
C25    C     0.13994   0.07565   0.02347   0.00000  Uiso   1.00
C26    C     0.19002   0.31884   0.24845   0.00000  Uiso   1.00
C27    C     0.14312   0.01443   0.25086   0.00000  Uiso   1.00
C28    C     0.16717   0.16589   0.33627   0.00000  Uiso   1.00
C29    C     0.16627   0.16721   0.16366   0.00000  Uiso   1.00
C30    C     0.14725   0.12300   0.09357   0.00000  Uiso   1.00
H31    H     0.21605   0.29110   0.45726   0.00000  Uiso   1.00
H32    H     0.29208   0.23741   0.08122   0.00000  Uiso   1.00
H33    H     0.28642   0.22412   0.14073   0.00000  Uiso   1.00
H34    H     0.04315   0.09274   0.42212   0.00000  Uiso   1.00
H35    H     0.04061   0.04638   0.37712   0.00000  Uiso   1.00
H36    H     0.04693   0.11344   0.36438   0.00000  Uiso   1.00
H37    H     0.25550   0.02156   0.00014   0.00000  Uiso   1.00
H38    H     0.27652   0.02613   0.05646   0.00000  Uiso   1.00
H39    H     0.29899   0.30612   0.02186   0.00000  Uiso   1.00
H40    H     0.04113   0.02896   0.48527   0.00000  Uiso   1.00
H41    H     0.08539   0.31067   0.00056   0.00000  Uiso   1.00
H42    H     0.13279   0.04003   0.04133   0.00000  Uiso   1.00
H43    H     0.05611   0.31026   0.44689   0.00000  Uiso   1.00
H44    H     0.25497   0.02060   0.18490   0.00000  Uiso   1.00
H45    H     0.29167   0.29912   0.20366   0.00000  Uiso   1.00
H46    H     0.31799   0.02966   0.21562   0.00000  Uiso   1.00
H47    H     0.01494   0.30342   0.28325   0.00000  Uiso   1.00
H48    H     0.03903   0.03506   0.29336   0.00000  Uiso   1.00
H49    H     0.07678   0.31582   0.31464   0.00000  Uiso   1.00
H50    H     0.31210   0.11467   0.18504   0.00000  Uiso   1.00
H51    H     0.02072   0.21832   0.31553   0.00000  Uiso   1.00
H52    H     0.04658   0.11086   0.12068   0.00000  Uiso   1.00
H53    H     0.05223   0.05136   0.14895   0.00000  Uiso   1.00
H54    H     0.05406   0.05100   0.08917   0.00000  Uiso   1.00
H55    H     0.13837   0.28845   0.39775   0.00000  Uiso   1.00
H56    H     0.15165   0.26768   0.34002   0.00000  Uiso   1.00
H57    H     0.19231   0.32185   0.36175   0.00000  Uiso   1.00
H58    H     0.29293   0.28902   0.12165   0.00000  Uiso   1.00
N59    N     0.31678   0.15265   0.23783   0.00000  Uiso   1.00
N60    N     0.01656   0.18068   0.26217   0.00000  Uiso   1.00
O61    O     0.12975   0.24619   0.25298   0.00000  Uiso   1.00
O62    O     0.21527   0.25137   0.38161   0.00000  Uiso   1.00
O63    O     0.21282   0.25257   0.11740   0.00000  Uiso   1.00
O64    O     0.12106   0.08132   0.38322   0.00000  Uiso   1.00
O65    O     0.21189   0.30460   0.04574   0.00000  Uiso   1.00
O66    O     0.12516   0.02863   0.45408   0.00000  Uiso   1.00
O67    O     0.24542   0.00609   0.25419   0.00000  Uiso   1.00
O68    O     0.08775   0.32714   0.24483   0.00000  Uiso   1.00
O69    O     0.01031   0.12918   0.20276   0.00000  Uiso   1.00
O70    O     0.32282   0.20387   0.29747   0.00000  Uiso   1.00
O71    O     0.20358   0.08714   0.24702   0.00000  Uiso   1.00
O72    O     0.22613   0.23721   0.24518   0.00000  Uiso   1.00
O73    O     0.10720   0.09613   0.25482   0.00000  Uiso   1.00
O74    O     0.11847   0.17117   0.31997   0.00000  Uiso   1.00
O75    O     0.21486   0.16216   0.18002   0.00000  Uiso   1.00
O76    O     0.21485   0.16219   0.31218   0.00000  Uiso   1.00
O77    O     0.11848   0.17115   0.18782   0.00000  Uiso   1.00
O78    O     0.12851   0.07975   0.11795   0.00000  Uiso   1.00
Zn79   Zn    0.10231   0.17266   0.25521   0.00000  Uiso   1.00
Zn80   Zn    0.23102   0.16067   0.24479   0.00000  Uiso   1.00
C81    C     0.51502   0.26464   0.24775   0.00000  Uiso   1.00
C82    C     0.52337   0.21007   0.40580   0.00000  Uiso   1.00
C83    C     0.49935   0.16773   0.11601   0.00000  Uiso   1.00
C84    C     0.50163   0.16594   0.38380   0.00000  Uiso   1.00
C85    C     0.52261   0.21133   0.09327   0.00000  Uiso   1.00
C86    C     0.47892   0.12247   0.40686   0.00000  Uiso   1.00
C87    C     0.52068   0.21268   0.04643   0.00000  Uiso   1.00
C88    C     0.48411   0.12052   0.45325   0.00000  Uiso   1.00
C89    C     0.50304   0.16687   0.02316   0.00000  Uiso   1.00
C90    C     0.50329   0.16603   0.47630   0.00000  Uiso   1.00
C91    C     0.48543   0.12163   0.04678   0.00000  Uiso   1.00
C92    C     0.48492   0.06866   0.25181   0.00000  Uiso   1.00
C93    C     0.52216   0.21087   0.45252   0.00000  Uiso   1.00
C94    C     0.53717   0.25801   0.02252   0.00000  Uiso   1.00
C95    C     0.47005   0.07472   0.47704   0.00000  Uiso   1.00
C96    C     0.40121   0.07359   0.11887   0.00000  Uiso   1.00
C97    C     0.50544   0.28331   0.37007   0.00000  Uiso   1.00
C98    C     0.60673   0.25001   0.11486   0.00000  Uiso   1.00
C99    C     0.39390   0.08421   0.38715   0.00000  Uiso   1.00
C100   C     0.59639   0.33192   0.02974   0.00000  Uiso   1.00
C101   C     0.40814   0.00232   0.47309   0.00000  Uiso   1.00
C102   C     0.61146   0.00509   0.21248   0.00000  Uiso   1.00
C103   C     0.53820   0.25625   0.47563   0.00000  Uiso   1.00
C104   C     0.38732   0.32921   0.28606   0.00000  Uiso   1.00
C105   C     0.47327   0.07565   0.02347   0.00000  Uiso   1.00
C106   C     0.52335   0.31884   0.24845   0.00000  Uiso   1.00
C107   C     0.47645   0.01443   0.25086   0.00000  Uiso   1.00
C108   C     0.50050   0.16589   0.33627   0.00000  Uiso   1.00
C109   C     0.49961   0.16721   0.16366   0.00000  Uiso   1.00
C110   C     0.48059   0.12300   0.09357   0.00000  Uiso   1.00
H111   H     0.54938   0.29110   0.45726   0.00000  Uiso   1.00
H112   H     0.62542   0.23741   0.08122   0.00000  Uiso   1.00
H113   H     0.61975   0.22412   0.14073   0.00000  Uiso   1.00
H114   H     0.37648   0.09274   0.42212   0.00000  Uiso   1.00
H115   H     0.37394   0.04638   0.37712   0.00000  Uiso   1.00
H116   H     0.38027   0.11344   0.36438   0.00000  Uiso   1.00
H117   H     0.58884   0.02156   0.00014   0.00000  Uiso   1.00
H118   H     0.60986   0.02613   0.05646   0.00000  Uiso   1.00
H119   H     0.63233   0.30612   0.02186   0.00000  Uiso   1.00
H120   H     0.37446   0.02896   0.48527   0.00000  Uiso   1.00
H121   H     0.41872   0.31067   0.00056   0.00000  Uiso   1.00
H122   H     0.46612   0.04003   0.04133   0.00000  Uiso   1.00
H123   H     0.38945   0.31026   0.44689   0.00000  Uiso   1.00
H124   H     0.58831   0.02060   0.18490   0.00000  Uiso   1.00
H125   H     0.62501   0.29912   0.20366   0.00000  Uiso   1.00
H126   H     0.65132   0.02966   0.21562   0.00000  Uiso   1.00
H127   H     0.34827   0.30342   0.28325   0.00000  Uiso   1.00
H128   H     0.37236   0.03506   0.29336   0.00000  Uiso   1.00
H129   H     0.41012   0.31582   0.31464   0.00000  Uiso   1.00
H130   H     0.64544   0.11467   0.18504   0.00000  Uiso   1.00
H131   H     0.35406   0.21832   0.31553   0.00000  Uiso   1.00
H132   H     0.37991   0.11086   0.12068   0.00000  Uiso   1.00
H133   H     0.38557   0.05136   0.14895   0.00000  Uiso   1.00
H134   H     0.38739   0.05100   0.08917   0.00000  Uiso   1.00
H135   H     0.47171   0.28845   0.39775   0.00000  Uiso   1.00
H136   H     0.48498   0.26768   0.34002   0.00000  Uiso   1.00
H137   H     0.52564   0.32185   0.36175   0.00000  Uiso   1.00
H138   H     0.62626   0.28902   0.12165   0.00000  Uiso   1.00
N139   N     0.65011   0.15265   0.23783   0.00000  Uiso   1.00
N140   N     0.34989   0.18068   0.26217   0.00000  Uiso   1.00
O141   O     0.46308   0.24619   0.25298   0.00000  Uiso   1.00
O142   O     0.54860   0.25137   0.38161   0.00000  Uiso   1.00
O143   O     0.54615   0.25257   0.11740   0.00000  Uiso   1.00
O144   O     0.45439   0.08132   0.38322   0.00000  Uiso   1.00
O145   O     0.54523   0.30460   0.04574   0.00000  Uiso   1.00
O146   O     0.45849   0.02863   0.45408   0.00000  Uiso   1.00
O147   O     0.57875   0.00609   0.25419   0.00000  Uiso   1.00
O148   O     0.42108   0.32714   0.24483   0.00000  Uiso   1.00
O149   O     0.34365   0.12918   0.20276   0.00000  Uiso   1.00
O150   O     0.65615   0.20387   0.29747   0.00000  Uiso   1.00
O151   O     0.53692   0.08714   0.24702   0.00000  Uiso   1.00
O152   O     0.55946   0.23721   0.24518   0.00000  Uiso   1.00
O153   O     0.44054   0.09613   0.25482   0.00000  Uiso   1.00
O154   O     0.45181   0.17117   0.31997   0.00000  Uiso   1.00
O155   O     0.54819   0.16216   0.18002   0.00000  Uiso   1.00
O156   O     0.54819   0.16219   0.31218   0.00000  Uiso   1.00
O157   O     0.45181   0.17115   0.18782   0.00000  Uiso   1.00
O158   O     0.46184   0.07975   0.11795   0.00000  Uiso   1.00
Zn159  Zn    0.43565   0.17266   0.25521   0.00000  Uiso   1.00
Zn160  Zn    0.56435   0.16067   0.24479   0.00000  Uiso   1.00
C161   C     0.84836   0.26464   0.24775   0.00000  Uiso   1.00
C162   C     0.85670   0.21007   0.40580   0.00000  Uiso   1.00
C163   C     0.83269   0.16773   0.11601   0.00000  Uiso   1.00
C164   C     0.83496   0.16594   0.38380   0.00000  Uiso   1.00
C165   C     0.85595   0.21133   0.09327   0.00000  Uiso   1.00
C166   C     0.81226   0.12247   0.40686   0.00000  Uiso   1.00
C167   C     0.85401   0.21268   0.04643   0.00000  Uiso   1.00
C168   C     0.81744   0.12052   0.45325   0.00000  Uiso   1.00
C169   C     0.83638   0.16687   0.02316   0.00000  Uiso   1.00
C170   C     0.83662   0.16603   0.47630   0.00000  Uiso   1.00
C171   C     0.81876   0.12163   0.04678   0.00000  Uiso   1.00
C172   C     0.81825   0.06866   0.25181   0.00000  Uiso   1.00
C173   C     0.85550   0.21087   0.45252   0.00000  Uiso   1.00
C174   C     0.87050   0.25801   0.02252   0.00000  Uiso   1.00
C175   C     0.80339   0.07472   0.47704   0.00000  Uiso   1.00
C176   C     0.73454   0.07359   0.11887   0.00000  Uiso   1.00
C177   C     0.83877   0.28331   0.37007   0.00000  Uiso   1.00
C178   C     0.94006   0.25001   0.11486   0.00000  Uiso   1.00
C179   C     0.72724   0.08421   0.38715   0.00000  Uiso   1.00
C180   C     0.92972   0.33192   0.02974   0.00000  Uiso   1.00
C181   C     0.74147   0.00232   0.47309   0.00000  Uiso   1.00
C182   C     0.94479   0.00509   0.21248   0.00000  Uiso   1.00
C183   C     0.87153   0.25625   0.47563   0.00000  Uiso   1.00
C184   C     0.72066   0.32921   0.28606   0.00000  Uiso   1.00
C185   C     0.80661   0.07565   0.02347   0.00000  Uiso   1.00
C186   C     0.85669   0.31884   0.24845   0.00000  Uiso   1.00
C187   C     0.80979   0.01443   0.25086   0.00000  Uiso   1.00
C188   C     0.83383   0.16589   0.33627   0.00000  Uiso   1.00
C189   C     0.83294   0.16721   0.16366   0.00000  Uiso   1.00
C190   C     0.81392   0.12300   0.09357   0.00000  Uiso   1.00
H191   H     0.88272   0.29110   0.45726   0.00000  Uiso   1.00
H192   H     0.95875   0.23741   0.08122   0.00000  Uiso   1.00
H193   H     0.95308   0.22412   0.14073   0.00000  Uiso   1.00
H194   H     0.70982   0.09274   0.42212   0.00000  Uiso   1.00
H195   H     0.70728   0.04638   0.37712   0.00000  Uiso   1.00
H196   H     0.71360   0.11344   0.36438   0.00000  Uiso   1.00
H197   H     0.92217   0.02156   0.00014   0.00000  Uiso   1.00
H198   H     0.94319   0.02613   0.05646   0.00000  Uiso   1.00
H199   H     0.96566   0.30612   0.02186   0.00000  Uiso   1.00
H200   H     0.70779   0.02896   0.48527   0.00000  Uiso   1.00
H201   H     0.75206   0.31067   0.00056   0.00000  Uiso   1.00
H202   H     0.79945   0.04003   0.04133   0.00000  Uiso   1.00
H203   H     0.72278   0.31026   0.44689   0.00000  Uiso   1.00
H204   H     0.92164   0.02060   0.18490   0.00000  Uiso   1.00
H205   H     0.95834   0.29912   0.20366   0.00000  Uiso   1.00
H206   H     0.98466   0.02966   0.21562   0.00000  Uiso   1.00
H207   H     0.68160   0.30342   0.28325   0.00000  Uiso   1.00
H208   H     0.70570   0.03506   0.29336   0.00000  Uiso   1.00
H209   H     0.74345   0.31582   0.31464   0.00000  Uiso   1.00
H210   H     0.97877   0.11467   0.18504   0.00000  Uiso   1.00
H211   H     0.68739   0.21832   0.31553   0.00000  Uiso   1.00
H212   H     0.71324   0.11086   0.12068   0.00000  Uiso   1.00
H213   H     0.71890   0.05136   0.14895   0.00000  Uiso   1.00
H214   H     0.72073   0.05100   0.08917   0.00000  Uiso   1.00
H215   H     0.80504   0.28845   0.39775   0.00000  Uiso   1.00
H216   H     0.81831   0.26768   0.34002   0.00000  Uiso   1.00
H217   H     0.85897   0.32185   0.36175   0.00000  Uiso   1.00
H218   H     0.95959   0.28902   0.12165   0.00000  Uiso   1.00
N219   N     0.98344   0.15265   0.23783   0.00000  Uiso   1.00
N220   N     0.68322   0.18068   0.26217   0.00000  Uiso   1.00
O221   O     0.79642   0.24619   0.25298   0.00000  Uiso   1.00
O222   O     0.88194   0.25137   0.38161   0.00000  Uiso   1.00
O223   O     0.87949   0.25257   0.11740   0.00000  Uiso   1.00
O224   O     0.78772   0.08132   0.38322   0.00000  Uiso   1.00
O225   O     0.87856   0.30460   0.04574   0.00000  Uiso   1.00
O226   O     0.79182   0.02863   0.45408   0.00000  Uiso   1.00
O227   O     0.91209   0.00609   0.25419   0.00000  Uiso   1.00
O228   O     0.75442   0.32714   0.24483   0.00000  Uiso   1.00
O229   O     0.67698   0.12918   0.20276   0.00000  Uiso   1.00
O230   O     0.98948   0.20387   0.29747   0.00000  Uiso   1.00
O231   O     0.87025   0.08714   0.24702   0.00000  Uiso   1.00
O232   O     0.89280   0.23721   0.24518   0.00000  Uiso   1.00
O233   O     0.77387   0.09613   0.25482   0.00000  Uiso   1.00
O234   O     0.78514   0.17117   0.31997   0.00000  Uiso   1.00
O235   O     0.88153   0.16216   0.18002   0.00000  Uiso   1.00
O236   O     0.88152   0.16219   0.31218   0.00000  Uiso   1.00
O237   O     0.78515   0.17115   0.18782   0.00000  Uiso   1.00
O238   O     0.79518   0.07975   0.11795   0.00000  Uiso   1.00
Zn239  Zn    0.76898   0.17266   0.25521   0.00000  Uiso   1.00
Zn240  Zn    0.89769   0.16067   0.24479   0.00000  Uiso   1.00
C241   C     0.18169   0.59797   0.24775   0.00000  Uiso   1.00
C242   C     0.19003   0.54340   0.40580   0.00000  Uiso   1.00
C243   C     0.16602   0.50107   0.11601   0.00000  Uiso   1.00
C244   C     0.16829   0.49927   0.38380   0.00000  Uiso   1.00
C245   C     0.18928   0.54467   0.09327   0.00000  Uiso   1.00
C246   C     0.14559   0.45580   0.40686   0.00000  Uiso   1.00
C247   C     0.18734   0.54601   0.04643   0.00000  Uiso   1.00
C248   C     0.15077   0.45385   0.45325   0.00000  Uiso   1.00
C249   C     0.16971   0.50021   0.02316   0.00000  Uiso   1.00
C250   C     0.16995   0.49936   0.47630   0.00000  Uiso   1.00
C251   C     0.15209   0.45496   0.04678   0.00000  Uiso   1.00
C252   C     0.15159   0.40199   0.25181   0.00000  Uiso   1.00
C253   C     0.18883   0.54421   0.45252   0.00000  Uiso   1.00
C254   C     0.20383   0.59135   0.02252   0.00000  Uiso   1.00
C255   C     0.13672   0.40806   0.47704   0.00000  Uiso   1.00
C256   C     0.06787   0.40693   0.11887   0.00000  Uiso   1.00
C257   C     0.17211   0.61664   0.37007   0.00000  Uiso   1.00
C258   C     0.27339   0.58334   0.11486   0.00000  Uiso   1.00
C259   C     0.06057   0.41754   0.38715   0.00000  Uiso   1.00
C260   C     0.26305   0.66525   0.02974   0.00000  Uiso   1.00
C261   C     0.07481   0.33565   0.47309   0.00000  Uiso   1.00
C262   C     0.27812   0.33842   0.21248   0.00000  Uiso   1.00
C263   C     0.20486   0.58958   0.47563   0.00000  Uiso   1.00
C264   C     0.05399   0.66254   0.28606   0.00000  Uiso   1.00
C265   C     0.13994   0.40898   0.02347   0.00000  Uiso   1.00
C266   C     0.19002   0.65218   0.24845   0.00000  Uiso   1.00
C267   C     0.14312   0.34776   0.25086   0.00000  Uiso   1.00
C268   C     0.16717   0.49922   0.33627   0.00000  Uiso   1.00
C269   C     0.16627   0.50054   0.16366   0.00000  Uiso   1.00
C270   C     0.14725   0.45634   0.09357   0.00000  Uiso   1.00
H271   H     0.21605   0.62444   0.45726   0.00000  Uiso   1.00
H272   H     0.29208   0.57074   0.08122   0.00000  Uiso   1.00
H273   H     0.28642   0.55746   0.14073   0.00000  Uiso   1.00
H274   H     0.04315   0.42607   0.42212   0.00000  Uiso   1.00
H275   H     0.04061   0.37971   0.37712   0.00000  Uiso   1.00
H276   H     0.04693   0.44677   0.36438   0.00000  Uiso   1.00
H277   H     0.25550   0.35489   0.00014   0.00000  Uiso   1.00
H278   H     0.27652   0.35946   0.05646   0.00000  Uiso   1.00
H279   H     0.29899   0.63945   0.02186   0.00000  Uiso   1.00
H280   H     0.04113   0.36230   0.48527   0.00000  Uiso   1.00
H281   H     0.08539   0.64401   0.00056   0.00000  Uiso   1.00
H282   H     0.13279   0.37336   0.04133   0.00000  Uiso   1.00
H283   H     0.05611   0.64359   0.44689   0.00000  Uiso   1.00
H284   H     0.25497   0.35394   0.18490   0.00000  Uiso   1.00
H285   H     0.29167   0.63245   0.20366   0.00000  Uiso   1.00
H286   H     0.31799   0.36300   0.21562   0.00000  Uiso   1.00
H287   H     0.01494   0.63675   0.28325   0.00000  Uiso   1.00
H288   H     0.03903   0.36839   0.29336   0.00000  Uiso   1.00
H289   H     0.07678   0.64915   0.31464   0.00000  Uiso   1.00
H290   H     0.31210   0.44800   0.18504   0.00000  Uiso   1.00
H291   H     0.02072   0.55166   0.31553   0.00000  Uiso   1.00
H292   H     0.04658   0.44420   0.12068   0.00000  Uiso   1.00
H293   H     0.05223   0.38469   0.14895   0.00000  Uiso   1.00
H294   H     0.05406   0.38433   0.08917   0.00000  Uiso   1.00
H295   H     0.13837   0.62178   0.39775   0.00000  Uiso   1.00
H296   H     0.15165   0.60101   0.34002   0.00000  Uiso   1.00
H297   H     0.19231   0.65519   0.36175   0.00000  Uiso   1.00
H298   H     0.29293   0.62235   0.12165   0.00000  Uiso   1.00
N299   N     0.31678   0.48598   0.23783   0.00000  Uiso   1.00
N300   N     0.01656   0.51402   0.26217   0.00000  Uiso   1.00
O301   O     0.12975   0.57952   0.25298   0.00000  Uiso   1.00
O302   O     0.21527   0.58470   0.38161   0.00000  Uiso   1.00
O303   O     0.21282   0.58590   0.11740   0.00000  Uiso   1.00
O304   O     0.12106   0.41465   0.38322   0.00000  Uiso   1.00
O305   O     0.21189   0.63793   0.04574   0.00000  Uiso   1.00
O306   O     0.12516   0.36196   0.45408   0.00000  Uiso   1.00
O307   O     0.24542   0.33942   0.25419   0.00000  Uiso   1.00
O308   O     0.08775   0.66047   0.24483   0.00000  Uiso   1.00
O309   O     0.01031   0.46252   0.20276   0.00000  Uiso   1.00
O310   O     0.32282   0.53721   0.29747   0.00000  Uiso   1.00
O311   O     0.20358   0.42048   0.24702   0.00000  Uiso   1.00
O312   O     0.22613   0.57054   0.24518   0.00000  Uiso   1.00
O313   O     0.10720   0.42946   0.25482   0.00000  Uiso   1.00
O314   O     0.11847   0.50450   0.31997   0.00000  Uiso   1.00
O315   O     0.21486   0.49550   0.18002   0.00000  Uiso   1.00
O316   O     0.21485   0.49552   0.31218   0.00000  Uiso   1.00
O317   O     0.11848   0.50448   0.18782   0.00000  Uiso   1.00
O318   O     0.12851   0.41309   0.11795   0.00000  Uiso   1.00
Zn319  Zn    0.10231   0.50600   0.25521   0.00000  Uiso   1.00
Zn320  Zn    0.23102   0.49400   0.24479   0.00000  Uiso   1.00
C321   C     0.51502   0.59797   0.24775   0.00000  Uiso   1.00
C322   C     0.52337   0.54340   0.40580   0.00000  Uiso   1.00
C323   C     0.49935   0.50107   0.11601   0.00000  Uiso   1.00
C324   C     0.50163   0.49927   0.38380   0.00000  Uiso   1.00
C325   C     0.52261   0.54467   0.09327   0.00000  Uiso   1.00
C326   C     0.47892   0.45580   0.40686   0.00000  Uiso   1.00
C327   C     0.52068   0.54601   0.04643   0.00000  Uiso   1.00
C328   C     0.48411   0.45385   0.45325   0.00000  Uiso   1.00
C329   C     0.50304   0.50021   0.02316   0.00000  Uiso   1.00
C330   C     0.50329   0.49936   0.47630   0.00000  Uiso   1.00
C331   C     0.48543   0.45496   0.04678   0.00000  Uiso   1.00
C332   C     0.48492   0.40199   0.25181   0.00000  Uiso   1.00
C333   C     0.52216   0.54421   0.45252   0.00000  Uiso   1.00
C334   C     0.53717   0.59135   0.02252   0.00000  Uiso   1.00
C335   C     0.47005   0.40806   0.47704   0.00000  Uiso   1.00
C336   C     0.40121   0.40693   0.11887   0.00000  Uiso   1.00
C337   C     0.50544   0.61664   0.37007   0.00000  Uiso   1.00
C338   C     0.60673   0.58334   0.11486   0.00000  Uiso   1.00
C339   C     0.39390   0.41754   0.38715   0.00000  Uiso   1.00
C340   C     0.59639   0.66525   0.02974   0.00000  Uiso   1.00
C341   C     0.40814   0.33565   0.47309   0.00000  Uiso   1.00
C342   C     0.61146   0.33842   0.21248   0.00000  Uiso   1.00
C343   C     0.53820   0.58958   0.47563   0.00000  Uiso   1.00
C344   C     0.38732   0.66254   0.28606   0.00000  Uiso   1.00
C345   C     0.47327   0.40898   0.02347   0.00000  Uiso   1.00
C346   C     0.52335   0.65218   0.24845   0.00000  Uiso   1.00
C347   C     0.47645   0.34776   0.25086   0.00000  Uiso   1.00
C348   C     0.50050   0.49922   0.33627   0.00000  Uiso   1.00
C349   C     0.49961   0.50054   0.16366   0.00000  Uiso   1.00
C350   C     0.48059   0.45634   0.09357   0.00000  Uiso   1.00
H351   H     0.54938   0.62444   0.45726   0.00000  Uiso   1.00
H352   H     0.62542   0.57074   0.08122   0.00000  Uiso   1.00
H353   H     0.61975   0.55746   0.14073   0.00000  Uiso   1.00
H354   H     0.37648   0.42607   0.42212   0.00000  Uiso   1.00
H355   H     0.37394   0.37971   0.37712   0.00000  Uiso   1.00
H356   H     0.38027   0.44677   0.36438   0.00000  Uiso   1.00
H357   H     0.58884   0.35489   0.00014   0.00000  Uiso   1.00
H358   H     0.60986   0.35946   0.05646   0.00000  Uiso   1.00
H359   H     0.63233   0.63945   0.02186   0.00000  Uiso   1.00
H360   H     0.37446   0.36230   0.48527   0.00000  Uiso   1.00
H361   H     0.41872   0.64401   0.00056   0.00000  Uiso   1.00
H362   H     0.46612   0.37336   0.04133   0.00000  Uiso   1.00
H363   H     0.38945   0.64359   0.44689   0.00000  Uiso   1.00
H364   H     0.58831   0.35394   0.18490   0.00000  Uiso   1.00
H365   H     0.62501   0.63245   0.20366   0.00000  Uiso   1.00
H366   H     0.65132   0.36300   0.21562   0.00000  Uiso   1.00
H367   H     0.34827   0.63675   0.28325   0.00000  Uiso   1.00
H368   H     0.37236   0.36839   0.29336   0.00000  Uiso   1.00
H369   H     0.41012   0.64915   0.31464   0.00000  Uiso   1.00
H370   H     0.64544   0.44800   0.18504   0.00000  Uiso   1.00
H371   H     0.35406   0.55166   0.31553   0.00000  Uiso   1.00
H372   H     0.37991   0.44420   0.12068   0.00000  Uiso   1.00
H373   H     0.38557   0.38469   0.14895   0.00000  Uiso   1.00
H374   H     0.38739   0.38433   0.08917   0.00000  Uiso   1.00
H375   H     0.47171   0.62178   0.39775   0.00000  Uiso   1.00
H376   H     0.48498   0.60101   0.34002   0.00000  Uiso   1.00
H377   H     0.52564   0.65519   0.36175   0.00000  Uiso   1.00
H378   H     0.62626   0.62235   0.12165   0.00000  Uiso   1.00
N379   N     0.65011   0.48598   0.23783   0.00000  Uiso   1.00
N380   N     0.34989   0.51402   0.26217   0.00000  Uiso   1.00
O381   O     0.46308   0.57952   0.25298   0.00000  Uiso   1.00
O382   O     0.54860   0.58470   0.38161   0.00000  Uiso   1.00
O383   O     0.54615   0.58590   0.11740   0.00000  Uiso   1.00
O384   O     0.45439   0.41465   0.38322   0.00000  Uiso   1.00
O385   O     0.54523   0.63793   0.04574   0.00000  Uiso   1.00
O386   O     0.45849   0.36196   0.45408   0.00000  Uiso   1.00
O387   O     0.57875   0.33942   0.25419   0.00000  Uiso   1.00
O388   O     0.42108   0.66047   0.24483   0.00000  Uiso   1.00
O389   O     0.34365   0.46252   0.20276   0.00000  Uiso   1.00
O390   O     0.65615   0.53721   0.29747   0.00000  Uiso   1.00
O391   O     0.53692   0.42048   0.24702   0.00000  Uiso   1.00
O392   O     0.55946   0.57054   0.24518   0.00000  Uiso   1.00
O393   O     0.44054   0.42946   0.25482   0.00000  Uiso   1.00
O394   O     0.45181   0.50450   0.31997   0.00000  Uiso   1.00
O395   O     0.54819   0.49550   0.18002   0.00000  Uiso   1.00
O396   O     0.54819   0.49552   0.31218   0.00000  Uiso   1.00
O397   O     0.45181   0.50448   0.18782   0.00000  Uiso   1.00
O398   O     0.46184   0.41309   0.11795   0.00000  Uiso   1.00
Zn399  Zn    0.43565   0.50600   0.25521   0.00000  Uiso   1.00
Zn400  Zn    0.56435   0.49400   0.24479   0.00000  Uiso   1.00
C401   C     0.84836   0.59797   0.24775   0.00000  Uiso   1.00
C402   C     0.85670   0.54340   0.40580   0.00000  Uiso   1.00
C403   C     0.83269   0.50107   0.11601   0.00000  Uiso   1.00
C404   C     0.83496   0.49927   0.38380   0.00000  Uiso   1.00
C405   C     0.85595   0.54467   0.09327   0.00000  Uiso   1.00
C406   C     0.81226   0.45580   0.40686   0.00000  Uiso   1.00
C407   C     0.85401   0.54601   0.04643   0.00000  Uiso   1.00
C408   C     0.81744   0.45385   0.45325   0.00000  Uiso   1.00
C409   C     0.83638   0.50021   0.02316   0.00000  Uiso   1.00
C410   C     0.83662   0.49936   0.47630   0.00000  Uiso   1.00
C411   C     0.81876   0.45496   0.04678   0.00000  Uiso   1.00
C412   C     0.81825   0.40199   0.25181   0.00000  Uiso   1.00
C413   C     0.85550   0.54421   0.45252   0.00000  Uiso   1.00
C414   C     0.87050   0.59135   0.02252   0.00000  Uiso   1.00
C415   C     0.80339   0.40806   0.47704   0.00000  Uiso   1.00
C416   C     0.73454   0.40693   0.11887   0.00000  Uiso   1.00
C417   C     0.83877   0.61664   0.37007   0.00000  Uiso   1.00
C418   C     0.94006   0.58334   0.11486   0.00000  Uiso   1.00
C419   C     0.72724   0.41754   0.38715   0.00000  Uiso   1.00
C420   C     0.92972   0.66525   0.02974   0.00000  Uiso   1.00
C421   C     0.74147   0.33565   0.47309   0.00000  Uiso   1.00
C422   C     0.94479   0.33842   0.21248   0.00000  Uiso   1.00
C423   C     0.87153   0.58958   0.47563   0.00000  Uiso   1.00
C424   C     0.72066   0.66254   0.28606   0.00000  Uiso   1.00
C425   C     0.80661   0.40898   0.02347   0.00000  Uiso   1.00
C426   C     0.85669   0.65218   0.24845   0.00000  Uiso   1.00
C427   C     0.80979   0.34776   0.25086   0.00000  Uiso   1.00
C428   C     0.83383   0.49922   0.33627   0.00000  Uiso   1.00
C429   C     0.83294   0.50054   0.16366   0.00000  Uiso   1.00
C430   C     0.81392   0.45634   0.09357   0.00000  Uiso   1.00
H431   H     0.88272   0.62444   0.45726   0.00000  Uiso   1.00
H432   H     0.95875   0.57074   0.08122   0.00000  Uiso   1.00
H433   H     0.95308   0.55746   0.14073   0.00000  Uiso   1.00
H434   H     0.70982   0.42607   0.42212   0.00000  Uiso   1.00
H435   H     0.70728   0.37971   0.37712   0.00000  Uiso   1.00
H436   H     0.71360   0.44677   0.36438   0.00000  Uiso   1.00
H437   H     0.92217   0.35489   0.00014   0.00000  Uiso   1.00
H438   H     0.94319   0.35946   0.05646   0.00000  Uiso   1.00
H439   H     0.96566   0.63945   0.02186   0.00000  Uiso   1.00
H440   H     0.70779   0.36230   0.48527   0.00000  Uiso   1.00
H441   H     0.75206   0.64401   0.00056   0.00000  Uiso   1.00
H442   H     0.79945   0.37336   0.04133   0.00000  Uiso   1.00
H443   H     0.72278   0.64359   0.44689   0.00000  Uiso   1.00
H444   H     0.92164   0.35394   0.18490   0.00000  Uiso   1.00
H445   H     0.95834   0.63245   0.20366   0.00000  Uiso   1.00
H446   H     0.98466   0.36300   0.21562   0.00000  Uiso   1.00
H447   H     0.68160   0.63675   0.28325   0.00000  Uiso   1.00
H448   H     0.70570   0.36839   0.29336   0.00000  Uiso   1.00
H449   H     0.74345   0.64915   0.31464   0.00000  Uiso   1.00
H450   H     0.97877   0.44800   0.18504   0.00000  Uiso   1.00
H451   H     0.68739   0.55166   0.31553   0.00000  Uiso   1.00
H452   H     0.71324   0.44420   0.12068   0.00000  Uiso   1.00
H453   H     0.71890   0.38469   0.14895   0.00000  Uiso   1.00
H454   H     0.72073   0.38433   0.08917   0.00000  Uiso   1.00
H455   H     0.80504   0.62178   0.39775   0.00000  Uiso   1.00
H456   H     0.81831   0.60101   0.34002   0.00000  Uiso   1.00
H457   H     0.85897   0.65519   0.36175   0.00000  Uiso   1.00
H458   H     0.95959   0.62235   0.12165   0.00000  Uiso   1.00
N459   N     0.98344   0.48598   0.23783   0.00000  Uiso   1.00
N460   N     0.68322   0.51402   0.26217   0.00000  Uiso   1.00
O461   O     0.79642   0.57952   0.25298   0.00000  Uiso   1.00
O462   O     0.88194   0.58470   0.38161   0.00000  Uiso   1.00
O463   O     0.87949   0.58590   0.11740   0.00000  Uiso   1.00
O464   O     0.78772   0.41465   0.38322   0.00000  Uiso   1.00
O465   O     0.87856   0.63793   0.04574   0.00000  Uiso   1.00
O466   O     0.79182   0.36196   0.45408   0.00000  Uiso   1.00
O467   O     0.91209   0.33942   0.25419   0.00000  Uiso   1.00
O468   O     0.75442   0.66047   0.24483   0.00000  Uiso   1.00
O469   O     0.67698   0.46252   0.20276   0.00000  Uiso   1.00
O470   O     0.98948   0.53721   0.29747   0.00000  Uiso   1.00
O471   O     0.87025   0.42048   0.24702   0.00000  Uiso   1.00
O472   O     0.89280   0.57054   0.24518   0.00000  Uiso   1.00
O473   O     0.77387   0.42946   0.25482   0.00000  Uiso   1.00
O474   O     0.78514   0.50450   0.31997   0.00000  Uiso   1.00
O475   O     0.88153   0.49550   0.18002   0.00000  Uiso   1.00
O476   O     0.88152   0.49552   0.31218   0.00000  Uiso   1.00
O477   O     0.78515   0.50448   0.18782   0.00000  Uiso   1.00
O478   O     0.79518   0.41309   0.11795   0.00000  Uiso   1.00
Zn479  Zn    0.76898   0.50600   0.25521   0.00000  Uiso   1.00
Zn480  Zn    0.89769   0.49400   0.24479   0.00000  Uiso   1.00
C481   C     0.18169   0.93130   0.24775   0.00000  Uiso   1.00
C482   C     0.19003   0.87673   0.40580   0.00000  Uiso   1.00
C483   C     0.16602   0.83440   0.11601   0.00000  Uiso   1.00
C484   C     0.16829   0.83261   0.38380   0.00000  Uiso   1.00
C485   C     0.18928   0.87800   0.09327   0.00000  Uiso   1.00
C486   C     0.14559   0.78913   0.40686   0.00000  Uiso   1.00
C487   C     0.18734   0.87935   0.04643   0.00000  Uiso   1.00
C488   C     0.15077   0.78719   0.45325   0.00000  Uiso   1.00
C489   C     0.16971   0.83354   0.02316   0.00000  Uiso   1.00
C490   C     0.16995   0.83270   0.47630   0.00000  Uiso   1.00
C491   C     0.15209   0.78830   0.04678   0.00000  Uiso   1.00
C492   C     0.15159   0.73533   0.25181   0.00000  Uiso   1.00
C493   C     0.18883   0.87754   0.45252   0.00000  Uiso   1.00
C494   C     0.20383   0.92468   0.02252   0.00000  Uiso   1.00
C495   C     0.13672   0.74139   0.47704   0.00000  Uiso   1.00
C496   C     0.06787   0.74026   0.11887   0.00000  Uiso   1.00
C497   C     0.17211   0.94998   0.37007   0.00000  Uiso   1.00
C498   C     0.27339   0.91667   0.11486   0.00000  Uiso   1.00
C499   C     0.06057   0.75088   0.38715   0.00000  Uiso   1.00
C500   C     0.26305   0.99858   0.02974   0.00000  Uiso   1.00
C501   C     0.07481   0.66898   0.47309   0.00000  Uiso   1.00
C502   C     0.27812   0.67175   0.21248   0.00000  Uiso   1.00
C503   C     0.20486   0.92292   0.47563   0.00000  Uiso   1.00
C504   C     0.05399   0.99588   0.28606   0.00000  Uiso   1.00
C505   C     0.13994   0.74231   0.02347   0.00000  Uiso   1.00
C506   C     0.19002   0.98551   0.24845   0.00000  Uiso   1.00
C507   C     0.14312   0.68109   0.25086   0.00000  Uiso   1.00
C508   C     0.16717   0.83255   0.33627   0.00000  Uiso   1.00
C509   C     0.16627   0.83387   0.16366   0.00000  Uiso   1.00
C510   C     0.14725   0.78967   0.09357   0.00000  Uiso   1.00
H511   H     0.21605   0.95777   0.45726   0.00000  Uiso   1.00
H512   H     0.29208   0.90407   0.08122   0.00000  Uiso   1.00
H513   H     0.28642   0.89079   0.14073   0.00000  Uiso   1.00
H514   H     0.04315   0.75940   0.42212   0.00000  Uiso   1.00
H515   H     0.04061   0.71304   0.37712   0.00000  Uiso   1.00
H516   H     0.04693   0.78011   0.36438   0.00000  Uiso   1.00
H517   H     0.25550   0.68822   0.00014   0.00000  Uiso   1.00
H518   H     0.27652   0.69279   0.05646   0.00000  Uiso   1.00
H519   H     0.29899   0.97279   0.02186   0.00000  Uiso   1.00
H520   H     0.04113   0.69563   0.48527   0.00000  Uiso   1.00
H521   H     0.08539   0.97734   0.00056   0.00000  Uiso   1.00
H522   H     0.13279   0.70669   0.04133   0.00000  Uiso   1.00
H523   H     0.05611   0.97692   0.44689   0.00000  Uiso   1.00
H524   H     0.25497   0.68727   0.18490   0.00000  Uiso   1.00
H525   H     0.29167   0.96578   0.20366   0.00000  Uiso   1.00
H526   H     0.31799   0.69633   0.21562   0.00000  Uiso   1.00
H527   H     0.01494   0.97009   0.28325   0.00000  Uiso   1.00
H528   H     0.03903   0.70173   0.29336   0.00000  Uiso   1.00
H529   H     0.07678   0.98249   0.31464   0.00000  Uiso   1.00
H530   H     0.31210   0.78133   0.18504   0.00000  Uiso   1.00
H531   H     0.02072   0.88499   0.31553   0.00000  Uiso   1.00
H532   H     0.04658   0.77753   0.12068   0.00000  Uiso   1.00
H533   H     0.05223   0.71802   0.14895   0.00000  Uiso   1.00
H534   H     0.05406   0.71767   0.08917   0.00000  Uiso   1.00
H535   H     0.13837   0.95511   0.39775   0.00000  Uiso   1.00
H536   H     0.15165   0.93435   0.34002   0.00000  Uiso   1.00
H537   H     0.19231   0.98852   0.36175   0.00000  Uiso   1.00
H538   H     0.29293   0.95568   0.12165   0.00000  Uiso   1.00
N539   N     0.31678   0.81932   0.23783   0.00000  Uiso   1.00
N540   N     0.01656   0.84735   0.26217   0.00000  Uiso   1.00
O541   O     0.12975   0.91286   0.25298   0.00000  Uiso   1.00
O542   O     0.21527   0.91803   0.38161   0.00000  Uiso   1.00
O543   O     0.21282   0.91923   0.11740   0.00000  Uiso   1.00
O544   O     0.12106   0.74799   0.38322   0.00000  Uiso   1.00
O545   O     0.21189   0.97126   0.04574   0.00000  Uiso   1.00
O546   O     0.12516   0.69530   0.45408   0.00000  Uiso   1.00
O547   O     0.24542   0.67275   0.25419   0.00000  Uiso   1.00
O548   O     0.08775   0.99380   0.24483   0.00000  Uiso   1.00
O549   O     0.01031   0.79585   0.20276   0.00000  Uiso   1.00
O550   O     0.32282   0.87054   0.29747   0.00000  Uiso   1.00
O551   O     0.20358   0.75381   0.24702   0.00000  Uiso   1.00
O552   O     0.22613   0.90387   0.24518   0.00000  Uiso   1.00
O553   O     0.10720   0.76279   0.25482   0.00000  Uiso   1.00
O554   O     0.11847   0.83784   0.31997   0.00000  Uiso   1.00
O555   O     0.21486   0.82883   0.18002   0.00000  Uiso   1.00
O556   O     0.21485   0.82885   0.31218   0.00000  Uiso   1.00
O557   O     0.11848   0.83781   0.18782   0.00000  Uiso   1.00
O558   O     0.12851   0.74642   0.11795   0.00000  Uiso   1.00
Zn559  Zn    0.10231   0.83933   0.25521   0.00000  Uiso   1.00
Zn560  Zn    0.23102   0.82734   0.24479   0.00000  Uiso   1.00
C561   C     0.51502   0.93130   0.24775   0.00000  Uiso   1.00
C562   C     0.52337   0.87673   0.40580   0.00000  Uiso   1.00
C563   C     0.49935   0.83440   0.11601   0.00000  Uiso   1.00
C564   C     0.50163   0.83261   0.38380   0.00000  Uiso   1.00
C565   C     0.52261   0.87800   0.09327   0.00000  Uiso   1.00
C566   C     0.47892   0.78913   0.40686   0.00000  Uiso   1.00
C567   C     0.52068   0.87935   0.04643   0.00000  Uiso   1.00
C568   C     0.48411   0.78719   0.45325   0.00000  Uiso   1.00
C569   C     0.50304   0.83354   0.02316   0.00000  Uiso   1.00
C570   C     0.50329   0.83270   0.47630   0.00000  Uiso   1.00
C571   C     0.48543   0.78830   0.04678   0.00000  Uiso   1.00
C572   C     0.48492   0.73533   0.25181   0.00000  Uiso   1.00
C573   C     0.52216   0.87754   0.45252   0.00000  Uiso   1.00
C574   C     0.53717   0.92468   0.02252   0.00000  Uiso   1.00
C575   C     0.47005   0.74139   0.47704   0.00000  Uiso   1.00
C576   C     0.40121   0.74026   0.11887   0.00000  Uiso   1.00
C577   C     0.50544   0.94998   0.37007   0.00000  Uiso   1.00
C578   C     0.60673   0.91667   0.11486   0.00000  Uiso   1.00
C579   C     0.39390   0.75088   0.38715   0.00000  Uiso   1.00
C580   C     0.59639   0.99858   0.02974   0.00000  Uiso   1.00
C581   C     0.40814   0.66898   0.47309   0.00000  Uiso   1.00
C582   C     0.61146   0.67175   0.21248   0.00000  Uiso   1.00
C583   C     0.53820   0.92292   0.47563   0.00000  Uiso   1.00
C584   C     0.38732   0.99588   0.28606   0.00000  Uiso   1.00
C585   C     0.47327   0.74231   0.02347   0.00000  Uiso   1.00
C586   C     0.52335   0.98551   0.24845   0.00000  Uiso   1.00
C587   C     0.47645   0.68109   0.25086   0.00000  Uiso   1.00
C588   C     0.50050   0.83255   0.33627   0.00000  Uiso   1.00
C589   C     0.49961   0.83387   0.16366   0.00000  Uiso   1.00
C590   C     0.48059   0.78967   0.09357   0.00000  Uiso   1.00
H591   H     0.54938   0.95777   0.45726   0.00000  Uiso   1.00
H592   H     0.62542   0.90407   0.08122   0.00000  Uiso   1.00
H593   H     0.61975   0.89079   0.14073   0.00000  Uiso   1.00
H594   H     0.37648   0.75940   0.42212   0.00000  Uiso   1.00
H595   H     0.37394   0.71304   0.37712   0.00000  Uiso   1.00
H596   H     0.38027   0.78011   0.36438   0.00000  Uiso   1.00
H597   H     0.58884   0.68822   0.00014   0.00000  Uiso   1.00
H598   H     0.60986   0.69279   0.05646   0.00000  Uiso   1.00
H599   H     0.63233   0.97279   0.02186   0.00000  Uiso   1.00
H600   H     0.37446   0.69563   0.48527   0.00000  Uiso   1.00
H601   H     0.41872   0.97734   0.00056   0.00000  Uiso   1.00
H602   H     0.46612   0.70669   0.04133   0.00000  Uiso   1.00
H603   H     0.38945   0.97692   0.44689   0.00000  Uiso   1.00
H604   H     0.58831   0.68727   0.18490   0.00000  Uiso   1.00
H605   H     0.62501   0.96578   0.20366   0.00000  Uiso   1.00
H606   H     0.65132   0.69633   0.21562   0.00000  Uiso   1.00
H607   H     0.34827   0.97009   0.28325   0.00000  Uiso   1.00
H608   H     0.37236   0.70173   0.29336   0.00000  Uiso   1.00
H609   H     0.41012   0.98249   0.31464   0.00000  Uiso   1.00
H610   H     0.64544   0.78133   0.18504   0.00000  Uiso   1.00
H611   H     0.35406   0.88499   0.31553   0.00000  Uiso   1.00
H612   H     0.37991   0.77753   0.12068   0.00000  Uiso   1.00
H613   H     0.38557   0.71802   0.14895   0.00000  Uiso   1.00
H614   H     0.38739   0.71767   0.08917   0.00000  Uiso   1.00
H615   H     0.47171   0.95511   0.39775   0.00000  Uiso   1.00
H616   H     0.48498   0.93435   0.34002   0.00000  Uiso   1.00
H617   H     0.52564   0.98852   0.36175   0.00000  Uiso   1.00
H618   H     0.62626   0.95568   0.12165   0.00000  Uiso   1.00
N619   N     0.65011   0.81932   0.23783   0.00000  Uiso   1.00
N620   N     0.34989   0.84735   0.26217   0.00000  Uiso   1.00
O621   O     0.46308   0.91286   0.25298   0.00000  Uiso   1.00
O622   O     0.54860   0.91803   0.38161   0.00000  Uiso   1.00
O623   O     0.54615   0.91923   0.11740   0.00000  Uiso   1.00
O624   O     0.45439   0.74799   0.38322   0.00000  Uiso   1.00
O625   O     0.54523   0.97126   0.04574   0.00000  Uiso   1.00
O626   O     0.45849   0.69530   0.45408   0.00000  Uiso   1.00
O627   O     0.57875   0.67275   0.25419   0.00000  Uiso   1.00
O628   O     0.42108   0.99380   0.24483   0.00000  Uiso   1.00
O629   O     0.34365   0.79585   0.20276   0.00000  Uiso   1.00
O630   O     0.65615   0.87054   0.29747   0.00000  Uiso   1.00
O631   O     0.53692   0.75381   0.24702   0.00000  Uiso   1.00
O632   O     0.55946   0.90387   0.24518   0.00000  Uiso   1.00
O633   O     0.44054   0.76279   0.25482   0.00000  Uiso   1.00
O634   O     0.45181   0.83784   0.31997   0.00000  Uiso   1.00
O635   O     0.54819   0.82883   0.18002   0.00000  Uiso   1.00
O636   O     0.54819   0.82885   0.31218   0.00000  Uiso   1.00
O637   O     0.45181   0.83781   0.18782   0.00000  Uiso   1.00
O638   O     0.46184   0.74642   0.11795   0.00000  Uiso   1.00
Zn639  Zn    0.43565   0.83933   0.25521   0.00000  Uiso   1.00
Zn640  Zn    0.56435   0.82734   0.24479   0.00000  Uiso   1.00
C641   C     0.84836   0.93130   0.24775   0.00000  Uiso   1.00
C642   C     0.85670   0.87673   0.40580   0.00000  Uiso   1.00
C643   C     0.83269   0.83440   0.11601   0.00000  Uiso   1.00
C644   C     0.83496   0.83261   0.38380   0.00000  Uiso   1.00
C645   C     0.85595   0.87800   0.09327   0.00000  Uiso   1.00
C646   C     0.81226   0.78913   0.40686   0.00000  Uiso   1.00
C647   C     0.85401   0.87935   0.04643   0.00000  Uiso   1.00
C648   C     0.81744   0.78719   0.45325   0.00000  Uiso   1.00
C649   C     0.83638   0.83354   0.02316   0.00000  Uiso   1.00
C650   C     0.83662   0.83270   0.47630   0.00000  Uiso   1.00
C651   C     0.81876   0.78830   0.04678   0.00000  Uiso   1.00
C652   C     0.81825   0.73533   0.25181   0.00000  Uiso   1.00
C653   C     0.85550   0.87754   0.45252   0.00000  Uiso   1.00
C654   C     0.87050   0.92468   0.02252   0.00000  Uiso   1.00
C655   C     0.80339   0.74139   0.47704   0.00000  Uiso   1.00
C656   C     0.73454   0.74026   0.11887   0.00000  Uiso   1.00
C657   C     0.83877   0.94998   0.37007   0.00000  Uiso   1.00
C658   C     0.94006   0.91667   0.11486   0.00000  Uiso   1.00
C659   C     0.72724   0.75088   0.38715   0.00000  Uiso   1.00
C660   C     0.92972   0.99858   0.02974   0.00000  Uiso   1.00
C661   C     0.74147   0.66898   0.47309   0.00000  Uiso   1.00
C662   C     0.94479   0.67175   0.21248   0.00000  Uiso   1.00
C663   C     0.87153   0.92292   0.47563   0.00000  Uiso   1.00
C664   C     0.72066   0.99588   0.28606   0.00000  Uiso   1.00
C665   C     0.80661   0.74231   0.02347   0.00000  Uiso   1.00
C666   C     0.85669   0.98551   0.24845   0.00000  Uiso   1.00
C667   C     0.80979   0.68109   0.25086   0.00000  Uiso   1.00
C668   C     0.83383   0.83255   0.33627   0.00000  Uiso   1.00
C669   C     0.83294   0.83387   0.16366   0.00000  Uiso   1.00
C670   C     0.81392   0.78967   0.09357   0.00000  Uiso   1.00
H671   H     0.88272   0.95777   0.45726   0.00000  Uiso   1.00
H672   H     0.95875   0.90407   0.08122   0.00000  Uiso   1.00
H673   H     0.95308   0.89079   0.14073   0.00000  Uiso   1.00
H674   H     0.70982   0.75940   0.42212   0.00000  Uiso   1.00
H675   H     0.70728   0.71304   0.37712   0.00000  Uiso   1.00
H676   H     0.71360   0.78011   0.36438   0.00000  Uiso   1.00
H677   H     0.92217   0.68822   0.00014   0.00000  Uiso   1.00
H678   H     0.94319   0.69279   0.05646   0.00000  Uiso   1.00
H679   H     0.96566   0.97279   0.02186   0.00000  Uiso   1.00
H680   H     0.70779   0.69563   0.48527   0.00000  Uiso   1.00
H681   H     0.75206   0.97734   0.00056   0.00000  Uiso   1.00
H682   H     0.79945   0.70669   0.04133   0.00000  Uiso   1.00
H683   H     0.72278   0.97692   0.44689   0.00000  Uiso   1.00
H684   H     0.92164   0.68727   0.18490   0.00000  Uiso   1.00
H685   H     0.95834   0.96578   0.20366   0.00000  Uiso   1.00
H686   H     0.98466   0.69633   0.21562   0.00000  Uiso   1.00
H687   H     0.68160   0.97009   0.28325   0.00000  Uiso   1.00
H688   H     0.70570   0.70173   0.29336   0.00000  Uiso   1.00
H689   H     0.74345   0.98249   0.31464   0.00000  Uiso   1.00
H690   H     0.97877   0.78133   0.18504   0.00000  Uiso   1.00
H691   H     0.68739   0.88499   0.31553   0.00000  Uiso   1.00
H692   H     0.71324   0.77753   0.12068   0.00000  Uiso   1.00
H693   H     0.71890   0.71802   0.14895   0.00000  Uiso   1.00
H694   H     0.72073   0.71767   0.08917   0.00000  Uiso   1.00
H695   H     0.80504   0.95511   0.39775   0.00000  Uiso   1.00
H696   H     0.81831   0.93435   0.34002   0.00000  Uiso   1.00
H697   H     0.85897   0.98852   0.36175   0.00000  Uiso   1.00
H698   H     0.95959   0.95568   0.12165   0.00000  Uiso   1.00
N699   N     0.98344   0.81932   0.23783   0.00000  Uiso   1.00
N700   N     0.68322   0.84735   0.26217   0.00000  Uiso   1.00
O701   O     0.79642   0.91286   0.25298   0.00000  Uiso   1.00
O702   O     0.88194   0.91803   0.38161   0.00000  Uiso   1.00
O703   O     0.87949   0.91923   0.11740   0.00000  Uiso   1.00
O704   O     0.78772   0.74799   0.38322   0.00000  Uiso   1.00
O705   O     0.87856   0.97126   0.04574   0.00000  Uiso   1.00
O706   O     0.79182   0.69530   0.45408   0.00000  Uiso   1.00
O707   O     0.91209   0.67275   0.25419   0.00000  Uiso   1.00
O708   O     0.75442   0.99380   0.24483   0.00000  Uiso   1.00
O709   O     0.67698   0.79585   0.20276   0.00000  Uiso   1.00
O710   O     0.98948   0.87054   0.29747   0.00000  Uiso   1.00
O711   O     0.87025   0.75381   0.24702   0.00000  Uiso   1.00
O712   O     0.89280   0.90387   0.24518   0.00000  Uiso   1.00
O713   O     0.77387   0.76279   0.25482   0.00000  Uiso   1.00
O714   O     0.78514   0.83784   0.31997   0.00000  Uiso   1.00
O715   O     0.88153   0.82883   0.18002   0.00000  Uiso   1.00
O716   O     0.88152   0.82885   0.31218   0.00000  Uiso   1.00
O717   O     0.78515   0.83781   0.18782   0.00000  Uiso   1.00
O718   O     0.79518   0.74642   0.11795   0.00000  Uiso   1.00
Zn719  Zn    0.76898   0.83933   0.25521   0.00000  Uiso   1.00
Zn720  Zn    0.89769   0.82734   0.24479   0.00000  Uiso   1.00
C721   C     0.18169   0.26464   0.74775   0.00000  Uiso   1.00
C722   C     0.19003   0.21007   0.90580   0.00000  Uiso   1.00
C723   C     0.16602   0.16773   0.61601   0.00000  Uiso   1.00
C724   C     0.16829   0.16594   0.88380   0.00000  Uiso   1.00
C725   C     0.18928   0.21133   0.59327   0.00000  Uiso   1.00
C726   C     0.14559   0.12247   0.90686   0.00000  Uiso   1.00
C727   C     0.18734   0.21268   0.54643   0.00000  Uiso   1.00
C728   C     0.15077   0.12052   0.95325   0.00000  Uiso   1.00
C729   C     0.16971   0.16687   0.52316   0.00000  Uiso   1.00
C730   C     0.16995   0.16603   0.97630   0.00000  Uiso   1.00
C731   C     0.15209   0.12163   0.54678   0.00000  Uiso   1.00
C732   C     0.15159   0.06866   0.75181   0.00000  Uiso   1.00
C733   C     0.18883   0.21087   0.95252   0.00000  Uiso   1.00
C734   C     0.20383   0.25801   0.52252   0.00000  Uiso   1.00
C735   C     0.13672   0.07472   0.97704   0.00000  Uiso   1.00
C736   C     0.06787   0.07359   0.61887   0.00000  Uiso   1.00
C737   C     0.17211   0.28331   0.87007   0.00000  Uiso   1.00
C738   C     0.27339   0.25001   0.61486   0.00000  Uiso   1.00
C739   C     0.06057   0.08421   0.88715   0.00000  Uiso   1.00
C740   C     0.26305   0.33192   0.52974   0.00000  Uiso   1.00
C741   C     0.07481   0.00232   0.97309   0.00000  Uiso   1.00
C742   C     0.27812   0.00509   0.71248   0.00000  Uiso   1.00
C743   C     0.20486   0.25625   0.97563   0.00000  Uiso   1.00
C744   C     0.05399   0.32921   0.78606   0.00000  Uiso   1.00
C745   C     0.13994   0.07565   0.52347   0.00000  Uiso   1.00
C746   C     0.19002   0.31884   0.74845   0.00000  Uiso   1.00
C747   C     0.14312   0.01443   0.75086   0.00000  Uiso   1.00
C748   C     0.16717   0.16589   0.83627   0.00000  Uiso   1.00
C749   C     0.16627   0.16721   0.66366   0.00000  Uiso   1.00
C750   C     0.14725   0.12300   0.59357   0.00000  Uiso   1.00
H751   H     0.21605   0.29110   0.95726   0.00000  Uiso   1.00
H752   H     0.29208   0.23741   0.58122   0.00000  Uiso   1.00
H753   H     0.28642   0.22412   0.64073   0.00000  Uiso   1.00
H754   H     0.04315   0.09274   0.92212   0.00000  Uiso   1.00
H755   H     0.04061   0.04638   0.87712   0.00000  Uiso   1.00
H756   H     0.04693   0.11344   0.86438   0.00000  Uiso   1.00
H757   H     0.25550   0.02156   0.50014   0.00000  Uiso   1.00
H758   H     0.27652   0.02613   0.55646   0.00000  Uiso   1.00
H759   H     0.29899   0.30612   0.52186   0.00000  Uiso   1.00
H760   H     0.04113   0.02896   0.98527   0.00000  Uiso   1.00
H761   H     0.08539   0.31067   0.50056   0.00000  Uiso   1.00
H762   H     0.13279   0.04003   0.54133   0.00000  Uiso   1.00
H763   H     0.05611   0.31026   0.94689   0.00000  Uiso   1.00
H764   H     0.25497   0.02060   0.68490   0.00000  Uiso   1.00
H765   H     0.29167   0.29912   0.70366   0.00000  Uiso   1.00
H766   H     0.31799   0.02966   0.71562   0.00000  Uiso   1.00
H767   H     0.01494   0.30342   0.78325   0.00000  Uiso   1.00
H768   H     0.03903   0.03506   0.79336   0.00000  Uiso   1.00
H769   H     0.07678   0.31582   0.81464   0.00000  Uiso   1.00
H770   H     0.31210   0.11467   0.68504   0.00000  Uiso   1.00
H771   H     0.02072   0.21832   0.81553   0.00000  Uiso   1.00
H772   H     0.04658   0.11086   0.62068   0.00000  Uiso   1.00
H773   H     0.05223   0.05136   0.64895   0.00000  Uiso   1.00
H774   H     0.05406   0.05100   0.58917   0.00000  Uiso   1.00
H775   H     0.13837   0.28845   0.89775   0.00000  Uiso   1.00
H776   H     0.15165   0.26768   0.84002   0.00000  Uiso   1.00
H777   H     0.19231   0.32185   0.86175   0.00000  Uiso   1.00
H778   H     0.29293   0.28902   0.62165   0.00000  Uiso   1.00
N779   N     0.31678   0.15265   0.73783   0.00000  Uiso   1.00
N780   N     0.01656   0.18068   0.76217   0.00000  Uiso   1.00
O781   O     0.12975   0.24619   0.75298   0.00000  Uiso   1.00
O782   O     0.21527   0.25137   0.88161   0.00000  Uiso   1.00
O783   O     0.21282   0.25257   0.61740   0.00000  Uiso   1.00
O784   O     0.12106   0.08132   0.88322   0.00000  Uiso   1.00
O785   O     0.21189   0.30460   0.54574   0.00000  Uiso   1.00
O786   O     0.12516   0.02863   0.95408   0.00000  Uiso   1.00
O787   O     0.24542   0.00609   0.75419   0.00000  Uiso   1.00
O788   O     0.08775   0.32714   0.74483   0.00000  Uiso   1.00
O789   O     0.01031   0.12918   0.70276   0.00000  Uiso   1.00
O790   O     0.32282   0.20387   0.79747   0.00000  Uiso   1.00
O791   O     0.20358   0.08714   0.74702   0.00000  Uiso   1.00
O792   O     0.22613   0.23721   0.74518   0.00000  Uiso   1.00
O793   O     0.10720   0.09613   0.75482   0.00000  Uiso   1.00
O794   O     0.11847   0.17117   0.81997   0.00000  Uiso   1.00
O795   O     0.21486   0.16216   0.68002   0.00000  Uiso   1.00
O796   O     0.21485   0.16219   0.81218   0.00000  Uiso   1.00
O797   O     0.11848   0.17115   0.68782   0.00000  Uiso   1.00
O798   O     0.12851   0.07975   0.61795   0.00000  Uiso   1.00
Zn799  Zn    0.10231   0.17266   0.75521   0.00000  Uiso   1.00
Zn800  Zn    0.23102   0.16067   0.74479   0.00000  Uiso   1.00
C801   C     0.51502   0.26464   0.74775   0.00000  Uiso   1.00
C802   C     0.52337   0.21007   0.90580   0.00000  Uiso   1.00
C803   C     0.49935   0.16773   0.61601   0.00000  Uiso   1.00
C804   C     0.50163   0.16594   0.88380   0.00000  Uiso   1.00
C805   C     0.52261   0.21133   0.59327   0.00000  Uiso   1.00
C806   C     0.47892   0.12247   0.90686   0.00000  Uiso   1.00
C807   C     0.52068   0.21268   0.54643   0.00000  Uiso   1.00
C808   C     0.48411   0.12052   0.95325   0.00000  Uiso   1.00
C809   C     0.50304   0.16687   0.52316   0.00000  Uiso   1.00
C810   C     0.50329   0.16603   0.97630   0.00000  Uiso   1.00
C811   C     0.48543   0.12163   0.54678   0.00000  Uiso   1.00
C812   C     0.48492   0.06866   0.75181   0.00000  Uiso   1.00
C813   C     0.52216   0.21087   0.95252   0.00000  Uiso   1.00
C814   C     0.53717   0.25801   0.52252   0.00000  Uiso   1.00
C815   C     0.47005   0.07472   0.97704   0.00000  Uiso   1.00
C816   C     0.40121   0.07359   0.61887   0.00000  Uiso   1.00
C817   C     0.50544   0.28331   0.87007   0.00000  Uiso   1.00
C818   C     0.60673   0.25001   0.61486   0.00000  Uiso   1.00
C819   C     0.39390   0.08421   0.88715   0.00000  Uiso   1.00
C820   C     0.59639   0.33192   0.52974   0.00000  Uiso   1.00
C821   C     0.40814   0.00232   0.97309   0.00000  Uiso   1.00
C822   C     0.61146   0.00509   0.71248   0.00000  Uiso   1.00
C823   C     0.53820   0.25625   0.97563   0.00000  Uiso   1.00
C824   C     0.38732   0.32921   0.78606   0.00000  Uiso   1.00
C825   C     0.47327   0.07565   0.52347   0.00000  Uiso   1.00
C826   C     0.52335   0.31884   0.74845   0.00000  Uiso   1.00
C827   C     0.47645   0.01443   0.75086   0.00000  Uiso   1.00
C828   C     0.50050   0.16589   0.83627   0.00000  Uiso   1.00
C829   C     0.49961   0.16721   0.66366   0.00000  Uiso   1.00
C830   C     0.48059   0.12300   0.59357   0.00000  Uiso   1.00
H831   H     0.54938   0.29110   0.95726   0.00000  Uiso   1.00
H832   H     0.62542   0.23741   0.58122   0.00000  Uiso   1.00
H833   H     0.61975   0.22412   0.64073   0.00000  Uiso   1.00
H834   H     0.37648   0.09274   0.92212   0.00000  Uiso   1.00
H835   H     0.37394   0.04638   0.87712   0.00000  Uiso   1.00
H836   H     0.38027   0.11344   0.86438   0.00000  Uiso   1.00
H837   H     0.58884   0.02156   0.50014   0.00000  Uiso   1.00
H838   H     0.60986   0.02613   0.55646   0.00000  Uiso   1.00
H839   H     0.63233   0.30612   0.52186   0.00000  Uiso   1.00
H840   H     0.37446   0.02896   0.98527   0.00000  Uiso   1.00
H841   H     0.41872   0.31067   0.50056   0.00000  Uiso   1.00
H842   H     0.46612   0.04003   0.54133   0.00000  Uiso   1.00
H843   H     0.38945   0.31026   0.94689   0.00000  Uiso   1.00
H844   H     0.58831   0.02060   0.68490   0.00000  Uiso   1.00
H845   H     0.62501   0.29912   0.70366   0.00000  Uiso   1.00
H846   H     0.65132   0.02966   0.71562   0.00000  Uiso   1.00
H847   H     0.34827   0.30342   0.78325   0.00000  Uiso   1.00
H848   H     0.37236   0.03506   0.79336   0.00000  Uiso   1.00
H849   H     0.41012   0.31582   0.81464   0.00000  Uiso   1.00
H850   H     0.64544   0.11467   0.68504   0.00000  Uiso   1.00
H851   H     0.35406   0.21832   0.81553   0.00000  Uiso   1.00
H852   H     0.37991   0.11086   0.62068   0.00000  Uiso   1.00
H853   H     0.38557   0.05136   0.64895   0.00000  Uiso   1.00
H854   H     0.38739   0.05100   0.58917   0.00000  Uiso   1.00
H855   H     0.47171   0.28845   0.89775   0.00000  Uiso   1.00
H856   H     0.48498   0.26768   0.84002   0.00000  Uiso   1.00
H857   H     0.52564   0.32185   0.86175   0.00000  Uiso   1.00
H858   H     0.62626   0.28902   0.62165   0.00000  Uiso   1.00
N859   N     0.65011   0.15265   0.73783   0.00000  Uiso   1.00
N860   N     0.34989   0.18068   0.76217   0.00000  Uiso   1.00
O861   O     0.46308   0.24619   0.75298   0.00000  Uiso   1.00
O862   O     0.54860   0.25137   0.88161   0.00000  Uiso   1.00
O863   O     0.54615   0.25257   0.61740   0.00000  Uiso   1.00
O864   O     0.45439   0.08132   0.88322   0.00000  Uiso   1.00
O865   O     0.54523   0.30460   0.54574   0.00000  Uiso   1.00
O866   O     0.45849   0.02863   0.95408   0.00000  Uiso   1.00
O867   O     0.57875   0.00609   0.75419   0.00000  Uiso   1.00
O868   O     0.42108   0.32714   0.74483   0.00000  Uiso   1.00
O869   O     0.34365   0.12918   0.70276   0.00000  Uiso   1.00
O870   O     0.65615   0.20387   0.79747   0.00000  Uiso   1.00
O871   O     0.53692   0.08714   0.74702   0.00000  Uiso   1.00
O872   O     0.55946   0.23721   0.74518   0.00000  Uiso   1.00
O873   O     0.44054   0.09613   0.75482   0.00000  Uiso   1.00
O874   O     0.45181   0.17117   0.81997   0.00000  Uiso   1.00
O875   O     0.54819   0.16216   0.68002   0.00000  Uiso   1.00
O876   O     0.54819   0.16219   0.81218   0.00000  Uiso   1.00
O877   O     0.45181   0.17115   0.68782   0.00000  Uiso   1.00
O878   O     0.46184   0.07975   0.61795   0.00000  Uiso   1.00
Zn879  Zn    0.43565   0.17266   0.75521   0.00000  Uiso   1.00
Zn880  Zn    0.56435   0.16067   0.74479   0.00000  Uiso   1.00
C881   C     0.84836   0.26464   0.74775   0.00000  Uiso   1.00
C882   C     0.85670   0.21007   0.90580   0.00000  Uiso   1.00
C883   C     0.83269   0.16773   0.61601   0.00000  Uiso   1.00
C884   C     0.83496   0.16594   0.88380   0.00000  Uiso   1.00
C885   C     0.85595   0.21133   0.59327   0.00000  Uiso   1.00
C886   C     0.81226   0.12247   0.90686   0.00000  Uiso   1.00
C887   C     0.85401   0.21268   0.54643   0.00000  Uiso   1.00
C888   C     0.81744   0.12052   0.95325   0.00000  Uiso   1.00
C889   C     0.83638   0.16687   0.52316   0.00000  Uiso   1.00
C890   C     0.83662   0.16603   0.97630   0.00000  Uiso   1.00
C891   C     0.81876   0.12163   0.54678   0.00000  Uiso   1.00
C892   C     0.81825   0.06866   0.75181   0.00000  Uiso   1.00
C893   C     0.85550   0.21087   0.95252   0.00000  Uiso   1.00
C894   C     0.87050   0.25801   0.52252   0.00000  Uiso   1.00
C895   C     0.80339   0.07472   0.97704   0.00000  Uiso   1.00
C896   C     0.73454   0.07359   0.61887   0.00000  Uiso   1.00
C897   C     0.83877   0.28331   0.87007   0.00000  Uiso   1.00
C898   C     0.94006   0.25001   0.61486   0.00000  Uiso   1.00
C899   C     0.72724   0.08421   0.88715   0.00000  Uiso   1.00
C900   C     0.92972   0.33192   0.52974   0.00000  Uiso   1.00
C901   C     0.74147   0.00232   0.97309   0.00000  Uiso   1.00
C902   C     0.94479   0.00509   0.71248   0.00000  Uiso   1.00
C903   C     0.87153   0.25625   0.97563   0.00000  Uiso   1.00
C904   C     0.72066   0.32921   0.78606   0.00000  Uiso   1.00
C905   C     0.80661   0.07565   0.52347   0.00000  Uiso   1.00
C906   C     0.85669   0.31884   0.74845   0.00000  Uiso   1.00
C907   C     0.80979   0.01443   0.75086   0.00000  Uiso   1.00
C908   C     0.83383   0.16589   0.83627   0.00000  Uiso   1.00
C909   C     0.83294   0.16721   0.66366   0.00000  Uiso   1.00
C910   C     0.81392   0.12300   0.59357   0.00000  Uiso   1.00
H911   H     0.88272   0.29110   0.95726   0.00000  Uiso   1.00
H912   H     0.95875   0.23741   0.58122   0.00000  Uiso   1.00
H913   H     0.95308   0.22412   0.64073   0.00000  Uiso   1.00
H914   H     0.70982   0.09274   0.92212   0.00000  Uiso   1.00
H915   H     0.70728   0.04638   0.87712   0.00000  Uiso   1.00
H916   H     0.71360   0.11344   0.86438   0.00000  Uiso   1.00
H917   H     0.92217   0.02156   0.50014   0.00000  Uiso   1.00
H918   H     0.94319   0.02613   0.55646   0.00000  Uiso   1.00
H919   H     0.96566   0.30612   0.52186   0.00000  Uiso   1.00
H920   H     0.70779   0.02896   0.98527   0.00000  Uiso   1.00
H921   H     0.75206   0.31067   0.50056   0.00000  Uiso   1.00
H922   H     0.79945   0.04003   0.54133   0.00000  Uiso   1.00
H923   H     0.72278   0.31026   0.94689   0.00000  Uiso   1.00
H924   H     0.92164   0.02060   0.68490   0.00000  Uiso   1.00
H925   H     0.95834   0.29912   0.70366   0.00000  Uiso   1.00
H926   H     0.98466   0.02966   0.71562   0.00000  Uiso   1.00
H927   H     0.68160   0.30342   0.78325   0.00000  Uiso   1.00
H928   H     0.70570   0.03506   0.79336   0.00000  Uiso   1.00
H929   H     0.74345   0.31582   0.81464   0.00000  Uiso   1.00
H930   H     0.97877   0.11467   0.68504   0.00000  Uiso   1.00
H931   H     0.68739   0.21832   0.81553   0.00000  Uiso   1.00
H932   H     0.71324   0.11086   0.62068   0.00000  Uiso   1.00
H933   H     0.71890   0.05136   0.64895   0.00000  Uiso   1.00
H934   H     0.72073   0.05100   0.58917   0.00000  Uiso   1.00
H935   H     0.80504   0.28845   0.89775   0.00000  Uiso   1.00
H936   H     0.81831   0.26768   0.84002   0.00000  Uiso   1.00
H937   H     0.85897   0.32185   0.86175   0.00000  Uiso   1.00
H938   H     0.95959   0.28902   0.62165   0.00000  Uiso   1.00
N939   N     0.98344   0.15265   0.73783   0.00000  Uiso   1.00
N940   N     0.68322   0.18068   0.76217   0.00000  Uiso   1.00
O941   O     0.79642   0.24619   0.75298   0.00000  Uiso   1.00
O942   O     0.88194   0.25137   0.88161   0.00000  Uiso   1.00
O943   O     0.87949   0.25257   0.61740   0.00000  Uiso   1.00
O944   O     0.78772   0.08132   0.88322   0.00000  Uiso   1.00
O945   O     0.87856   0.30460   0.54574   0.00000  Uiso   1.00
O946   O     0.79182   0.02863   0.95408   0.00000  Uiso   1.00
O947   O     0.91209   0.00609   0.75419   0.00000  Uiso   1.00
O948   O     0.75442   0.32714   0.74483   0.00000  Uiso   1.00
O949   O     0.67698   0.12918   0.70276   0.00000  Uiso   1.00
O950   O     0.98948   0.20387   0.79747   0.00000  Uiso   1.00
O951   O     0.87025   0.08714   0.74702   0.00000  Uiso   1.00
O952   O     0.89280   0.23721   0.74518   0.00000  Uiso   1.00
O953   O     0.77387   0.09613   0.75482   0.00000  Uiso   1.00
O954   O     0.78514   0.17117   0.81997   0.00000  Uiso   1.00
O955   O     0.88153   0.16216   0.68002   0.00000  Uiso   1.00
O956   O     0.88152   0.16219   0.81218   0.00000  Uiso   1.00
O957   O     0.78515   0.17115   0.68782   0.00000  Uiso   1.00
O958   O     0.79518   0.07975   0.61795   0.00000  Uiso   1.00
Zn959  Zn    0.76898   0.17266   0.75521   0.00000  Uiso   1.00
Zn960  Zn    0.89769   0.16067   0.74479   0.00000  Uiso   1.00
C961   C     0.18169   0.59797   0.74775   0.00000  Uiso   1.00
C962   C     0.19003   0.54340   0.90580   0.00000  Uiso   1.00
C963   C     0.16602   0.50107   0.61601   0.00000  Uiso   1.00
C964   C     0.16829   0.49927   0.88380   0.00000  Uiso   1.00
C965   C     0.18928   0.54467   0.59327   0.00000  Uiso   1.00
C966   C     0.14559   0.45580   0.90686   0.00000  Uiso   1.00
C967   C     0.18734   0.54601   0.54643   0.00000  Uiso   1.00
C968   C     0.15077   0.45385   0.95325   0.00000  Uiso   1.00
C969   C     0.16971   0.50021   0.52316   0.00000  Uiso   1.00
C970   C     0.16995   0.49936   0.97630   0.00000  Uiso   1.00
C971   C     0.15209   0.45496   0.54678   0.00000  Uiso   1.00
C972   C     0.15159   0.40199   0.75181   0.00000  Uiso   1.00
C973   C     0.18883   0.54421   0.95252   0.00000  Uiso   1.00
C974   C     0.20383   0.59135   0.52252   0.00000  Uiso   1.00
C975   C     0.13672   0.40806   0.97704   0.00000  Uiso   1.00
C976   C     0.06787   0.40693   0.61887   0.00000  Uiso   1.00
C977   C     0.17211   0.61664   0.87007   0.00000  Uiso   1.00
C978   C     0.27339   0.58334   0.61486   0.00000  Uiso   1.00
C979   C     0.06057   0.41754   0.88715   0.00000  Uiso   1.00
C980   C     0.26305   0.66525   0.52974   0.00000  Uiso   1.00
C981   C     0.07481   0.33565   0.97309   0.00000  Uiso   1.00
C982   C     0.27812   0.33842   0.71248   0.00000  Uiso   1.00
C983   C     0.20486   0.58958   0.97563   0.00000  Uiso   1.00
C984   C     0.05399   0.66254   0.78606   0.00000  Uiso   1.00
C985   C     0.13994   0.40898   0.52347   0.00000  Uiso   1.00
C986   C     0.19002   0.65218   0.74845   0.00000  Uiso   1.00
C987   C     0.14312   0.34776   0.75086   0.00000  Uiso   1.00
C988   C     0.16717   0.49922   0.83627   0.00000  Uiso   1.00
C989   C     0.16627   0.50054   0.66366   0.00000  Uiso   1.00
C990   C     0.14725   0.45634   0.59357   0.00000  Uiso   1.00
H991   H     0.21605   0.62444   0.95726   0.00000  Uiso   1.00
H992   H     0.29208   0.57074   0.58122   0.00000  Uiso   1.00
H993   H     0.28642   0.55746   0.64073   0.00000  Uiso   1.00
H994   H     0.04315   0.42607   0.92212   0.00000  Uiso   1.00
H995   H     0.04061   0.37971   0.87712   0.00000  Uiso   1.00
H996   H     0.04693   0.44677   0.86438   0.00000  Uiso   1.00
H997   H     0.25550   0.35489   0.50014   0.00000  Uiso   1.00
H998   H     0.27652   0.35946   0.55646   0.00000  Uiso   1.00
H999   H     0.29899   0.63945   0.52186   0.00000  Uiso   1.00
H1000  H     0.04113   0.36230   0.98527   0.00000  Uiso   1.00
H1001  H     0.08539   0.64401   0.50056   0.00000  Uiso   1.00
H1002  H     0.13279   0.37336   0.54133   0.00000  Uiso   1.00
H1003  H     0.05611   0.64359   0.94689   0.00000  Uiso   1.00
H1004  H     0.25497   0.35394   0.68490   0.00000  Uiso   1.00
H1005  H     0.29167   0.63245   0.70366   0.00000  Uiso   1.00
H1006  H     0.31799   0.36300   0.71562   0.00000  Uiso   1.00
H1007  H     0.01494   0.63675   0.78325   0.00000  Uiso   1.00
H1008  H     0.03903   0.36839   0.79336   0.00000  Uiso   1.00
H1009  H     0.07678   0.64915   0.81464   0.00000  Uiso   1.00
H1010  H     0.31210   0.44800   0.68504   0.00000  Uiso   1.00
H1011  H     0.02072   0.55166   0.81553   0.00000  Uiso   1.00
H1012  H     0.04658   0.44420   0.62068   0.00000  Uiso   1.00
H1013  H     0.05223   0.38469   0.64895   0.00000  Uiso   1.00
H1014  H     0.05406   0.38433   0.58917   0.00000  Uiso   1.00
H1015  H     0.13837   0.62178   0.89775   0.00000  Uiso   1.00
H1016  H     0.15165   0.60101   0.84002   0.00000  Uiso   1.00
H1017  H     0.19231   0.65519   0.86175   0.00000  Uiso   1.00
H1018  H     0.29293   0.62235   0.62165   0.00000  Uiso   1.00
N1019  N     0.31678   0.48598   0.73783   0.00000  Uiso   1.00
N1020  N     0.01656   0.51402   0.76217   0.00000  Uiso   1.00
O1021  O     0.12975   0.57952   0.75298   0.00000  Uiso   1.00
O1022  O     0.21527   0.58470   0.88161   0.00000  Uiso   1.00
O1023  O     0.21282   0.58590   0.61740   0.00000  Uiso   1.00
O1024  O     0.12106   0.41465   0.88322   0.00000  Uiso   1.00
O1025  O     0.21189   0.63793   0.54574   0.00000  Uiso   1.00
O1026  O     0.12516   0.36196   0.95408   0.00000  Uiso   1.00
O1027  O     0.24542   0.33942   0.75419   0.00000  Uiso   1.00
O1028  O     0.08775   0.66047   0.74483   0.00000  Uiso   1.00
O1029  O     0.01031   0.46252   0.70276   0.00000  Uiso   1.00
O1030  O     0.32282   0.53721   0.79747   0.00000  Uiso   1.00
O1031  O     0.20358   0.42048   0.74702   0.00000  Uiso   1.00
O1032  O     0.22613   0.57054   0.74518   0.00000  Uiso   1.00
O1033  O     0.10720   0.42946   0.75482   0.00000  Uiso   1.00
O1034  O     0.11847   0.50450   0.81997   0.00000  Uiso   1.00
O1035  O     0.21486   0.49550   0.68002   0.00000  Uiso   1.00
O1036  O     0.21485   0.49552   0.81218   0.00000  Uiso   1.00
O1037  O     0.11848   0.50448   0.68782   0.00000  Uiso   1.00
O1038  O     0.12851   0.41309   0.61795   0.00000  Uiso   1.00
Zn1039 Zn    0.10231   0.50600   0.75521   0.00000  Uiso   1.00
Zn1040 Zn    0.23102   0.49400   0.74479   0.00000  Uiso   1.00
C1041  C     0.51502   0.59797   0.74775   0.00000  Uiso   1.00
C1042  C     0.52337   0.54340   0.90580   0.00000  Uiso   1.00
C1043  C     0.49935   0.50107   0.61601   0.00000  Uiso   1.00
C1044  C     0.50163   0.49927   0.88380   0.00000  Uiso   1.00
C1045  C     0.52261   0.54467   0.59327   0.00000  Uiso   1.00
C1046  C     0.47892   0.45580   0.90686   0.00000  Uiso   1.00
C1047  C     0.52068   0.54601   0.54643   0.00000  Uiso   1.00
C1048  C     0.48411   0.45385   0.95325   0.00000  Uiso   1.00
C1049  C     0.50304   0.50021   0.52316   0.00000  Uiso   1.00
C1050  C     0.50329   0.49936   0.97630   0.00000  Uiso   1.00
C1051  C     0.48543   0.45496   0.54678   0.00000  Uiso   1.00
C1052  C     0.48492   0.40199   0.75181   0.00000  Uiso   1.00
C1053  C     0.52216   0.54421   0.95252   0.00000  Uiso   1.00
C1054  C     0.53717   0.59135   0.52252   0.00000  Uiso   1.00
C1055  C     0.47005   0.40806   0.97704   0.00000  Uiso   1.00
C1056  C     0.40121   0.40693   0.61887   0.00000  Uiso   1.00
C1057  C     0.50544   0.61664   0.87007   0.00000  Uiso   1.00
C1058  C     0.60673   0.58334   0.61486   0.00000  Uiso   1.00
C1059  C     0.39390   0.41754   0.88715   0.00000  Uiso   1.00
C1060  C     0.59639   0.66525   0.52974   0.00000  Uiso   1.00
C1061  C     0.40814   0.33565   0.97309   0.00000  Uiso   1.00
C1062  C     0.61146   0.33842   0.71248   0.00000  Uiso   1.00
C1063  C     0.53820   0.58958   0.97563   0.00000  Uiso   1.00
C1064  C     0.38732   0.66254   0.78606   0.00000  Uiso   1.00
C1065  C     0.47327   0.40898   0.52347   0.00000  Uiso   1.00
C1066  C     0.52335   0.65218   0.74845   0.00000  Uiso   1.00
C1067  C     0.47645   0.34776   0.75086   0.00000  Uiso   1.00
C1068  C     0.50050   0.49922   0.83627   0.00000  Uiso   1.00
C1069  C     0.49961   0.50054   0.66366   0.00000  Uiso   1.00
C1070  C     0.48059   0.45634   0.59357   0.00000  Uiso   1.00
H1071  H     0.54938   0.62444   0.95726   0.00000  Uiso   1.00
H1072  H     0.62542   0.57074   0.58122   0.00000  Uiso   1.00
H1073  H     0.61975   0.55746   0.64073   0.00000  Uiso   1.00
H1074  H     0.37648   0.42607   0.92212   0.00000  Uiso   1.00
H1075  H     0.37394   0.37971   0.87712   0.00000  Uiso   1.00
H1076  H     0.38027   0.44677   0.86438   0.00000  Uiso   1.00
H1077  H     0.58884   0.35489   0.50014   0.00000  Uiso   1.00
H1078  H     0.60986   0.35946   0.55646   0.00000  Uiso   1.00
H1079  H     0.63233   0.63945   0.52186   0.00000  Uiso   1.00
H1080  H     0.37446   0.36230   0.98527   0.00000  Uiso   1.00
H1081  H     0.41872   0.64401   0.50056   0.00000  Uiso   1.00
H1082  H     0.46612   0.37336   0.54133   0.00000  Uiso   1.00
H1083  H     0.38945   0.64359   0.94689   0.00000  Uiso   1.00
H1084  H     0.58831   0.35394   0.68490   0.00000  Uiso   1.00
H1085  H     0.62501   0.63245   0.70366   0.00000  Uiso   1.00
H1086  H     0.65132   0.36300   0.71562   0.00000  Uiso   1.00
H1087  H     0.34827   0.63675   0.78325   0.00000  Uiso   1.00
H1088  H     0.37236   0.36839   0.79336   0.00000  Uiso   1.00
H1089  H     0.41012   0.64915   0.81464   0.00000  Uiso   1.00
H1090  H     0.64544   0.44800   0.68504   0.00000  Uiso   1.00
H1091  H     0.35406   0.55166   0.81553   0.00000  Uiso   1.00
H1092  H     0.37991   0.44420   0.62068   0.00000  Uiso   1.00
H1093  H     0.38557   0.38469   0.64895   0.00000  Uiso   1.00
H1094  H     0.38739   0.38433   0.58917   0.00000  Uiso   1.00
H1095  H     0.47171   0.62178   0.89775   0.00000  Uiso   1.00
H1096  H     0.48498   0.60101   0.84002   0.00000  Uiso   1.00
H1097  H     0.52564   0.65519   0.86175   0.00000  Uiso   1.00
H1098  H     0.62626   0.62235   0.62165   0.00000  Uiso   1.00
N1099  N     0.65011   0.48598   0.73783   0.00000  Uiso   1.00
N1100  N     0.34989   0.51402   0.76217   0.00000  Uiso   1.00
O1101  O     0.46308   0.57952   0.75298   0.00000  Uiso   1.00
O1102  O     0.54860   0.58470   0.88161   0.00000  Uiso   1.00
O1103  O     0.54615   0.58590   0.61740   0.00000  Uiso   1.00
O1104  O     0.45439   0.41465   0.88322   0.00000  Uiso   1.00
O1105  O     0.54523   0.63793   0.54574   0.00000  Uiso   1.00
O1106  O     0.45849   0.36196   0.95408   0.00000  Uiso   1.00
O1107  O     0.57875   0.33942   0.75419   0.00000  Uiso   1.00
O1108  O     0.42108   0.66047   0.74483   0.00000  Uiso   1.00
O1109  O     0.34365   0.46252   0.70276   0.00000  Uiso   1.00
O1110  O     0.65615   0.53721   0.79747   0.00000  Uiso   1.00
O1111  O     0.53692   0.42048   0.74702   0.00000  Uiso   1.00
O1112  O     0.55946   0.57054   0.74518   0.00000  Uiso   1.00
O1113  O     0.44054   0.42946   0.75482   0.00000  Uiso   1.00
O1114  O     0.45181   0.50450   0.81997   0.00000  Uiso   1.00
O1115  O     0.54819   0.49550   0.68002   0.00000  Uiso   1.00
O1116  O     0.54819   0.49552   0.81218   0.00000  Uiso   1.00
O1117  O     0.45181   0.50448   0.68782   0.00000  Uiso   1.00
O1118  O     0.46184   0.41309   0.61795   0.00000  Uiso   1.00
Zn1119 Zn    0.43565   0.50600   0.75521   0.00000  Uiso   1.00
Zn1120 Zn    0.56435   0.49400   0.74479   0.00000  Uiso   1.00
C1121  C     0.84836   0.59797   0.74775   0.00000  Uiso   1.00
C1122  C     0.85670   0.54340   0.90580   0.00000  Uiso   1.00
C1123  C     0.83269   0.50107   0.61601   0.00000  Uiso   1.00
C1124  C     0.83496   0.49927   0.88380   0.00000  Uiso   1.00
C1125  C     0.85595   0.54467   0.59327   0.00000  Uiso   1.00
C1126  C     0.81226   0.45580   0.90686   0.00000  Uiso   1.00
C1127  C     0.85401   0.54601   0.54643   0.00000  Uiso   1.00
C1128  C     0.81744   0.45385   0.95325   0.00000  Uiso   1.00
C1129  C     0.83638   0.50021   0.52316   0.00000  Uiso   1.00
C1130  C     0.83662   0.49936   0.97630   0.00000  Uiso   1.00
C1131  C     0.81876   0.45496   0.54678   0.00000  Uiso   1.00
C1132  C     0.81825   0.40199   0.75181   0.00000  Uiso   1.00
C1133  C     0.85550   0.54421   0.95252   0.00000  Uiso   1.00
C1134  C     0.87050   0.59135   0.52252   0.00000  Uiso   1.00
C1135  C     0.80339   0.40806   0.97704   0.00000  Uiso   1.00
C1136  C     0.73454   0.40693   0.61887   0.00000  Uiso   1.00
C1137  C     0.83877   0.61664   0.87007   0.00000  Uiso   1.00
C1138  C     0.94006   0.58334   0.61486   0.00000  Uiso   1.00
C1139  C     0.72724   0.41754   0.88715   0.00000  Uiso   1.00
C1140  C     0.92972   0.66525   0.52974   0.00000  Uiso   1.00
C1141  C     0.74147   0.33565   0.97309   0.00000  Uiso   1.00
C1142  C     0.94479   0.33842   0.71248   0.00000  Uiso   1.00
C1143  C     0.87153   0.58958   0.97563   0.00000  Uiso   1.00
C1144  C     0.72066   0.66254   0.78606   0.00000  Uiso   1.00
C1145  C     0.80661   0.40898   0.52347   0.00000  Uiso   1.00
C1146  C     0.85669   0.65218   0.74845   0.00000  Uiso   1.00
C1147  C     0.80979   0.34776   0.75086   0.00000  Uiso   1.00
C1148  C     0.83383   0.49922   0.83627   0.00000  Uiso   1.00
C1149  C     0.83294   0.50054   0.66366   0.00000  Uiso   1.00
C1150  C     0.81392   0.45634   0.59357   0.00000  Uiso   1.00
H1151  H     0.88272   0.62444   0.95726   0.00000  Uiso   1.00
H1152  H     0.95875   0.57074   0.58122   0.00000  Uiso   1.00
H1153  H     0.95308   0.55746   0.64073   0.00000  Uiso   1.00
H1154  H     0.70982   0.42607   0.92212   0.00000  Uiso   1.00
H1155  H     0.70728   0.37971   0.87712   0.00000  Uiso   1.00
H1156  H     0.71360   0.44677   0.86438   0.00000  Uiso   1.00
H1157  H     0.92217   0.35489   0.50014   0.00000  Uiso   1.00
H1158  H     0.94319   0.35946   0.55646   0.00000  Uiso   1.00
H1159  H     0.96566   0.63945   0.52186   0.00000  Uiso   1.00
H1160  H     0.70779   0.36230   0.98527   0.00000  Uiso   1.00
H1161  H     0.75206   0.64401   0.50056   0.00000  Uiso   1.00
H1162  H     0.79945   0.37336   0.54133   0.00000  Uiso   1.00
H1163  H     0.72278   0.64359   0.94689   0.00000  Uiso   1.00
H1164  H     0.92164   0.35394   0.68490   0.00000  Uiso   1.00
H1165  H     0.95834   0.63245   0.70366   0.00000  Uiso   1.00
H1166  H     0.98466   0.36300   0.71562   0.00000  Uiso   1.00
H1167  H     0.68160   0.63675   0.78325   0.00000  Uiso   1.00
H1168  H     0.70570   0.36839   0.79336   0.00000  Uiso   1.00
H1169  H     0.74345   0.64915   0.81464   0.00000  Uiso   1.00
H1170  H     0.97877   0.44800   0.68504   0.00000  Uiso   1.00
H1171  H     0.68739   0.55166   0.81553   0.00000  Uiso   1.00
H1172  H     0.71324   0.44420   0.62068   0.00000  Uiso   1.00
H1173  H     0.71890   0.38469   0.64895   0.00000  Uiso   1.00
H1174  H     0.72073   0.38433   0.58917   0.00000  Uiso   1.00
H1175  H     0.80504   0.62178   0.89775   0.00000  Uiso   1.00
H1176  H     0.81831   0.60101   0.84002   0.00000  Uiso   1.00
H1177  H     0.85897   0.65519   0.86175   0.00000  Uiso   1.00
H1178  H     0.95959   0.62235   0.62165   0.00000  Uiso   1.00
N1179  N     0.98344   0.48598   0.73783   0.00000  Uiso   1.00
N1180  N     0.68322   0.51402   0.76217   0.00000  Uiso   1.00
O1181  O     0.79642   0.57952   0.75298   0.00000  Uiso   1.00
O1182  O     0.88194   0.58470   0.88161   0.00000  Uiso   1.00
O1183  O     0.87949   0.58590   0.61740   0.00000  Uiso   1.00
O1184  O     0.78772   0.41465   0.88322   0.00000  Uiso   1.00
O1185  O     0.87856   0.63793   0.54574   0.00000  Uiso   1.00
O1186  O     0.79182   0.36196   0.95408   0.00000  Uiso   1.00
O1187  O     0.91209   0.33942   0.75419   0.00000  Uiso   1.00
O1188  O     0.75442   0.66047   0.74483   0.00000  Uiso   1.00
O1189  O     0.67698   0.46252   0.70276   0.00000  Uiso   1.00
O1190  O     0.98948   0.53721   0.79747   0.00000  Uiso   1.00
O1191  O     0.87025   0.42048   0.74702   0.00000  Uiso   1.00
O1192  O     0.89280   0.57054   0.74518   0.00000  Uiso   1.00
O1193  O     0.77387   0.42946   0.75482   0.00000  Uiso   1.00
O1194  O     0.78514   0.50450   0.81997   0.00000  Uiso   1.00
O1195  O     0.88153   0.49550   0.68002   0.00000  Uiso   1.00
O1196  O     0.88152   0.49552   0.81218   0.00000  Uiso   1.00
O1197  O     0.78515   0.50448   0.68782   0.00000  Uiso   1.00
O1198  O     0.79518   0.41309   0.61795   0.00000  Uiso   1.00
Zn1199 Zn    0.76898   0.50600   0.75521   0.00000  Uiso   1.00
Zn1200 Zn    0.89769   0.49400   0.74479   0.00000  Uiso   1.00
C1201  C     0.18169   0.93130   0.74775   0.00000  Uiso   1.00
C1202  C     0.19003   0.87673   0.90580   0.00000  Uiso   1.00
C1203  C     0.16602   0.83440   0.61601   0.00000  Uiso   1.00
C1204  C     0.16829   0.83261   0.88380   0.00000  Uiso   1.00
C1205  C     0.18928   0.87800   0.59327   0.00000  Uiso   1.00
C1206  C     0.14559   0.78913   0.90686   0.00000  Uiso   1.00
C1207  C     0.18734   0.87935   0.54643   0.00000  Uiso   1.00
C1208  C     0.15077   0.78719   0.95325   0.00000  Uiso   1.00
C1209  C     0.16971   0.83354   0.52316   0.00000  Uiso   1.00
C1210  C     0.16995   0.83270   0.97630   0.00000  Uiso   1.00
C1211  C     0.15209   0.78830   0.54678   0.00000  Uiso   1.00
C1212  C     0.15159   0.73533   0.75181   0.00000  Uiso   1.00
C1213  C     0.18883   0.87754   0.95252   0.00000  Uiso   1.00
C1214  C     0.20383   0.92468   0.52252   0.00000  Uiso   1.00
C1215  C     0.13672   0.74139   0.97704   0.00000  Uiso   1.00
C1216  C     0.06787   0.74026   0.61887   0.00000  Uiso   1.00
C1217  C     0.17211   0.94998   0.87007   0.00000  Uiso   1.00
C1218  C     0.27339   0.91667   0.61486   0.00000  Uiso   1.00
C1219  C     0.06057   0.75088   0.88715   0.00000  Uiso   1.00
C1220  C     0.26305   0.99858   0.52974   0.00000  Uiso   1.00
C1221  C     0.07481   0.66898   0.97309   0.00000  Uiso   1.00
C1222  C     0.27812   0.67175   0.71248   0.00000  Uiso   1.00
C1223  C     0.20486   0.92292   0.97563   0.00000  Uiso   1.00
C1224  C     0.05399   0.99588   0.78606   0.00000  Uiso   1.00
C1225  C     0.13994   0.74231   0.52347   0.00000  Uiso   1.00
C1226  C     0.19002   0.98551   0.74845   0.00000  Uiso   1.00
C1227  C     0.14312   0.68109   0.75086   0.00000  Uiso   1.00
C1228  C     0.16717   0.83255   0.83627   0.00000  Uiso   1.00
C1229  C     0.16627   0.83387   0.66366   0.00000  Uiso   1.00
C1230  C     0.14725   0.78967   0.59357   0.00000  Uiso   1.00
H1231  H     0.21605   0.95777   0.95726   0.00000  Uiso   1.00
H1232  H     0.29208   0.90407   0.58122   0.00000  Uiso   1.00
H1233  H     0.28642   0.89079   0.64073   0.00000  Uiso   1.00
H1234  H     0.04315   0.75940   0.92212   0.00000  Uiso   1.00
H1235  H     0.04061   0.71304   0.87712   0.00000  Uiso   1.00
H1236  H     0.04693   0.78011   0.86438   0.00000  Uiso   1.00
H1237  H     0.25550   0.68822   0.50014   0.00000  Uiso   1.00
H1238  H     0.27652   0.69279   0.55646   0.00000  Uiso   1.00
H1239  H     0.29899   0.97279   0.52186   0.00000  Uiso   1.00
H1240  H     0.04113   0.69563   0.98527   0.00000  Uiso   1.00
H1241  H     0.08539   0.97734   0.50056   0.00000  Uiso   1.00
H1242  H     0.13279   0.70669   0.54133   0.00000  Uiso   1.00
H1243  H     0.05611   0.97692   0.94689   0.00000  Uiso   1.00
H1244  H     0.25497   0.68727   0.68490   0.00000  Uiso   1.00
H1245  H     0.29167   0.96578   0.70366   0.00000  Uiso   1.00
H1246  H     0.31799   0.69633   0.71562   0.00000  Uiso   1.00
H1247  H     0.01494   0.97009   0.78325   0.00000  Uiso   1.00
H1248  H     0.03903   0.70173   0.79336   0.00000  Uiso   1.00
H1249  H     0.07678   0.98249   0.81464   0.00000  Uiso   1.00
H1250  H     0.31210   0.78133   0.68504   0.00000  Uiso   1.00
H1251  H     0.02072   0.88499   0.81553   0.00000  Uiso   1.00
H1252  H     0.04658   0.77753   0.62068   0.00000  Uiso   1.00
H1253  H     0.05223   0.71802   0.64895   0.00000  Uiso   1.00
H1254  H     0.05406   0.71767   0.58917   0.00000  Uiso   1.00
H1255  H     0.13837   0.95511   0.89775   0.00000  Uiso   1.00
H1256  H     0.15165   0.93435   0.84002   0.00000  Uiso   1.00
H1257  H     0.19231   0.98852   0.86175   0.00000  Uiso   1.00
H1258  H     0.29293   0.95568   0.62165   0.00000  Uiso   1.00
N1259  N     0.31678   0.81932   0.73783   0.00000  Uiso   1.00
N1260  N     0.01656   0.84735   0.76217   0.00000  Uiso   1.00
O1261  O     0.12975   0.91286   0.75298   0.00000  Uiso   1.00
O1262  O     0.21527   0.91803   0.88161   0.00000  Uiso   1.00
O1263  O     0.21282   0.91923   0.61740   0.00000  Uiso   1.00
O1264  O     0.12106   0.74799   0.88322   0.00000  Uiso   1.00
O1265  O     0.21189   0.97126   0.54574   0.00000  Uiso   1.00
O1266  O     0.12516   0.69530   0.95408   0.00000  Uiso   1.00
O1267  O     0.24542   0.67275   0.75419   0.00000  Uiso   1.00
O1268  O     0.08775   0.99380   0.74483   0.00000  Uiso   1.00
O1269  O     0.01031   0.79585   0.70276   0.00000  Uiso   1.00
O1270  O     0.32282   0.87054   0.79747   0.00000  Uiso   1.00
O1271  O     0.20358   0.75381   0.74702   0.00000  Uiso   1.00
O1272  O     0.22613   0.90387   0.74518   0.00000  Uiso   1.00
O1273  O     0.10720   0.76279   0.75482   0.00000  Uiso   1.00
O1274  O     0.11847   0.83784   0.81997   0.00000  Uiso   1.00
O1275  O     0.21486   0.82883   0.68002   0.00000  Uiso   1.00
O1276  O     0.21485   0.82885   0.81218   0.00000  Uiso   1.00
O1277  O     0.11848   0.83781   0.68782   0.00000  Uiso   1.00
O1278  O     0.12851   0.74642   0.61795   0.00000  Uiso   1.00
Zn1279 Zn    0.10231   0.83933   0.75521   0.00000  Uiso   1.00
Zn1280 Zn    0.23102   0.82734   0.74479   0.00000  Uiso   1.00
C1281  C     0.51502   0.93130   0.74775   0.00000  Uiso   1.00
C1282  C     0.52337   0.87673   0.90580   0.00000  Uiso   1.00
C1283  C     0.49935   0.83440   0.61601   0.00000  Uiso   1.00
C1284  C     0.50163   0.83261   0.88380   0.00000  Uiso   1.00
C1285  C     0.52261   0.87800   0.59327   0.00000  Uiso   1.00
C1286  C     0.47892   0.78913   0.90686   0.00000  Uiso   1.00
C1287  C     0.52068   0.87935   0.54643   0.00000  Uiso   1.00
C1288  C     0.48411   0.78719   0.95325   0.00000  Uiso   1.00
C1289  C     0.50304   0.83354   0.52316   0.00000  Uiso   1.00
C1290  C     0.50329   0.83270   0.97630   0.00000  Uiso   1.00
C1291  C     0.48543   0.78830   0.54678   0.00000  Uiso   1.00
C1292  C     0.48492   0.73533   0.75181   0.00000  Uiso   1.00
C1293  C     0.52216   0.87754   0.95252   0.00000  Uiso   1.00
C1294  C     0.53717   0.92468   0.52252   0.00000  Uiso   1.00
C1295  C     0.47005   0.74139   0.97704   0.00000  Uiso   1.00
C1296  C     0.40121   0.74026   0.61887   0.00000  Uiso   1.00
C1297  C     0.50544   0.94998   0.87007   0.00000  Uiso   1.00
C1298  C     0.60673   0.91667   0.61486   0.00000  Uiso   1.00
C1299  C     0.39390   0.75088   0.88715   0.00000  Uiso   1.00
C1300  C     0.59639   0.99858   0.52974   0.00000  Uiso   1.00
C1301  C     0.40814   0.66898   0.97309   0.00000  Uiso   1.00
C1302  C     0.61146   0.67175   0.71248   0.00000  Uiso   1.00
C1303  C     0.53820   0.92292   0.97563   0.00000  Uiso   1.00
C1304  C     0.38732   0.99588   0.78606   0.00000  Uiso   1.00
C1305  C     0.47327   0.74231   0.52347   0.00000  Uiso   1.00
C1306  C     0.52335   0.98551   0.74845   0.00000  Uiso   1.00
C1307  C     0.47645   0.68109   0.75086   0.00000  Uiso   1.00
C1308  C     0.50050   0.83255   0.83627   0.00000  Uiso   1.00
C1309  C     0.49961   0.83387   0.66366   0.00000  Uiso   1.00
C1310  C     0.48059   0.78967   0.59357   0.00000  Uiso   1.00
H1311  H     0.54938   0.95777   0.95726   0.00000  Uiso   1.00
H1312  H     0.62542   0.90407   0.58122   0.00000  Uiso   1.00
H1313  H     0.61975   0.89079   0.64073   0.00000  Uiso   1.00
H1314  H     0.37648   0.75940   0.92212   0.00000  Uiso   1.00
H1315  H     0.37394   0.71304   0.87712   0.00000  Uiso   1.00
H1316  H     0.38027   0.78011   0.86438   0.00000  Uiso   1.00
H1317  H     0.58884   0.68822   0.50014   0.00000  Uiso   1.00
H1318  H     0.60986   0.69279   0.55646   0.00000  Uiso   1.00
H1319  H     0.63233   0.97279   0.52186   0.00000  Uiso   1.00
H1320  H     0.37446   0.69563   0.98527   0.00000  Uiso   1.00
H1321  H     0.41872   0.97734   0.50056   0.00000  Uiso   1.00
H1322  H     0.46612   0.70669   0.54133   0.00000  Uiso   1.00
H1323  H     0.38945   0.97692   0.94689   0.00000  Uiso   1.00
H1324  H     0.58831   0.68727   0.68490   0.00000  Uiso   1.00
H1325  H     0.62501   0.96578   0.70366   0.00000  Uiso   1.00
H1326  H     0.65132   0.69633   0.71562   0.00000  Uiso   1.00
H1327  H     0.34827   0.97009   0.78325   0.00000  Uiso   1.00
H1328  H     0.37236   0.70173   0.79336   0.00000  Uiso   1.00
H1329  H     0.41012   0.98249   0.81464   0.00000  Uiso   1.00
H1330  H     0.64544   0.78133   0.68504   0.00000  Uiso   1.00
H1331  H     0.35406   0.88499   0.81553   0.00000  Uiso   1.00
H1332  H     0.37991   0.77753   0.62068   0.00000  Uiso   1.00
H1333  H     0.38557   0.71802   0.64895   0.00000  Uiso   1.00
H1334  H     0.38739   0.71767   0.58917   0.00000  Uiso   1.00
H1335  H     0.47171   0.95511   0.89775   0.00000  Uiso   1.00
H1336  H     0.48498   0.93435   0.84002   0.00000  Uiso   1.00
H1337  H     0.52564   0.98852   0.86175   0.00000  Uiso   1.00
H1338  H     0.62626   0.95568   0.62165   0.00000  Uiso   1.00
N1339  N     0.65011   0.81932   0.73783   0.00000  Uiso   1.00
N1340  N     0.34989   0.84735   0.76217   0.00000  Uiso   1.00
O1341  O     0.46308   0.91286   0.75298   0.00000  Uiso   1.00
O1342  O     0.54860   0.91803   0.88161   0.00000  Uiso   1.00
O1343  O     0.54615   0.91923   0.61740   0.00000  Uiso   1.00
O1344  O     0.45439   0.74799   0.88322   0.00000  Uiso   1.00
O1345  O     0.54523   0.97126   0.54574   0.00000  Uiso   1.00
O1346  O     0.45849   0.69530   0.95408   0.00000  Uiso   1.00
O1347  O     0.57875   0.67275   0.75419   0.00000  Uiso   1.00
O1348  O     0.42108   0.99380   0.74483   0.00000  Uiso   1.00
O1349  O     0.34365   0.79585   0.70276   0.00000  Uiso   1.00
O1350  O     0.65615   0.87054   0.79747   0.00000  Uiso   1.00
O1351  O     0.53692   0.75381   0.74702   0.00000  Uiso   1.00
O1352  O     0.55946   0.90387   0.74518   0.00000  Uiso   1.00
O1353  O     0.44054   0.76279   0.75482   0.00000  Uiso   1.00
O1354  O     0.45181   0.83784   0.81997   0.00000  Uiso   1.00
O1355  O     0.54819   0.82883   0.68002   0.00000  Uiso   1.00
O1356  O     0.54819   0.82885   0.81218   0.00000  Uiso   1.00
O1357  O     0.45181   0.83781   0.68782   0.00000  Uiso   1.00
O1358  O     0.46184   0.74642   0.61795   0.00000  Uiso   1.00
Zn1359 Zn    0.43565   0.83933   0.75521   0.00000  Uiso   1.00
Zn1360 Zn    0.56435   0.82734   0.74479   0.00000  Uiso   1.00
C1361  C     0.84836   0.93130   0.74775   0.00000  Uiso   1.00
C1362  C     0.85670   0.87673   0.90580   0.00000  Uiso   1.00
C1363  C     0.83269   0.83440   0.61601   0.00000  Uiso   1.00
C1364  C     0.83496   0.83261   0.88380   0.00000  Uiso   1.00
C1365  C     0.85595   0.87800   0.59327   0.00000  Uiso   1.00
C1366  C     0.81226   0.78913   0.90686   0.00000  Uiso   1.00
C1367  C     0.85401   0.87935   0.54643   0.00000  Uiso   1.00
C1368  C     0.81744   0.78719   0.95325   0.00000  Uiso   1.00
C1369  C     0.83638   0.83354   0.52316   0.00000  Uiso   1.00
C1370  C     0.83662   0.83270   0.97630   0.00000  Uiso   1.00
C1371  C     0.81876   0.78830   0.54678   0.00000  Uiso   1.00
C1372  C     0.81825   0.73533   0.75181   0.00000  Uiso   1.00
C1373  C     0.85550   0.87754   0.95252   0.00000  Uiso   1.00
C1374  C     0.87050   0.92468   0.52252   0.00000  Uiso   1.00
C1375  C     0.80339   0.74139   0.97704   0.00000  Uiso   1.00
C1376  C     0.73454   0.74026   0.61887   0.00000  Uiso   1.00
C1377  C     0.83877   0.94998   0.87007   0.00000  Uiso   1.00
C1378  C     0.94006   0.91667   0.61486   0.00000  Uiso   1.00
C1379  C     0.72724   0.75088   0.88715   0.00000  Uiso   1.00
C1380  C     0.92972   0.99858   0.52974   0.00000  Uiso   1.00
C1381  C     0.74147   0.66898   0.97309   0.00000  Uiso   1.00
C1382  C     0.94479   0.67175   0.71248   0.00000  Uiso   1.00
C1383  C     0.87153   0.92292   0.97563   0.00000  Uiso   1.00
C1384  C     0.72066   0.99588   0.78606   0.00000  Uiso   1.00
C1385  C     0.80661   0.74231   0.52347   0.00000  Uiso   1.00
C1386  C     0.85669   0.98551   0.74845   0.00000  Uiso   1.00
C1387  C     0.80979   0.68109   0.75086   0.00000  Uiso   1.00
C1388  C     0.83383   0.83255   0.83627   0.00000  Uiso   1.00
C1389  C     0.83294   0.83387   0.66366   0.00000  Uiso   1.00
C1390  C     0.81392   0.78967   0.59357   0.00000  Uiso   1.00
H1391  H     0.88272   0.95777   0.95726   0.00000  Uiso   1.00
H1392  H     0.95875   0.90407   0.58122   0.00000  Uiso   1.00
H1393  H     0.95308   0.89079   0.64073   0.00000  Uiso   1.00
H1394  H     0.70982   0.75940   0.92212   0.00000  Uiso   1.00
H1395  H     0.70728   0.71304   0.87712   0.00000  Uiso   1.00
H1396  H     0.71360   0.78011   0.86438   0.00000  Uiso   1.00
H1397  H     0.92217   0.68822   0.50014   0.00000  Uiso   1.00
H1398  H     0.94319   0.69279   0.55646   0.00000  Uiso   1.00
H1399  H     0.96566   0.97279   0.52186   0.00000  Uiso   1.00
H1400  H     0.70779   0.69563   0.98527   0.00000  Uiso   1.00
H1401  H     0.75206   0.97734   0.50056   0.00000  Uiso   1.00
H1402  H     0.79945   0.70669   0.54133   0.00000  Uiso   1.00
H1403  H     0.72278   0.97692   0.94689   0.00000  Uiso   1.00
H1404  H     0.92164   0.68727   0.68490   0.00000  Uiso   1.00
H1405  H     0.95834   0.96578   0.70366   0.00000  Uiso   1.00
H1406  H     0.98466   0.69633   0.71562   0.00000  Uiso   1.00
H1407  H     0.68160   0.97009   0.78325   0.00000  Uiso   1.00
H1408  H     0.70570   0.70173   0.79336   0.00000  Uiso   1.00
H1409  H     0.74345   0.98249   0.81464   0.00000  Uiso   1.00
H1410  H     0.97877   0.78133   0.68504   0.00000  Uiso   1.00
H1411  H     0.68739   0.88499   0.81553   0.00000  Uiso   1.00
H1412  H     0.71324   0.77753   0.62068   0.00000  Uiso   1.00
H1413  H     0.71890   0.71802   0.64895   0.00000  Uiso   1.00
H1414  H     0.72073   0.71767   0.58917   0.00000  Uiso   1.00
H1415  H     0.80504   0.95511   0.89775   0.00000  Uiso   1.00
H1416  H     0.81831   0.93435   0.84002   0.00000  Uiso   1.00
H1417  H     0.85897   0.98852   0.86175   0.00000  Uiso   1.00
H1418  H     0.95959   0.95568   0.62165   0.00000  Uiso   1.00
N1419  N     0.98344   0.81932   0.73783   0.00000  Uiso   1.00
N1420  N     0.68322   0.84735   0.76217   0.00000  Uiso   1.00
O1421  O     0.79642   0.91286   0.75298   0.00000  Uiso   1.00
O1422  O     0.88194   0.91803   0.88161   0.00000  Uiso   1.00
O1423  O     0.87949   0.91923   0.61740   0.00000  Uiso   1.00
O1424  O     0.78772   0.74799   0.88322   0.00000  Uiso   1.00
O1425  O     0.87856   0.97126   0.54574   0.00000  Uiso   1.00
O1426  O     0.79182   0.69530   0.95408   0.00000  Uiso   1.00
O1427  O     0.91209   0.67275   0.75419   0.00000  Uiso   1.00
O1428  O     0.75442   0.99380   0.74483   0.00000  Uiso   1.00
O1429  O     0.67698   0.79585   0.70276   0.00000  Uiso   1.00
O1430  O     0.98948   0.87054   0.79747   0.00000  Uiso   1.00
O1431  O     0.87025   0.75381   0.74702   0.00000  Uiso   1.00
O1432  O     0.89280   0.90387   0.74518   0.00000  Uiso   1.00
O1433  O     0.77387   0.76279   0.75482   0.00000  Uiso   1.00
O1434  O     0.78514   0.83784   0.81997   0.00000  Uiso   1.00
O1435  O     0.88153   0.82883   0.68002   0.00000  Uiso   1.00
O1436  O     0.88152   0.82885   0.81218   0.00000  Uiso   1.00
O1437  O     0.78515   0.83781   0.68782   0.00000  Uiso   1.00
O1438  O     0.79518   0.74642   0.61795   0.00000  Uiso   1.00
Zn1439 Zn    0.76898   0.83933   0.75521   0.00000  Uiso   1.00
Zn1440 Zn    0.89769   0.82734   0.74479   0.00000  Uiso   1.00
loop_
_geom_bond_atom_site_label_1
_geom_bond_atom_site_label_2
_geom_bond_distance
_geom_bond_site_symmetry_2
_ccdc_geom_bond_type
C1     O72     1.290   .     A
C1     C26     1.413   .     S
C1     O61     1.278   .     A
C2     C13     1.393   .     A
C2     C4      1.397   .     A
C2     O62     1.388   .     S
C3     C29     1.424   .     S
C3     C30     1.393   .     A
C3     C5      1.399   .     A
C4     C28     1.421   .     S
C4     C6      1.397   .     A
C5     O63     1.387   .     S
C5     C7      1.404   .     A
C6     O64     1.387   .     S
C6     C8      1.402   .     A
C7     C14     1.414   .     A
C7     C9      1.420   .     A
C8     C15     1.413   .     A
C8     C10     1.421   .     A
C9     C11     1.413   .     A
C9     C730    1.399   1_554 S
C10    C13     1.413   .     A
C10    C729    1.399   .     S
C11    C25     1.395   .     A
C11    C30     1.393   .     A
C12    O73     1.290   .     A
C12    C27     1.414   .     S
C12    O71     1.278   .     A
C13    C23     1.399   .     A
C14    O65     1.391   .     S
C14    C743    1.398   1_554 S
C15    O66     1.389   .     S
C15    C745    1.394   .     S
C16    H53     1.108   .     S
C16    H52     1.114   .     S
C16    O78     1.413   .     S
C16    H54     1.109   .     S
C17    H55     1.110   .     S
C17    O62     1.411   .     S
C17    H56     1.105   .     S
C17    H57     1.109   .     S
C18    O63     1.416   .     S
C18    H58     1.108   .     S
C18    H32     1.115   .     S
C18    H33     1.109   .     S
C19    H36     1.109   .     S
C19    H34     1.114   .     S
C19    O64     1.414   .     S
C19    H35     1.108   .     S
C20    O65     1.412   .     S
C20    H39     1.113   .     S
C20    H277    1.110   .     S
C20    H278    1.109   .     S
C21    O66     1.414   .     S
C21    H40     1.114   .     S
C21    H1241   1.110   1_545 S
C21    H523    1.109   1_545 S
C22    H44     1.115   .     S
C22    H46     1.106   .     S
C22    O67     1.412   .     S
C22    H525    1.109   1_545 S
C23    H31     1.081   .     S
C23    C734    1.398   .     S
C24    H49     1.112   .     S
C24    H47     1.107   .     S
C24    O68     1.414   .     S
C24    H288    1.109   .     S
C25    H42     1.080   .     S
C25    C735    1.394   1_554 S
C26    C267    1.361   .     S
C26    O307    1.391   .     S
C27    C506    1.361   1_545 S
C27    O548    1.393   1_545 S
C28    O74     1.285   .     A
C28    O76     1.287   .     A
C29    O75     1.283   .     A
C29    O77     1.291   .     A
C30    O78     1.388   .     S
H37    C500    1.110   1_545 S
H38    C500    1.109   1_545 S
H41    C981    1.110   1_554 S
H43    C261    1.109   .     S
H45    C262    1.109   .     S
H48    C504    1.109   1_545 S
H50    O149    0.990   .     S
H51    O230    0.990   1_455 S
N59    Zn80    2.020   .     S
N59    N140    1.284   .     S
N59    O149    1.334   .     S
N60    Zn79    2.020   .     S
N60    N219    1.284   1_455 S
N60    O230    1.338   1_455 S
O61    Zn79    1.983   .     S
O67    C506    1.391   1_545 S
O68    C267    1.393   .     S
O69    N219    1.334   1_455 S
O69    H210    0.990   1_455 S
O70    H131    0.990   .     S
O70    N140    1.338   .     S
O71    Zn80    1.983   .     S
O72    Zn80    2.002   .     S
O73    Zn79    2.002   .     S
O74    Zn79    2.000   .     S
O75    Zn80    2.000   .     S
O76    Zn80    2.020   .     S
O77    Zn79    2.020   .     S
C81    O152    1.290   .     A
C81    C106    1.413   .     S
C81    O141    1.278   .     A
C82    C93     1.393   .     A
C82    C84     1.397   .     A
C82    O142    1.388   .     S
C83    C109    1.424   .     S
C83    C110    1.393   .     A
C83    C85     1.399   .     A
C84    C108    1.421   .     S
C84    C86     1.397   .     A
C85    O143    1.387   .     S
C85    C87     1.404   .     A
C86    O144    1.387   .     S
C86    C88     1.402   .     A
C87    C94     1.414   .     A
C87    C89     1.420   .     A
C88    C95     1.413   .     A
C88    C90     1.421   .     A
C89    C91     1.413   .     A
C89    C810    1.399   1_554 S
C90    C93     1.413   .     A
C90    C809    1.399   .     S
C91    C105    1.395   .     A
C91    C110    1.393   .     A
C92    O153    1.290   .     A
C92    C107    1.414   .     S
C92    O151    1.278   .     A
C93    C103    1.399   .     A
C94    O145    1.391   .     S
C94    C823    1.398   1_554 S
C95    O146    1.389   .     S
C95    C825    1.394   .     S
C96    H133    1.108   .     S
C96    H132    1.114   .     S
C96    O158    1.413   .     S
C96    H134    1.109   .     S
C97    H135    1.110   .     S
C97    O142    1.411   .     S
C97    H136    1.105   .     S
C97    H137    1.109   .     S
C98    O143    1.416   .     S
C98    H138    1.108   .     S
C98    H112    1.115   .     S
C98    H113    1.109   .     S
C99    H116    1.109   .     S
C99    H114    1.114   .     S
C99    O144    1.414   .     S
C99    H115    1.108   .     S
C100   O145    1.412   .     S
C100   H119    1.113   .     S
C100   H357    1.110   .     S
C100   H358    1.109   .     S
C101   O146    1.414   .     S
C101   H120    1.114   .     S
C101   H1321   1.110   1_545 S
C101   H603    1.109   1_545 S
C102   H124    1.115   .     S
C102   H126    1.106   .     S
C102   O147    1.412   .     S
C102   H605    1.109   1_545 S
C103   H111    1.081   .     S
C103   C814    1.398   .     S
C104   H129    1.112   .     S
C104   H127    1.107   .     S
C104   O148    1.414   .     S
C104   H368    1.109   .     S
C105   H122    1.080   .     S
C105   C815    1.394   1_554 S
C106   C347    1.361   .     S
C106   O387    1.391   .     S
C107   C586    1.361   1_545 S
C107   O628    1.393   1_545 S
C108   O154    1.285   .     A
C108   O156    1.287   .     A
C109   O155    1.283   .     A
C109   O157    1.291   .     A
C110   O158    1.388   .     S
H117   C580    1.110   1_545 S
H118   C580    1.109   1_545 S
H121   C1061   1.110   1_554 S
H123   C341    1.109   .     S
H125   C342    1.109   .     S
H128   C584    1.109   1_545 S
H130   O229    0.990   .     S
N139   Zn160   2.020   .     S
N139   N220    1.284   .     S
N139   O229    1.334   .     S
N140   Zn159   2.020   .     S
O141   Zn159   1.983   .     S
O147   C586    1.391   1_545 S
O148   C347    1.393   .     S
O150   H211    0.990   .     S
O150   N220    1.338   .     S
O151   Zn160   1.983   .     S
O152   Zn160   2.002   .     S
O153   Zn159   2.002   .     S
O154   Zn159   2.000   .     S
O155   Zn160   2.000   .     S
O156   Zn160   2.020   .     S
O157   Zn159   2.020   .     S
C161   O232    1.290   .     A
C161   C186    1.413   .     S
C161   O221    1.278   .     A
C162   C173    1.393   .     A
C162   C164    1.397   .     A
C162   O222    1.388   .     S
C163   C189    1.424   .     S
C163   C190    1.393   .     A
C163   C165    1.399   .     A
C164   C188    1.421   .     S
C164   C166    1.397   .     A
C165   O223    1.387   .     S
C165   C167    1.404   .     A
C166   O224    1.387   .     S
C166   C168    1.402   .     A
C167   C174    1.414   .     A
C167   C169    1.420   .     A
C168   C175    1.413   .     A
C168   C170    1.421   .     A
C169   C171    1.413   .     A
C169   C890    1.399   1_554 S
C170   C173    1.413   .     A
C170   C889    1.399   .     S
C171   C185    1.395   .     A
C171   C190    1.393   .     A
C172   O233    1.290   .     A
C172   C187    1.414   .     S
C172   O231    1.278   .     A
C173   C183    1.399   .     A
C174   O225    1.391   .     S
C174   C903    1.398   1_554 S
C175   O226    1.389   .     S
C175   C905    1.394   .     S
C176   H213    1.108   .     S
C176   H212    1.114   .     S
C176   O238    1.413   .     S
C176   H214    1.109   .     S
C177   H215    1.110   .     S
C177   O222    1.411   .     S
C177   H216    1.105   .     S
C177   H217    1.109   .     S
C178   O223    1.416   .     S
C178   H218    1.108   .     S
C178   H192    1.115   .     S
C178   H193    1.109   .     S
C179   H196    1.109   .     S
C179   H194    1.114   .     S
C179   O224    1.414   .     S
C179   H195    1.108   .     S
C180   O225    1.412   .     S
C180   H199    1.113   .     S
C180   H437    1.110   .     S
C180   H438    1.109   .     S
C181   O226    1.414   .     S
C181   H200    1.114   .     S
C181   H1401   1.110   1_545 S
C181   H683    1.109   1_545 S
C182   H204    1.115   .     S
C182   H206    1.106   .     S
C182   O227    1.412   .     S
C182   H685    1.109   1_545 S
C183   H191    1.081   .     S
C183   C894    1.398   .     S
C184   H209    1.112   .     S
C184   H207    1.107   .     S
C184   O228    1.414   .     S
C184   H448    1.109   .     S
C185   H202    1.080   .     S
C185   C895    1.394   1_554 S
C186   C427    1.361   .     S
C186   O467    1.391   .     S
C187   C666    1.361   1_545 S
C187   O708    1.393   1_545 S
C188   O234    1.285   .     A
C188   O236    1.287   .     A
C189   O235    1.283   .     A
C189   O237    1.291   .     A
C190   O238    1.388   .     S
H197   C660    1.110   1_545 S
H198   C660    1.109   1_545 S
H201   C1141   1.110   1_554 S
H203   C421    1.109   .     S
H205   C422    1.109   .     S
H208   C664    1.109   1_545 S
H210   O69     0.990   1_655 S
N219   Zn240   2.020   .     S
N219   N60     1.284   1_655 S
N219   O69     1.334   1_655 S
N220   Zn239   2.020   .     S
O221   Zn239   1.983   .     S
O227   C666    1.391   1_545 S
O228   C427    1.393   .     S
O230   H51     0.990   1_655 S
O230   N60     1.338   1_655 S
O231   Zn240   1.983   .     S
O232   Zn240   2.002   .     S
O233   Zn239   2.002   .     S
O234   Zn239   2.000   .     S
O235   Zn240   2.000   .     S
O236   Zn240   2.020   .     S
O237   Zn239   2.020   .     S
C241   O312    1.290   .     A
C241   C266    1.413   .     S
C241   O301    1.278   .     A
C242   C253    1.393   .     A
C242   C244    1.397   .     A
C242   O302    1.388   .     S
C243   C269    1.424   .     S
C243   C270    1.393   .     A
C243   C245    1.399   .     A
C244   C268    1.421   .     S
C244   C246    1.397   .     A
C245   O303    1.387   .     S
C245   C247    1.404   .     A
C246   O304    1.387   .     S
C246   C248    1.402   .     A
C247   C254    1.414   .     A
C247   C249    1.420   .     A
C248   C255    1.413   .     A
C248   C250    1.421   .     A
C249   C251    1.413   .     A
C249   C970    1.399   1_554 S
C250   C253    1.413   .     A
C250   C969    1.399   .     S
C251   C265    1.395   .     A
C251   C270    1.393   .     A
C252   O313    1.290   .     A
C252   C267    1.414   .     S
C252   O311    1.278   .     A
C253   C263    1.399   .     A
C254   O305    1.391   .     S
C254   C983    1.398   1_554 S
C255   O306    1.389   .     S
C255   C985    1.394   .     S
C256   H293    1.108   .     S
C256   H292    1.114   .     S
C256   O318    1.413   .     S
C256   H294    1.109   .     S
C257   H295    1.110   .     S
C257   O302    1.411   .     S
C257   H296    1.105   .     S
C257   H297    1.109   .     S
C258   O303    1.416   .     S
C258   H298    1.108   .     S
C258   H272    1.115   .     S
C258   H273    1.109   .     S
C259   H276    1.109   .     S
C259   H274    1.114   .     S
C259   O304    1.414   .     S
C259   H275    1.108   .     S
C260   O305    1.412   .     S
C260   H279    1.113   .     S
C260   H517    1.110   .     S
C260   H518    1.109   .     S
C261   O306    1.414   .     S
C261   H280    1.114   .     S
C261   H761    1.110   .     S
C262   H284    1.115   .     S
C262   H286    1.106   .     S
C262   O307    1.412   .     S
C263   H271    1.081   .     S
C263   C974    1.398   .     S
C264   H289    1.112   .     S
C264   H287    1.107   .     S
C264   O308    1.414   .     S
C264   H528    1.109   .     S
C265   H282    1.080   .     S
C265   C975    1.394   1_554 S
C266   C507    1.361   .     S
C266   O547    1.391   .     S
C268   O314    1.285   .     A
C268   O316    1.287   .     A
C269   O315    1.283   .     A
C269   O317    1.291   .     A
C270   O318    1.388   .     S
H281   C1221   1.110   1_554 S
H283   C501    1.109   .     S
H285   C502    1.109   .     S
H290   O389    0.990   .     S
H291   O470    0.990   1_455 S
N299   Zn320   2.020   .     S
N299   N380    1.284   .     S
N299   O389    1.334   .     S
N300   Zn319   2.020   .     S
N300   N459    1.284   1_455 S
N300   O470    1.338   1_455 S
O301   Zn319   1.983   .     S
O308   C507    1.393   .     S
O309   N459    1.334   1_455 S
O309   H450    0.990   1_455 S
O310   H371    0.990   .     S
O310   N380    1.338   .     S
O311   Zn320   1.983   .     S
O312   Zn320   2.002   .     S
O313   Zn319   2.002   .     S
O314   Zn319   2.000   .     S
O315   Zn320   2.000   .     S
O316   Zn320   2.020   .     S
O317   Zn319   2.020   .     S
C321   O392    1.290   .     A
C321   C346    1.413   .     S
C321   O381    1.278   .     A
C322   C333    1.393   .     A
C322   C324    1.397   .     A
C322   O382    1.388   .     S
C323   C349    1.424   .     S
C323   C350    1.393   .     A
C323   C325    1.399   .     A
C324   C348    1.421   .     S
C324   C326    1.397   .     A
C325   O383    1.387   .     S
C325   C327    1.404   .     A
C326   O384    1.387   .     S
C326   C328    1.402   .     A
C327   C334    1.414   .     A
C327   C329    1.420   .     A
C328   C335    1.413   .     A
C328   C330    1.421   .     A
C329   C331    1.413   .     A
C329   C1050   1.399   1_554 S
C330   C333    1.413   .     A
C330   C1049   1.399   .     S
C331   C345    1.395   .     A
C331   C350    1.393   .     A
C332   O393    1.290   .     A
C332   C347    1.414   .     S
C332   O391    1.278   .     A
C333   C343    1.399   .     A
C334   O385    1.391   .     S
C334   C1063   1.398   1_554 S
C335   O386    1.389   .     S
C335   C1065   1.394   .     S
C336   H373    1.108   .     S
C336   H372    1.114   .     S
C336   O398    1.413   .     S
C336   H374    1.109   .     S
C337   H375    1.110   .     S
C337   O382    1.411   .     S
C337   H376    1.105   .     S
C337   H377    1.109   .     S
C338   O383    1.416   .     S
C338   H378    1.108   .     S
C338   H352    1.115   .     S
C338   H353    1.109   .     S
C339   H356    1.109   .     S
C339   H354    1.114   .     S
C339   O384    1.414   .     S
C339   H355    1.108   .     S
C340   O385    1.412   .     S
C340   H359    1.113   .     S
C340   H597    1.110   .     S
C340   H598    1.109   .     S
C341   O386    1.414   .     S
C341   H360    1.114   .     S
C341   H841    1.110   .     S
C342   H364    1.115   .     S
C342   H366    1.106   .     S
C342   O387    1.412   .     S
C343   H351    1.081   .     S
C343   C1054   1.398   .     S
C344   H369    1.112   .     S
C344   H367    1.107   .     S
C344   O388    1.414   .     S
C344   H608    1.109   .     S
C345   H362    1.080   .     S
C345   C1055   1.394   1_554 S
C346   C587    1.361   .     S
C346   O627    1.391   .     S
C348   O394    1.285   .     A
C348   O396    1.287   .     A
C349   O395    1.283   .     A
C349   O397    1.291   .     A
C350   O398    1.388   .     S
H361   C1301   1.110   1_554 S
H363   C581    1.109   .     S
H365   C582    1.109   .     S
H370   O469    0.990   .     S
N379   Zn400   2.020   .     S
N379   N460    1.284   .     S
N379   O469    1.334   .     S
N380   Zn399   2.020   .     S
O381   Zn399   1.983   .     S
O388   C587    1.393   .     S
O390   H451    0.990   .     S
O390   N460    1.338   .     S
O391   Zn400   1.983   .     S
O392   Zn400   2.002   .     S
O393   Zn399   2.002   .     S
O394   Zn399   2.000   .     S
O395   Zn400   2.000   .     S
O396   Zn400   2.020   .     S
O397   Zn399   2.020   .     S
C401   O472    1.290   .     A
C401   C426    1.413   .     S
C401   O461    1.278   .     A
C402   C413    1.393   .     A
C402   C404    1.397   .     A
C402   O462    1.388   .     S
C403   C429    1.424   .     S
C403   C430    1.393   .     A
C403   C405    1.399   .     A
C404   C428    1.421   .     S
C404   C406    1.397   .     A
C405   O463    1.387   .     S
C405   C407    1.404   .     A
C406   O464    1.387   .     S
C406   C408    1.402   .     A
C407   C414    1.414   .     A
C407   C409    1.420   .     A
C408   C415    1.413   .     A
C408   C410    1.421   .     A
C409   C411    1.413   .     A
C409   C1130   1.399   1_554 S
C410   C413    1.413   .     A
C410   C1129   1.399   .     S
C411   C425    1.395   .     A
C411   C430    1.393   .     A
C412   O473    1.290   .     A
C412   C427    1.414   .     S
C412   O471    1.278   .     A
C413   C423    1.399   .     A
C414   O465    1.391   .     S
C414   C1143   1.398   1_554 S
C415   O466    1.389   .     S
C415   C1145   1.394   .     S
C416   H453    1.108   .     S
C416   H452    1.114   .     S
C416   O478    1.413   .     S
C416   H454    1.109   .     S
C417   H455    1.110   .     S
C417   O462    1.411   .     S
C417   H456    1.105   .     S
C417   H457    1.109   .     S
C418   O463    1.416   .     S
C418   H458    1.108   .     S
C418   H432    1.115   .     S
C418   H433    1.109   .     S
C419   H436    1.109   .     S
C419   H434    1.114   .     S
C419   O464    1.414   .     S
C419   H435    1.108   .     S
C420   O465    1.412   .     S
C420   H439    1.113   .     S
C420   H677    1.110   .     S
C420   H678    1.109   .     S
C421   O466    1.414   .     S
C421   H440    1.114   .     S
C421   H921    1.110   .     S
C422   H444    1.115   .     S
C422   H446    1.106   .     S
C422   O467    1.412   .     S
C423   H431    1.081   .     S
C423   C1134   1.398   .     S
C424   H449    1.112   .     S
C424   H447    1.107   .     S
C424   O468    1.414   .     S
C424   H688    1.109   .     S
C425   H442    1.080   .     S
C425   C1135   1.394   1_554 S
C426   C667    1.361   .     S
C426   O707    1.391   .     S
C428   O474    1.285   .     A
C428   O476    1.287   .     A
C429   O475    1.283   .     A
C429   O477    1.291   .     A
C430   O478    1.388   .     S
H441   C1381   1.110   1_554 S
H443   C661    1.109   .     S
H445   C662    1.109   .     S
H450   O309    0.990   1_655 S
N459   Zn480   2.020   .     S
N459   N300    1.284   1_655 S
N459   O309    1.334   1_655 S
N460   Zn479   2.020   .     S
O461   Zn479   1.983   .     S
O468   C667    1.393   .     S
O470   H291    0.990   1_655 S
O470   N300    1.338   1_655 S
O471   Zn480   1.983   .     S
O472   Zn480   2.002   .     S
O473   Zn479   2.002   .     S
O474   Zn479   2.000   .     S
O475   Zn480   2.000   .     S
O476   Zn480   2.020   .     S
O477   Zn479   2.020   .     S
C481   O552    1.290   .     A
C481   C506    1.413   .     S
C481   O541    1.278   .     A
C482   C493    1.393   .     A
C482   C484    1.397   .     A
C482   O542    1.388   .     S
C483   C509    1.424   .     S
C483   C510    1.393   .     A
C483   C485    1.399   .     A
C484   C508    1.421   .     S
C484   C486    1.397   .     A
C485   O543    1.387   .     S
C485   C487    1.404   .     A
C486   O544    1.387   .     S
C486   C488    1.402   .     A
C487   C494    1.414   .     A
C487   C489    1.420   .     A
C488   C495    1.413   .     A
C488   C490    1.421   .     A
C489   C491    1.413   .     A
C489   C1210   1.399   1_554 S
C490   C493    1.413   .     A
C490   C1209   1.399   .     S
C491   C505    1.395   .     A
C491   C510    1.393   .     A
C492   O553    1.290   .     A
C492   C507    1.414   .     S
C492   O551    1.278   .     A
C493   C503    1.399   .     A
C494   O545    1.391   .     S
C494   C1223   1.398   1_554 S
C495   O546    1.389   .     S
C495   C1225   1.394   .     S
C496   H533    1.108   .     S
C496   H532    1.114   .     S
C496   O558    1.413   .     S
C496   H534    1.109   .     S
C497   H535    1.110   .     S
C497   O542    1.411   .     S
C497   H536    1.105   .     S
C497   H537    1.109   .     S
C498   O543    1.416   .     S
C498   H538    1.108   .     S
C498   H512    1.115   .     S
C498   H513    1.109   .     S
C499   H516    1.109   .     S
C499   H514    1.114   .     S
C499   O544    1.414   .     S
C499   H515    1.108   .     S
C500   O545    1.412   .     S
C500   H519    1.113   .     S
C500   H37     1.110   1_565 S
C500   H38     1.109   1_565 S
C501   O546    1.414   .     S
C501   H520    1.114   .     S
C501   H1001   1.110   .     S
C502   H524    1.115   .     S
C502   H526    1.106   .     S
C502   O547    1.412   .     S
C503   H511    1.081   .     S
C503   C1214   1.398   .     S
C504   H529    1.112   .     S
C504   H527    1.107   .     S
C504   O548    1.414   .     S
C504   H48     1.109   1_565 S
C505   H522    1.080   .     S
C505   C1215   1.394   1_554 S
C506   C27     1.361   1_565 S
C506   O67     1.391   1_565 S
C508   O554    1.285   .     A
C508   O556    1.287   .     A
C509   O555    1.283   .     A
C509   O557    1.291   .     A
C510   O558    1.388   .     S
H521   C741    1.110   1_564 S
H523   C21     1.109   1_565 S
H525   C22     1.109   1_565 S
H530   O629    0.990   .     S
H531   O710    0.990   1_455 S
N539   Zn560   2.020   .     S
N539   N620    1.284   .     S
N539   O629    1.334   .     S
N540   Zn559   2.020   .     S
N540   N699    1.284   1_455 S
N540   O710    1.338   1_455 S
O541   Zn559   1.983   .     S
O548   C27     1.393   1_565 S
O549   N699    1.334   1_455 S
O549   H690    0.990   1_455 S
O550   H611    0.990   .     S
O550   N620    1.338   .     S
O551   Zn560   1.983   .     S
O552   Zn560   2.002   .     S
O553   Zn559   2.002   .     S
O554   Zn559   2.000   .     S
O555   Zn560   2.000   .     S
O556   Zn560   2.020   .     S
O557   Zn559   2.020   .     S
C561   O632    1.290   .     A
C561   C586    1.413   .     S
C561   O621    1.278   .     A
C562   C573    1.393   .     A
C562   C564    1.397   .     A
C562   O622    1.388   .     S
C563   C589    1.424   .     S
C563   C590    1.393   .     A
C563   C565    1.399   .     A
C564   C588    1.421   .     S
C564   C566    1.397   .     A
C565   O623    1.387   .     S
C565   C567    1.404   .     A
C566   O624    1.387   .     S
C566   C568    1.402   .     A
C567   C574    1.414   .     A
C567   C569    1.420   .     A
C568   C575    1.413   .     A
C568   C570    1.421   .     A
C569   C571    1.413   .     A
C569   C1290   1.399   1_554 S
C570   C573    1.413   .     A
C570   C1289   1.399   .     S
C571   C585    1.395   .     A
C571   C590    1.393   .     A
C572   O633    1.290   .     A
C572   C587    1.414   .     S
C572   O631    1.278   .     A
C573   C583    1.399   .     A
C574   O625    1.391   .     S
C574   C1303   1.398   1_554 S
C575   O626    1.389   .     S
C575   C1305   1.394   .     S
C576   H613    1.108   .     S
C576   H612    1.114   .     S
C576   O638    1.413   .     S
C576   H614    1.109   .     S
C577   H615    1.110   .     S
C577   O622    1.411   .     S
C577   H616    1.105   .     S
C577   H617    1.109   .     S
C578   O623    1.416   .     S
C578   H618    1.108   .     S
C578   H592    1.115   .     S
C578   H593    1.109   .     S
C579   H596    1.109   .     S
C579   H594    1.114   .     S
C579   O624    1.414   .     S
C579   H595    1.108   .     S
C580   O625    1.412   .     S
C580   H599    1.113   .     S
C580   H117    1.110   1_565 S
C580   H118    1.109   1_565 S
C581   O626    1.414   .     S
C581   H600    1.114   .     S
C581   H1081   1.110   .     S
C582   H604    1.115   .     S
C582   H606    1.106   .     S
C582   O627    1.412   .     S
C583   H591    1.081   .     S
C583   C1294   1.398   .     S
C584   H609    1.112   .     S
C584   H607    1.107   .     S
C584   O628    1.414   .     S
C584   H128    1.109   1_565 S
C585   H602    1.080   .     S
C585   C1295   1.394   1_554 S
C586   C107    1.361   1_565 S
C586   O147    1.391   1_565 S
C588   O634    1.285   .     A
C588   O636    1.287   .     A
C589   O635    1.283   .     A
C589   O637    1.291   .     A
C590   O638    1.388   .     S
H601   C821    1.110   1_564 S
H603   C101    1.109   1_565 S
H605   C102    1.109   1_565 S
H610   O709    0.990   .     S
N619   Zn640   2.020   .     S
N619   N700    1.284   .     S
N619   O709    1.334   .     S
N620   Zn639   2.020   .     S
O621   Zn639   1.983   .     S
O628   C107    1.393   1_565 S
O630   H691    0.990   .     S
O630   N700    1.338   .     S
O631   Zn640   1.983   .     S
O632   Zn640   2.002   .     S
O633   Zn639   2.002   .     S
O634   Zn639   2.000   .     S
O635   Zn640   2.000   .     S
O636   Zn640   2.020   .     S
O637   Zn639   2.020   .     S
C641   O712    1.290   .     A
C641   C666    1.413   .     S
C641   O701    1.278   .     A
C642   C653    1.393   .     A
C642   C644    1.397   .     A
C642   O702    1.388   .     S
C643   C669    1.424   .     S
C643   C670    1.393   .     A
C643   C645    1.399   .     A
C644   C668    1.421   .     S
C644   C646    1.397   .     A
C645   O703    1.387   .     S
C645   C647    1.404   .     A
C646   O704    1.387   .     S
C646   C648    1.402   .     A
C647   C654    1.414   .     A
C647   C649    1.420   .     A
C648   C655    1.413   .     A
C648   C650    1.421   .     A
C649   C651    1.413   .     A
C649   C1370   1.399   1_554 S
C650   C653    1.413   .     A
C650   C1369   1.399   .     S
C651   C665    1.395   .     A
C651   C670    1.393   .     A
C652   O713    1.290   .     A
C652   C667    1.414   .     S
C652   O711    1.278   .     A
C653   C663    1.399   .     A
C654   O705    1.391   .     S
C654   C1383   1.398   1_554 S
C655   O706    1.389   .     S
C655   C1385   1.394   .     S
C656   H693    1.108   .     S
C656   H692    1.114   .     S
C656   O718    1.413   .     S
C656   H694    1.109   .     S
C657   H695    1.110   .     S
C657   O702    1.411   .     S
C657   H696    1.105   .     S
C657   H697    1.109   .     S
C658   O703    1.416   .     S
C658   H698    1.108   .     S
C658   H672    1.115   .     S
C658   H673    1.109   .     S
C659   H676    1.109   .     S
C659   H674    1.114   .     S
C659   O704    1.414   .     S
C659   H675    1.108   .     S
C660   O705    1.412   .     S
C660   H679    1.113   .     S
C660   H197    1.110   1_565 S
C660   H198    1.109   1_565 S
C661   O706    1.414   .     S
C661   H680    1.114   .     S
C661   H1161   1.110   .     S
C662   H684    1.115   .     S
C662   H686    1.106   .     S
C662   O707    1.412   .     S
C663   H671    1.081   .     S
C663   C1374   1.398   .     S
C664   H689    1.112   .     S
C664   H687    1.107   .     S
C664   O708    1.414   .     S
C664   H208    1.109   1_565 S
C665   H682    1.080   .     S
C665   C1375   1.394   1_554 S
C666   C187    1.361   1_565 S
C666   O227    1.391   1_565 S
C668   O714    1.285   .     A
C668   O716    1.287   .     A
C669   O715    1.283   .     A
C669   O717    1.291   .     A
C670   O718    1.388   .     S
H681   C901    1.110   1_564 S
H683   C181    1.109   1_565 S
H685   C182    1.109   1_565 S
H690   O549    0.990   1_655 S
N699   Zn720   2.020   .     S
N699   N540    1.284   1_655 S
N699   O549    1.334   1_655 S
N700   Zn719   2.020   .     S
O701   Zn719   1.983   .     S
O708   C187    1.393   1_565 S
O710   H531    0.990   1_655 S
O710   N540    1.338   1_655 S
O711   Zn720   1.983   .     S
O712   Zn720   2.002   .     S
O713   Zn719   2.002   .     S
O714   Zn719   2.000   .     S
O715   Zn720   2.000   .     S
O716   Zn720   2.020   .     S
O717   Zn719   2.020   .     S
C721   O792    1.290   .     A
C721   C746    1.413   .     S
C721   O781    1.278   .     A
C722   C733    1.393   .     A
C722   C724    1.397   .     A
C722   O782    1.388   .     S
C723   C749    1.424   .     S
C723   C750    1.393   .     A
C723   C725    1.399   .     A
C724   C748    1.421   .     S
C724   C726    1.397   .     A
C725   O783    1.387   .     S
C725   C727    1.404   .     A
C726   O784    1.387   .     S
C726   C728    1.402   .     A
C727   C734    1.414   .     A
C727   C729    1.420   .     A
C728   C735    1.413   .     A
C728   C730    1.421   .     A
C729   C731    1.413   .     A
C730   C733    1.413   .     A
C730   C9      1.399   1_556 S
C731   C745    1.395   .     A
C731   C750    1.393   .     A
C732   O793    1.290   .     A
C732   C747    1.414   .     S
C732   O791    1.278   .     A
C733   C743    1.399   .     A
C734   O785    1.391   .     S
C735   O786    1.389   .     S
C735   C25     1.394   1_556 S
C736   H773    1.108   .     S
C736   H772    1.114   .     S
C736   O798    1.413   .     S
C736   H774    1.109   .     S
C737   H775    1.110   .     S
C737   O782    1.411   .     S
C737   H776    1.105   .     S
C737   H777    1.109   .     S
C738   O783    1.416   .     S
C738   H778    1.108   .     S
C738   H752    1.115   .     S
C738   H753    1.109   .     S
C739   H756    1.109   .     S
C739   H754    1.114   .     S
C739   O784    1.414   .     S
C739   H755    1.108   .     S
C740   O785    1.412   .     S
C740   H759    1.113   .     S
C740   H997    1.110   .     S
C740   H998    1.109   .     S
C741   O786    1.414   .     S
C741   H760    1.114   .     S
C741   H521    1.110   1_546 S
C741   H1243   1.109   1_545 S
C742   H764    1.115   .     S
C742   H766    1.106   .     S
C742   O787    1.412   .     S
C742   H1245   1.109   1_545 S
C743   H751    1.081   .     S
C743   C14     1.398   1_556 S
C744   H769    1.112   .     S
C744   H767    1.107   .     S
C744   O788    1.414   .     S
C744   H1008   1.109   .     S
C745   H762    1.080   .     S
C746   C987    1.361   .     S
C746   O1027   1.391   .     S
C747   C1226   1.361   1_545 S
C747   O1268   1.393   1_545 S
C748   O794    1.285   .     A
C748   O796    1.287   .     A
C749   O795    1.283   .     A
C749   O797    1.291   .     A
C750   O798    1.388   .     S
H757   C1220   1.110   1_545 S
H758   C1220   1.109   1_545 S
H763   C981    1.109   .     S
H765   C982    1.109   .     S
H768   C1224   1.109   1_545 S
H770   O869    0.990   .     S
H771   O950    0.990   1_455 S
N779   Zn800   2.020   .     S
N779   N860    1.284   .     S
N779   O869    1.334   .     S
N780   Zn799   2.020   .     S
N780   N939    1.284   1_455 S
N780   O950    1.338   1_455 S
O781   Zn799   1.983   .     S
O787   C1226   1.391   1_545 S
O788   C987    1.393   .     S
O789   N939    1.334   1_455 S
O789   H930    0.990   1_455 S
O790   H851    0.990   .     S
O790   N860    1.338   .     S
O791   Zn800   1.983   .     S
O792   Zn800   2.002   .     S
O793   Zn799   2.002   .     S
O794   Zn799   2.000   .     S
O795   Zn800   2.000   .     S
O796   Zn800   2.020   .     S
O797   Zn799   2.020   .     S
C801   O872    1.290   .     A
C801   C826    1.413   .     S
C801   O861    1.278   .     A
C802   C813    1.393   .     A
C802   C804    1.397   .     A
C802   O862    1.388   .     S
C803   C829    1.424   .     S
C803   C830    1.393   .     A
C803   C805    1.399   .     A
C804   C828    1.421   .     S
C804   C806    1.397   .     A
C805   O863    1.387   .     S
C805   C807    1.404   .     A
C806   O864    1.387   .     S
C806   C808    1.402   .     A
C807   C814    1.414   .     A
C807   C809    1.420   .     A
C808   C815    1.413   .     A
C808   C810    1.421   .     A
C809   C811    1.413   .     A
C810   C813    1.413   .     A
C810   C89     1.399   1_556 S
C811   C825    1.395   .     A
C811   C830    1.393   .     A
C812   O873    1.290   .     A
C812   C827    1.414   .     S
C812   O871    1.278   .     A
C813   C823    1.399   .     A
C814   O865    1.391   .     S
C815   O866    1.389   .     S
C815   C105    1.394   1_556 S
C816   H853    1.108   .     S
C816   H852    1.114   .     S
C816   O878    1.413   .     S
C816   H854    1.109   .     S
C817   H855    1.110   .     S
C817   O862    1.411   .     S
C817   H856    1.105   .     S
C817   H857    1.109   .     S
C818   O863    1.416   .     S
C818   H858    1.108   .     S
C818   H832    1.115   .     S
C818   H833    1.109   .     S
C819   H836    1.109   .     S
C819   H834    1.114   .     S
C819   O864    1.414   .     S
C819   H835    1.108   .     S
C820   O865    1.412   .     S
C820   H839    1.113   .     S
C820   H1077   1.110   .     S
C820   H1078   1.109   .     S
C821   O866    1.414   .     S
C821   H840    1.114   .     S
C821   H601    1.110   1_546 S
C821   H1323   1.109   1_545 S
C822   H844    1.115   .     S
C822   H846    1.106   .     S
C822   O867    1.412   .     S
C822   H1325   1.109   1_545 S
C823   H831    1.081   .     S
C823   C94     1.398   1_556 S
C824   H849    1.112   .     S
C824   H847    1.107   .     S
C824   O868    1.414   .     S
C824   H1088   1.109   .     S
C825   H842    1.080   .     S
C826   C1067   1.361   .     S
C826   O1107   1.391   .     S
C827   C1306   1.361   1_545 S
C827   O1348   1.393   1_545 S
C828   O874    1.285   .     A
C828   O876    1.287   .     A
C829   O875    1.283   .     A
C829   O877    1.291   .     A
C830   O878    1.388   .     S
H837   C1300   1.110   1_545 S
H838   C1300   1.109   1_545 S
H843   C1061   1.109   .     S
H845   C1062   1.109   .     S
H848   C1304   1.109   1_545 S
H850   O949    0.990   .     S
N859   Zn880   2.020   .     S
N859   N940    1.284   .     S
N859   O949    1.334   .     S
N860   Zn879   2.020   .     S
O861   Zn879   1.983   .     S
O867   C1306   1.391   1_545 S
O868   C1067   1.393   .     S
O870   H931    0.990   .     S
O870   N940    1.338   .     S
O871   Zn880   1.983   .     S
O872   Zn880   2.002   .     S
O873   Zn879   2.002   .     S
O874   Zn879   2.000   .     S
O875   Zn880   2.000   .     S
O876   Zn880   2.020   .     S
O877   Zn879   2.020   .     S
C881   O952    1.290   .     A
C881   C906    1.413   .     S
C881   O941    1.278   .     A
C882   C893    1.393   .     A
C882   C884    1.397   .     A
C882   O942    1.388   .     S
C883   C909    1.424   .     S
C883   C910    1.393   .     A
C883   C885    1.399   .     A
C884   C908    1.421   .     S
C884   C886    1.397   .     A
C885   O943    1.387   .     S
C885   C887    1.404   .     A
C886   O944    1.387   .     S
C886   C888    1.402   .     A
C887   C894    1.414   .     A
C887   C889    1.420   .     A
C888   C895    1.413   .     A
C888   C890    1.421   .     A
C889   C891    1.413   .     A
C890   C893    1.413   .     A
C890   C169    1.399   1_556 S
C891   C905    1.395   .     A
C891   C910    1.393   .     A
C892   O953    1.290   .     A
C892   C907    1.414   .     S
C892   O951    1.278   .     A
C893   C903    1.399   .     A
C894   O945    1.391   .     S
C895   O946    1.389   .     S
C895   C185    1.394   1_556 S
C896   H933    1.108   .     S
C896   H932    1.114   .     S
C896   O958    1.413   .     S
C896   H934    1.109   .     S
C897   H935    1.110   .     S
C897   O942    1.411   .     S
C897   H936    1.105   .     S
C897   H937    1.109   .     S
C898   O943    1.416   .     S
C898   H938    1.108   .     S
C898   H912    1.115   .     S
C898   H913    1.109   .     S
C899   H916    1.109   .     S
C899   H914    1.114   .     S
C899   O944    1.414   .     S
C899   H915    1.108   .     S
C900   O945    1.412   .     S
C900   H919    1.113   .     S
C900   H1157   1.110   .     S
C900   H1158   1.109   .     S
C901   O946    1.414   .     S
C901   H920    1.114   .     S
C901   H681    1.110   1_546 S
C901   H1403   1.109   1_545 S
C902   H924    1.115   .     S
C902   H926    1.106   .     S
C902   O947    1.412   .     S
C902   H1405   1.109   1_545 S
C903   H911    1.081   .     S
C903   C174    1.398   1_556 S
C904   H929    1.112   .     S
C904   H927    1.107   .     S
C904   O948    1.414   .     S
C904   H1168   1.109   .     S
C905   H922    1.080   .     S
C906   C1147   1.361   .     S
C906   O1187   1.391   .     S
C907   C1386   1.361   1_545 S
C907   O1428   1.393   1_545 S
C908   O954    1.285   .     A
C908   O956    1.287   .     A
C909   O955    1.283   .     A
C909   O957    1.291   .     A
C910   O958    1.388   .     S
H917   C1380   1.110   1_545 S
H918   C1380   1.109   1_545 S
H923   C1141   1.109   .     S
H925   C1142   1.109   .     S
H928   C1384   1.109   1_545 S
H930   O789    0.990   1_655 S
N939   Zn960   2.020   .     S
N939   N780    1.284   1_655 S
N939   O789    1.334   1_655 S
N940   Zn959   2.020   .     S
O941   Zn959   1.983   .     S
O947   C1386   1.391   1_545 S
O948   C1147   1.393   .     S
O950   H771    0.990   1_655 S
O950   N780    1.338   1_655 S
O951   Zn960   1.983   .     S
O952   Zn960   2.002   .     S
O953   Zn959   2.002   .     S
O954   Zn959   2.000   .     S
O955   Zn960   2.000   .     S
O956   Zn960   2.020   .     S
O957   Zn959   2.020   .     S
C961   O1032   1.290   .     A
C961   C986    1.413   .     S
C961   O1021   1.278   .     A
C962   C973    1.393   .     A
C962   C964    1.397   .     A
C962   O1022   1.388   .     S
C963   C989    1.424   .     S
C963   C990    1.393   .     A
C963   C965    1.399   .     A
C964   C988    1.421   .     S
C964   C966    1.397   .     A
C965   O1023   1.387   .     S
C965   C967    1.404   .     A
C966   O1024   1.387   .     S
C966   C968    1.402   .     A
C967   C974    1.414   .     A
C967   C969    1.420   .     A
C968   C975    1.413   .     A
C968   C970    1.421   .     A
C969   C971    1.413   .     A
C970   C973    1.413   .     A
C970   C249    1.399   1_556 S
C971   C985    1.395   .     A
C971   C990    1.393   .     A
C972   O1033   1.290   .     A
C972   C987    1.414   .     S
C972   O1031   1.278   .     A
C973   C983    1.399   .     A
C974   O1025   1.391   .     S
C975   O1026   1.389   .     S
C975   C265    1.394   1_556 S
C976   H1013   1.108   .     S
C976   H1012   1.114   .     S
C976   O1038   1.413   .     S
C976   H1014   1.109   .     S
C977   H1015   1.110   .     S
C977   O1022   1.411   .     S
C977   H1016   1.105   .     S
C977   H1017   1.109   .     S
C978   O1023   1.416   .     S
C978   H1018   1.108   .     S
C978   H992    1.115   .     S
C978   H993    1.109   .     S
C979   H996    1.109   .     S
C979   H994    1.114   .     S
C979   O1024   1.414   .     S
C979   H995    1.108   .     S
C980   O1025   1.412   .     S
C980   H999    1.113   .     S
C980   H1237   1.110   .     S
C980   H1238   1.109   .     S
C981   O1026   1.414   .     S
C981   H1000   1.114   .     S
C981   H41     1.110   1_556 S
C982   H1004   1.115   .     S
C982   H1006   1.106   .     S
C982   O1027   1.412   .     S
C983   H991    1.081   .     S
C983   C254    1.398   1_556 S
C984   H1009   1.112   .     S
C984   H1007   1.107   .     S
C984   O1028   1.414   .     S
C984   H1248   1.109   .     S
C985   H1002   1.080   .     S
C986   C1227   1.361   .     S
C986   O1267   1.391   .     S
C988   O1034   1.285   .     A
C988   O1036   1.287   .     A
C989   O1035   1.283   .     A
C989   O1037   1.291   .     A
C990   O1038   1.388   .     S
H1003  C1221   1.109   .     S
H1005  C1222   1.109   .     S
H1010  O1109   0.990   .     S
H1011  O1190   0.990   1_455 S
N1019  Zn1040  2.020   .     S
N1019  N1100   1.284   .     S
N1019  O1109   1.334   .     S
N1020  Zn1039  2.020   .     S
N1020  N1179   1.284   1_455 S
N1020  O1190   1.338   1_455 S
O1021  Zn1039  1.983   .     S
O1028  C1227   1.393   .     S
O1029  N1179   1.334   1_455 S
O1029  H1170   0.990   1_455 S
O1030  H1091   0.990   .     S
O1030  N1100   1.338   .     S
O1031  Zn1040  1.983   .     S
O1032  Zn1040  2.002   .     S
O1033  Zn1039  2.002   .     S
O1034  Zn1039  2.000   .     S
O1035  Zn1040  2.000   .     S
O1036  Zn1040  2.020   .     S
O1037  Zn1039  2.020   .     S
C1041  O1112   1.290   .     A
C1041  C1066   1.413   .     S
C1041  O1101   1.278   .     A
C1042  C1053   1.393   .     A
C1042  C1044   1.397   .     A
C1042  O1102   1.388   .     S
C1043  C1069   1.424   .     S
C1043  C1070   1.393   .     A
C1043  C1045   1.399   .     A
C1044  C1068   1.421   .     S
C1044  C1046   1.397   .     A
C1045  O1103   1.387   .     S
C1045  C1047   1.404   .     A
C1046  O1104   1.387   .     S
C1046  C1048   1.402   .     A
C1047  C1054   1.414   .     A
C1047  C1049   1.420   .     A
C1048  C1055   1.413   .     A
C1048  C1050   1.421   .     A
C1049  C1051   1.413   .     A
C1050  C1053   1.413   .     A
C1050  C329    1.399   1_556 S
C1051  C1065   1.395   .     A
C1051  C1070   1.393   .     A
C1052  O1113   1.290   .     A
C1052  C1067   1.414   .     S
C1052  O1111   1.278   .     A
C1053  C1063   1.399   .     A
C1054  O1105   1.391   .     S
C1055  O1106   1.389   .     S
C1055  C345    1.394   1_556 S
C1056  H1093   1.108   .     S
C1056  H1092   1.114   .     S
C1056  O1118   1.413   .     S
C1056  H1094   1.109   .     S
C1057  H1095   1.110   .     S
C1057  O1102   1.411   .     S
C1057  H1096   1.105   .     S
C1057  H1097   1.109   .     S
C1058  O1103   1.416   .     S
C1058  H1098   1.108   .     S
C1058  H1072   1.115   .     S
C1058  H1073   1.109   .     S
C1059  H1076   1.109   .     S
C1059  H1074   1.114   .     S
C1059  O1104   1.414   .     S
C1059  H1075   1.108   .     S
C1060  O1105   1.412   .     S
C1060  H1079   1.113   .     S
C1060  H1317   1.110   .     S
C1060  H1318   1.109   .     S
C1061  O1106   1.414   .     S
C1061  H1080   1.114   .     S
C1061  H121    1.110   1_556 S
C1062  H1084   1.115   .     S
C1062  H1086   1.106   .     S
C1062  O1107   1.412   .     S
C1063  H1071   1.081   .     S
C1063  C334    1.398   1_556 S
C1064  H1089   1.112   .     S
C1064  H1087   1.107   .     S
C1064  O1108   1.414   .     S
C1064  H1328   1.109   .     S
C1065  H1082   1.080   .     S
C1066  C1307   1.361   .     S
C1066  O1347   1.391   .     S
C1068  O1114   1.285   .     A
C1068  O1116   1.287   .     A
C1069  O1115   1.283   .     A
C1069  O1117   1.291   .     A
C1070  O1118   1.388   .     S
H1083  C1301   1.109   .     S
H1085  C1302   1.109   .     S
H1090  O1189   0.990   .     S
N1099  Zn1120  2.020   .     S
N1099  N1180   1.284   .     S
N1099  O1189   1.334   .     S
N1100  Zn1119  2.020   .     S
O1101  Zn1119  1.983   .     S
O1108  C1307   1.393   .     S
O1110  H1171   0.990   .     S
O1110  N1180   1.338   .     S
O1111  Zn1120  1.983   .     S
O1112  Zn1120  2.002   .     S
O1113  Zn1119  2.002   .     S
O1114  Zn1119  2.000   .     S
O1115  Zn1120  2.000   .     S
O1116  Zn1120  2.020   .     S
O1117  Zn1119  2.020   .     S
C1121  O1192   1.290   .     A
C1121  C1146   1.413   .     S
C1121  O1181   1.278   .     A
C1122  C1133   1.393   .     A
C1122  C1124   1.397   .     A
C1122  O1182   1.388   .     S
C1123  C1149   1.424   .     S
C1123  C1150   1.393   .     A
C1123  C1125   1.399   .     A
C1124  C1148   1.421   .     S
C1124  C1126   1.397   .     A
C1125  O1183   1.387   .     S
C1125  C1127   1.404   .     A
C1126  O1184   1.387   .     S
C1126  C1128   1.402   .     A
C1127  C1134   1.414   .     A
C1127  C1129   1.420   .     A
C1128  C1135   1.413   .     A
C1128  C1130   1.421   .     A
C1129  C1131   1.413   .     A
C1130  C1133   1.413   .     A
C1130  C409    1.399   1_556 S
C1131  C1145   1.395   .     A
C1131  C1150   1.393   .     A
C1132  O1193   1.290   .     A
C1132  C1147   1.414   .     S
C1132  O1191   1.278   .     A
C1133  C1143   1.399   .     A
C1134  O1185   1.391   .     S
C1135  O1186   1.389   .     S
C1135  C425    1.394   1_556 S
C1136  H1173   1.108   .     S
C1136  H1172   1.114   .     S
C1136  O1198   1.413   .     S
C1136  H1174   1.109   .     S
C1137  H1175   1.110   .     S
C1137  O1182   1.411   .     S
C1137  H1176   1.105   .     S
C1137  H1177   1.109   .     S
C1138  O1183   1.416   .     S
C1138  H1178   1.108   .     S
C1138  H1152   1.115   .     S
C1138  H1153   1.109   .     S
C1139  H1156   1.109   .     S
C1139  H1154   1.114   .     S
C1139  O1184   1.414   .     S
C1139  H1155   1.108   .     S
C1140  O1185   1.412   .     S
C1140  H1159   1.113   .     S
C1140  H1397   1.110   .     S
C1140  H1398   1.109   .     S
C1141  O1186   1.414   .     S
C1141  H1160   1.114   .     S
C1141  H201    1.110   1_556 S
C1142  H1164   1.115   .     S
C1142  H1166   1.106   .     S
C1142  O1187   1.412   .     S
C1143  H1151   1.081   .     S
C1143  C414    1.398   1_556 S
C1144  H1169   1.112   .     S
C1144  H1167   1.107   .     S
C1144  O1188   1.414   .     S
C1144  H1408   1.109   .     S
C1145  H1162   1.080   .     S
C1146  C1387   1.361   .     S
C1146  O1427   1.391   .     S
C1148  O1194   1.285   .     A
C1148  O1196   1.287   .     A
C1149  O1195   1.283   .     A
C1149  O1197   1.291   .     A
C1150  O1198   1.388   .     S
H1163  C1381   1.109   .     S
H1165  C1382   1.109   .     S
H1170  O1029   0.990   1_655 S
N1179  Zn1200  2.020   .     S
N1179  N1020   1.284   1_655 S
N1179  O1029   1.334   1_655 S
N1180  Zn1199  2.020   .     S
O1181  Zn1199  1.983   .     S
O1188  C1387   1.393   .     S
O1190  H1011   0.990   1_655 S
O1190  N1020   1.338   1_655 S
O1191  Zn1200  1.983   .     S
O1192  Zn1200  2.002   .     S
O1193  Zn1199  2.002   .     S
O1194  Zn1199  2.000   .     S
O1195  Zn1200  2.000   .     S
O1196  Zn1200  2.020   .     S
O1197  Zn1199  2.020   .     S
C1201  O1272   1.290   .     A
C1201  C1226   1.413   .     S
C1201  O1261   1.278   .     A
C1202  C1213   1.393   .     A
C1202  C1204   1.397   .     A
C1202  O1262   1.388   .     S
C1203  C1229   1.424   .     S
C1203  C1230   1.393   .     A
C1203  C1205   1.399   .     A
C1204  C1228   1.421   .     S
C1204  C1206   1.397   .     A
C1205  O1263   1.387   .     S
C1205  C1207   1.404   .     A
C1206  O1264   1.387   .     S
C1206  C1208   1.402   .     A
C1207  C1214   1.414   .     A
C1207  C1209   1.420   .     A
C1208  C1215   1.413   .     A
C1208  C1210   1.421   .     A
C1209  C1211   1.413   .     A
C1210  C1213   1.413   .     A
C1210  C489    1.399   1_556 S
C1211  C1225   1.395   .     A
C1211  C1230   1.393   .     A
C1212  O1273   1.290   .     A
C1212  C1227   1.414   .     S
C1212  O1271   1.278   .     A
C1213  C1223   1.399   .     A
C1214  O1265   1.391   .     S
C1215  O1266   1.389   .     S
C1215  C505    1.394   1_556 S
C1216  H1253   1.108   .     S
C1216  H1252   1.114   .     S
C1216  O1278   1.413   .     S
C1216  H1254   1.109   .     S
C1217  H1255   1.110   .     S
C1217  O1262   1.411   .     S
C1217  H1256   1.105   .     S
C1217  H1257   1.109   .     S
C1218  O1263   1.416   .     S
C1218  H1258   1.108   .     S
C1218  H1232   1.115   .     S
C1218  H1233   1.109   .     S
C1219  H1236   1.109   .     S
C1219  H1234   1.114   .     S
C1219  O1264   1.414   .     S
C1219  H1235   1.108   .     S
C1220  O1265   1.412   .     S
C1220  H1239   1.113   .     S
C1220  H757    1.110   1_565 S
C1220  H758    1.109   1_565 S
C1221  O1266   1.414   .     S
C1221  H1240   1.114   .     S
C1221  H281    1.110   1_556 S
C1222  H1244   1.115   .     S
C1222  H1246   1.106   .     S
C1222  O1267   1.412   .     S
C1223  H1231   1.081   .     S
C1223  C494    1.398   1_556 S
C1224  H1249   1.112   .     S
C1224  H1247   1.107   .     S
C1224  O1268   1.414   .     S
C1224  H768    1.109   1_565 S
C1225  H1242   1.080   .     S
C1226  C747    1.361   1_565 S
C1226  O787    1.391   1_565 S
C1228  O1274   1.285   .     A
C1228  O1276   1.287   .     A
C1229  O1275   1.283   .     A
C1229  O1277   1.291   .     A
C1230  O1278   1.388   .     S
H1241  C21     1.110   1_565 S
H1243  C741    1.109   1_565 S
H1245  C742    1.109   1_565 S
H1250  O1349   0.990   .     S
H1251  O1430   0.990   1_455 S
N1259  Zn1280  2.020   .     S
N1259  N1340   1.284   .     S
N1259  O1349   1.334   .     S
N1260  Zn1279  2.020   .     S
N1260  N1419   1.284   1_455 S
N1260  O1430   1.338   1_455 S
O1261  Zn1279  1.983   .     S
O1268  C747    1.393   1_565 S
O1269  N1419   1.334   1_455 S
O1269  H1410   0.990   1_455 S
O1270  H1331   0.990   .     S
O1270  N1340   1.338   .     S
O1271  Zn1280  1.983   .     S
O1272  Zn1280  2.002   .     S
O1273  Zn1279  2.002   .     S
O1274  Zn1279  2.000   .     S
O1275  Zn1280  2.000   .     S
O1276  Zn1280  2.020   .     S
O1277  Zn1279  2.020   .     S
C1281  O1352   1.290   .     A
C1281  C1306   1.413   .     S
C1281  O1341   1.278   .     A
C1282  C1293   1.393   .     A
C1282  C1284   1.397   .     A
C1282  O1342   1.388   .     S
C1283  C1309   1.424   .     S
C1283  C1310   1.393   .     A
C1283  C1285   1.399   .     A
C1284  C1308   1.421   .     S
C1284  C1286   1.397   .     A
C1285  O1343   1.387   .     S
C1285  C1287   1.404   .     A
C1286  O1344   1.387   .     S
C1286  C1288   1.402   .     A
C1287  C1294   1.414   .     A
C1287  C1289   1.420   .     A
C1288  C1295   1.413   .     A
C1288  C1290   1.421   .     A
C1289  C1291   1.413   .     A
C1290  C1293   1.413   .     A
C1290  C569    1.399   1_556 S
C1291  C1305   1.395   .     A
C1291  C1310   1.393   .     A
C1292  O1353   1.290   .     A
C1292  C1307   1.414   .     S
C1292  O1351   1.278   .     A
C1293  C1303   1.399   .     A
C1294  O1345   1.391   .     S
C1295  O1346   1.389   .     S
C1295  C585    1.394   1_556 S
C1296  H1333   1.108   .     S
C1296  H1332   1.114   .     S
C1296  O1358   1.413   .     S
C1296  H1334   1.109   .     S
C1297  H1335   1.110   .     S
C1297  O1342   1.411   .     S
C1297  H1336   1.105   .     S
C1297  H1337   1.109   .     S
C1298  O1343   1.416   .     S
C1298  H1338   1.108   .     S
C1298  H1312   1.115   .     S
C1298  H1313   1.109   .     S
C1299  H1316   1.109   .     S
C1299  H1314   1.114   .     S
C1299  O1344   1.414   .     S
C1299  H1315   1.108   .     S
C1300  O1345   1.412   .     S
C1300  H1319   1.113   .     S
C1300  H837    1.110   1_565 S
C1300  H838    1.109   1_565 S
C1301  O1346   1.414   .     S
C1301  H1320   1.114   .     S
C1301  H361    1.110   1_556 S
C1302  H1324   1.115   .     S
C1302  H1326   1.106   .     S
C1302  O1347   1.412   .     S
C1303  H1311   1.081   .     S
C1303  C574    1.398   1_556 S
C1304  H1329   1.112   .     S
C1304  H1327   1.107   .     S
C1304  O1348   1.414   .     S
C1304  H848    1.109   1_565 S
C1305  H1322   1.080   .     S
C1306  C827    1.361   1_565 S
C1306  O867    1.391   1_565 S
C1308  O1354   1.285   .     A
C1308  O1356   1.287   .     A
C1309  O1355   1.283   .     A
C1309  O1357   1.291   .     A
C1310  O1358   1.388   .     S
H1321  C101    1.110   1_565 S
H1323  C821    1.109   1_565 S
H1325  C822    1.109   1_565 S
H1330  O1429   0.990   .     S
N1339  Zn1360  2.020   .     S
N1339  N1420   1.284   .     S
N1339  O1429   1.334   .     S
N1340  Zn1359  2.020   .     S
O1341  Zn1359  1.983   .     S
O1348  C827    1.393   1_565 S
O1350  H1411   0.990   .     S
O1350  N1420   1.338   .     S
O1351  Zn1360  1.983   .     S
O1352  Zn1360  2.002   .     S
O1353  Zn1359  2.002   .     S
O1354  Zn1359  2.000   .     S
O1355  Zn1360  2.000   .     S
O1356  Zn1360  2.020   .     S
O1357  Zn1359  2.020   .     S
C1361  O1432   1.290   .     A
C1361  C1386   1.413   .     S
C1361  O1421   1.278   .     A
C1362  C1373   1.393   .     A
C1362  C1364   1.397   .     A
C1362  O1422   1.388   .     S
C1363  C1389   1.424   .     S
C1363  C1390   1.393   .     A
C1363  C1365   1.399   .     A
C1364  C1388   1.421   .     S
C1364  C1366   1.397   .     A
C1365  O1423   1.387   .     S
C1365  C1367   1.404   .     A
C1366  O1424   1.387   .     S
C1366  C1368   1.402   .     A
C1367  C1374   1.414   .     A
C1367  C1369   1.420   .     A
C1368  C1375   1.413   .     A
C1368  C1370   1.421   .     A
C1369  C1371   1.413   .     A
C1370  C1373   1.413   .     A
C1370  C649    1.399   1_556 S
C1371  C1385   1.395   .     A
C1371  C1390   1.393   .     A
C1372  O1433   1.290   .     A
C1372  C1387   1.414   .     S
C1372  O1431   1.278   .     A
C1373  C1383   1.399   .     A
C1374  O1425   1.391   .     S
C1375  O1426   1.389   .     S
C1375  C665    1.394   1_556 S
C1376  H1413   1.108   .     S
C1376  H1412   1.114   .     S
C1376  O1438   1.413   .     S
C1376  H1414   1.109   .     S
C1377  H1415   1.110   .     S
C1377  O1422   1.411   .     S
C1377  H1416   1.105   .     S
C1377  H1417   1.109   .     S
C1378  O1423   1.416   .     S
C1378  H1418   1.108   .     S
C1378  H1392   1.115   .     S
C1378  H1393   1.109   .     S
C1379  H1396   1.109   .     S
C1379  H1394   1.114   .     S
C1379  O1424   1.414   .     S
C1379  H1395   1.108   .     S
C1380  O1425   1.412   .     S
C1380  H1399   1.113   .     S
C1380  H917    1.110   1_565 S
C1380  H918    1.109   1_565 S
C1381  O1426   1.414   .     S
C1381  H1400   1.114   .     S
C1381  H441    1.110   1_556 S
C1382  H1404   1.115   .     S
C1382  H1406   1.106   .     S
C1382  O1427   1.412   .     S
C1383  H1391   1.081   .     S
C1383  C654    1.398   1_556 S
C1384  H1409   1.112   .     S
C1384  H1407   1.107   .     S
C1384  O1428   1.414   .     S
C1384  H928    1.109   1_565 S
C1385  H1402   1.080   .     S
C1386  C907    1.361   1_565 S
C1386  O947    1.391   1_565 S
C1388  O1434   1.285   .     A
C1388  O1436   1.287   .     A
C1389  O1435   1.283   .     A
C1389  O1437   1.291   .     A
C1390  O1438   1.388   .     S
H1401  C181    1.110   1_565 S
H1403  C901    1.109   1_565 S
H1405  C902    1.109   1_565 S
H1410  O1269   0.990   1_655 S
N1419  Zn1440  2.020   .     S
N1419  N1260   1.284   1_655 S
N1419  O1269   1.334   1_655 S
N1420  Zn1439  2.020   .     S
O1421  Zn1439  1.983   .     S
O1428  C907    1.393   1_565 S
O1430  H1251   0.990   1_655 S
O1430  N1260   1.338   1_655 S
O1431  Zn1440  1.983   .     S
O1432  Zn1440  2.002   .     S
O1433  Zn1439  2.002   .     S
O1434  Zn1439  2.000   .     S
O1435  Zn1440  2.000   .     S
O1436  Zn1440  2.020   .     S
O1437  Zn1439  2.020   .     S
