data_str_m1_o10_o18_pcu_sym.74
_audit_creation_date              2020-01-03
_audit_creation_method            'Materials Studio'
_symmetry_space_group_name_H-M    'P1'
_symmetry_Int_Tables_number       1
_symmetry_cell_setting            triclinic
loop_
_symmetry_equiv_pos_as_xyz
  x,y,z
_cell_length_a                    32.5047
_cell_length_b                    32.4989
_cell_length_c                    35.9168
_cell_angle_alpha                 98.3615
_cell_angle_beta                  73.4273
_cell_angle_gamma                 98.5700
loop_
_atom_site_label
_atom_site_type_symbol
_atom_site_fract_x
_atom_site_fract_y
_atom_site_fract_z
_atom_site_U_iso_or_equiv
_atom_site_adp_type
_atom_site_occupancy
Zn1    Zn    0.19244   0.14090   0.28277   0.00000  Uiso   1.00
Zn2    Zn    0.13459   0.12378   0.22257   0.00000  Uiso   1.00
Zn3    Zn    0.21166   0.19664   0.21188   0.00000  Uiso   1.00
Zn4    Zn    0.12798   0.20535   0.28277   0.00000  Uiso   1.00
O5     O     0.16667   0.16667   0.25000   0.00000  Uiso   1.00
O6     O     0.06990   0.18960   0.27820   0.00000  Uiso   1.00
O7     O     0.25440   0.15277   0.26768   0.00000  Uiso   1.00
O8     O     0.13800   0.06903   0.23607   0.00000  Uiso   1.00
O9     O     0.20437   0.25527   0.21806   0.00000  Uiso   1.00
O10    O     0.15693   0.12393   0.16625   0.00000  Uiso   1.00
O11    O     0.12687   0.20646   0.33749   0.00000  Uiso   1.00
O12    O     0.21088   0.17493   0.15877   0.00000  Uiso   1.00
O13    O     0.17198   0.16135   0.33749   0.00000  Uiso   1.00
O14    O     0.17849   0.08101   0.27820   0.00000  Uiso   1.00
O15    O     0.14581   0.26136   0.26767   0.00000  Uiso   1.00
O16    O     0.07452   0.13251   0.23607   0.00000  Uiso   1.00
O17    O     0.26785   0.19179   0.21806   0.00000  Uiso   1.00
C18    C     0.05247   0.15981   0.25877   0.00000  Uiso   1.00
C19    C     0.28096   0.17350   0.24126   0.00000  Uiso   1.00
C20    C     0.15581   0.05611   0.25892   0.00000  Uiso   1.00
C21    C     0.17677   0.27760   0.24141   0.00000  Uiso   1.00
C22    C     0.18804   0.14491   0.14423   0.00000  Uiso   1.00
C23    C     0.14514   0.18724   0.35622   0.00000  Uiso   1.00
C24    C     0.13635   0.19560   0.39923   0.00000  Uiso   1.00
C25    C     0.19499   0.13440   0.10241   0.00000  Uiso   1.00
C26    C     0.11619   0.24467   0.45713   0.00000  Uiso   1.00
C27    C     0.11871   0.23242   0.41794   0.00000  Uiso   1.00
C28    C     0.14810   0.16870   0.42135   0.00000  Uiso   1.00
C29    C     0.14236   0.17955   0.46229   0.00000  Uiso   1.00
C30    C     0.12951   0.21948   0.47892   0.00000  Uiso   1.00
C31    C     0.15149   0.15327   0.48684   0.00000  Uiso   1.00
C32    C     0.15820   0.17067   0.02368   0.00000  Uiso   1.00
C33    C     0.14730   0.21156   0.03822   0.00000  Uiso   1.00
C34    C     0.13134   0.23461   0.01686   0.00000  Uiso   1.00
C35    C     0.15187   0.10974   0.47672   0.00000  Uiso   1.00
C36    C     0.16754   0.08564   0.49714   0.00000  Uiso   1.00
C37    C     0.18001   0.10344   0.03037   0.00000  Uiso   1.00
C38    C     0.17409   0.14585   0.04506   0.00000  Uiso   1.00
C39    C     0.19553   0.07817   0.05055   0.00000  Uiso   1.00
C40    C     0.20242   0.09344   0.08663   0.00000  Uiso   1.00
C41    C     0.18283   0.16100   0.08125   0.00000  Uiso   1.00
H42    H     0.12212   0.26537   0.02954   0.00000  Uiso   1.00
H43    H     0.17761   0.19219   0.09511   0.00000  Uiso   1.00
H44    H     0.21100   0.07251   0.10340   0.00000  Uiso   1.00
H45    H     0.16878   0.05255   0.48741   0.00000  Uiso   1.00
H46    H     0.10502   0.27464   0.47015   0.00000  Uiso   1.00
H47    H     0.10934   0.25326   0.40163   0.00000  Uiso   1.00
H48    H     0.14930   0.22625   0.06660   0.00000  Uiso   1.00
H49    H     0.13854   0.09323   0.45382   0.00000  Uiso   1.00
H50    H     0.19997   0.04582   0.03945   0.00000  Uiso   1.00
C51    C     0.32692   0.17604   0.23776   0.00000  Uiso   1.00
H52    H     0.01656   0.19319   0.21528   0.00000  Uiso   1.00
C53    C     0.00710   0.15734   0.26210   0.00000  Uiso   1.00
H54    H     0.31817   0.14017   0.28490   0.00000  Uiso   1.00
C55    C     0.18066   0.32209   0.23825   0.00000  Uiso   1.00
H56    H     0.20765   0.00269   0.21638   0.00000  Uiso   1.00
C57    C     0.15138   0.01206   0.26204   0.00000  Uiso   1.00
H58    H     0.12401   0.33226   0.28400   0.00000  Uiso   1.00
N59    N     0.17077   0.13370   0.40136   0.00000  Uiso   1.00
O60    O     0.21124   0.13383   0.39996   0.00000  Uiso   1.00
O61    O     0.15110   0.10180   0.38437   0.00000  Uiso   1.00
Zn62   Zn    0.52577   0.14090   0.28277   0.00000  Uiso   1.00
Zn63   Zn    0.46792   0.12378   0.22257   0.00000  Uiso   1.00
Zn64   Zn    0.54500   0.19664   0.21188   0.00000  Uiso   1.00
Zn65   Zn    0.46131   0.20535   0.28277   0.00000  Uiso   1.00
O66    O     0.50000   0.16667   0.25000   0.00000  Uiso   1.00
O67    O     0.40323   0.18960   0.27820   0.00000  Uiso   1.00
O68    O     0.58773   0.15277   0.26768   0.00000  Uiso   1.00
O69    O     0.47133   0.06903   0.23607   0.00000  Uiso   1.00
O70    O     0.53771   0.25527   0.21806   0.00000  Uiso   1.00
O71    O     0.49027   0.12393   0.16625   0.00000  Uiso   1.00
O72    O     0.46020   0.20646   0.33749   0.00000  Uiso   1.00
O73    O     0.54421   0.17493   0.15877   0.00000  Uiso   1.00
O74    O     0.50532   0.16135   0.33749   0.00000  Uiso   1.00
O75    O     0.51182   0.08101   0.27820   0.00000  Uiso   1.00
O76    O     0.47914   0.26136   0.26767   0.00000  Uiso   1.00
O77    O     0.40785   0.13251   0.23607   0.00000  Uiso   1.00
O78    O     0.60119   0.19179   0.21806   0.00000  Uiso   1.00
C79    C     0.38581   0.15981   0.25877   0.00000  Uiso   1.00
C80    C     0.61430   0.17350   0.24126   0.00000  Uiso   1.00
C81    C     0.48914   0.05611   0.25892   0.00000  Uiso   1.00
C82    C     0.51010   0.27760   0.24141   0.00000  Uiso   1.00
C83    C     0.52137   0.14491   0.14423   0.00000  Uiso   1.00
C84    C     0.47847   0.18724   0.35622   0.00000  Uiso   1.00
C85    C     0.46968   0.19560   0.39923   0.00000  Uiso   1.00
C86    C     0.52832   0.13440   0.10241   0.00000  Uiso   1.00
C87    C     0.44953   0.24467   0.45713   0.00000  Uiso   1.00
C88    C     0.45205   0.23242   0.41794   0.00000  Uiso   1.00
C89    C     0.48143   0.16870   0.42135   0.00000  Uiso   1.00
C90    C     0.47569   0.17955   0.46229   0.00000  Uiso   1.00
C91    C     0.46284   0.21948   0.47892   0.00000  Uiso   1.00
C92    C     0.48482   0.15327   0.48684   0.00000  Uiso   1.00
C93    C     0.49153   0.17067   0.02368   0.00000  Uiso   1.00
C94    C     0.48064   0.21156   0.03822   0.00000  Uiso   1.00
C95    C     0.46468   0.23461   0.01686   0.00000  Uiso   1.00
C96    C     0.48520   0.10974   0.47672   0.00000  Uiso   1.00
C97    C     0.50087   0.08564   0.49714   0.00000  Uiso   1.00
C98    C     0.51334   0.10344   0.03037   0.00000  Uiso   1.00
C99    C     0.50742   0.14585   0.04506   0.00000  Uiso   1.00
C100   C     0.52886   0.07817   0.05055   0.00000  Uiso   1.00
C101   C     0.53575   0.09344   0.08663   0.00000  Uiso   1.00
C102   C     0.51616   0.16100   0.08125   0.00000  Uiso   1.00
H103   H     0.45546   0.26537   0.02954   0.00000  Uiso   1.00
H104   H     0.51095   0.19219   0.09511   0.00000  Uiso   1.00
H105   H     0.54433   0.07251   0.10340   0.00000  Uiso   1.00
H106   H     0.50211   0.05255   0.48741   0.00000  Uiso   1.00
H107   H     0.43835   0.27464   0.47015   0.00000  Uiso   1.00
H108   H     0.44268   0.25326   0.40163   0.00000  Uiso   1.00
H109   H     0.48263   0.22625   0.06660   0.00000  Uiso   1.00
H110   H     0.47187   0.09323   0.45382   0.00000  Uiso   1.00
H111   H     0.53330   0.04582   0.03945   0.00000  Uiso   1.00
C112   C     0.66026   0.17604   0.23776   0.00000  Uiso   1.00
H113   H     0.34989   0.19319   0.21528   0.00000  Uiso   1.00
C114   C     0.34043   0.15734   0.26210   0.00000  Uiso   1.00
H115   H     0.65150   0.14017   0.28490   0.00000  Uiso   1.00
C116   C     0.51399   0.32209   0.23825   0.00000  Uiso   1.00
H117   H     0.54099   0.00269   0.21638   0.00000  Uiso   1.00
C118   C     0.48471   0.01206   0.26204   0.00000  Uiso   1.00
H119   H     0.45734   0.33226   0.28400   0.00000  Uiso   1.00
N120   N     0.50410   0.13370   0.40136   0.00000  Uiso   1.00
O121   O     0.54457   0.13383   0.39996   0.00000  Uiso   1.00
O122   O     0.48443   0.10180   0.38437   0.00000  Uiso   1.00
Zn123  Zn    0.85910   0.14090   0.28277   0.00000  Uiso   1.00
Zn124  Zn    0.80125   0.12378   0.22257   0.00000  Uiso   1.00
Zn125  Zn    0.87833   0.19664   0.21188   0.00000  Uiso   1.00
Zn126  Zn    0.79465   0.20535   0.28277   0.00000  Uiso   1.00
O127   O     0.83333   0.16667   0.25000   0.00000  Uiso   1.00
O128   O     0.73656   0.18960   0.27820   0.00000  Uiso   1.00
O129   O     0.92106   0.15277   0.26768   0.00000  Uiso   1.00
O130   O     0.80467   0.06903   0.23607   0.00000  Uiso   1.00
O131   O     0.87104   0.25527   0.21806   0.00000  Uiso   1.00
O132   O     0.82360   0.12393   0.16625   0.00000  Uiso   1.00
O133   O     0.79354   0.20646   0.33749   0.00000  Uiso   1.00
O134   O     0.87755   0.17493   0.15877   0.00000  Uiso   1.00
O135   O     0.83865   0.16135   0.33749   0.00000  Uiso   1.00
O136   O     0.84515   0.08101   0.27820   0.00000  Uiso   1.00
O137   O     0.81247   0.26136   0.26767   0.00000  Uiso   1.00
O138   O     0.74119   0.13251   0.23607   0.00000  Uiso   1.00
O139   O     0.93452   0.19179   0.21806   0.00000  Uiso   1.00
C140   C     0.71914   0.15981   0.25877   0.00000  Uiso   1.00
C141   C     0.94763   0.17350   0.24126   0.00000  Uiso   1.00
C142   C     0.82247   0.05611   0.25892   0.00000  Uiso   1.00
C143   C     0.84344   0.27760   0.24141   0.00000  Uiso   1.00
C144   C     0.85470   0.14491   0.14423   0.00000  Uiso   1.00
C145   C     0.81180   0.18724   0.35622   0.00000  Uiso   1.00
C146   C     0.80301   0.19560   0.39923   0.00000  Uiso   1.00
C147   C     0.86166   0.13440   0.10241   0.00000  Uiso   1.00
C148   C     0.78286   0.24467   0.45713   0.00000  Uiso   1.00
C149   C     0.78538   0.23242   0.41794   0.00000  Uiso   1.00
C150   C     0.81476   0.16870   0.42135   0.00000  Uiso   1.00
C151   C     0.80903   0.17955   0.46229   0.00000  Uiso   1.00
C152   C     0.79618   0.21948   0.47892   0.00000  Uiso   1.00
C153   C     0.81816   0.15327   0.48684   0.00000  Uiso   1.00
C154   C     0.82486   0.17067   0.02368   0.00000  Uiso   1.00
C155   C     0.81397   0.21156   0.03822   0.00000  Uiso   1.00
C156   C     0.79801   0.23461   0.01686   0.00000  Uiso   1.00
C157   C     0.81854   0.10974   0.47672   0.00000  Uiso   1.00
C158   C     0.83420   0.08564   0.49714   0.00000  Uiso   1.00
C159   C     0.84667   0.10344   0.03037   0.00000  Uiso   1.00
C160   C     0.84076   0.14585   0.04506   0.00000  Uiso   1.00
C161   C     0.86219   0.07817   0.05055   0.00000  Uiso   1.00
C162   C     0.86909   0.09344   0.08663   0.00000  Uiso   1.00
C163   C     0.84949   0.16100   0.08125   0.00000  Uiso   1.00
H164   H     0.78879   0.26537   0.02954   0.00000  Uiso   1.00
H165   H     0.84428   0.19219   0.09511   0.00000  Uiso   1.00
H166   H     0.87766   0.07251   0.10340   0.00000  Uiso   1.00
H167   H     0.83544   0.05255   0.48741   0.00000  Uiso   1.00
H168   H     0.77169   0.27464   0.47015   0.00000  Uiso   1.00
H169   H     0.77601   0.25326   0.40163   0.00000  Uiso   1.00
H170   H     0.81596   0.22625   0.06660   0.00000  Uiso   1.00
H171   H     0.80521   0.09323   0.45382   0.00000  Uiso   1.00
H172   H     0.86664   0.04582   0.03945   0.00000  Uiso   1.00
C173   C     0.99359   0.17604   0.23776   0.00000  Uiso   1.00
H174   H     0.68322   0.19319   0.21528   0.00000  Uiso   1.00
C175   C     0.67377   0.15734   0.26210   0.00000  Uiso   1.00
H176   H     0.98483   0.14017   0.28490   0.00000  Uiso   1.00
C177   C     0.84733   0.32209   0.23825   0.00000  Uiso   1.00
H178   H     0.87432   0.00269   0.21638   0.00000  Uiso   1.00
C179   C     0.81805   0.01206   0.26204   0.00000  Uiso   1.00
H180   H     0.79068   0.33226   0.28400   0.00000  Uiso   1.00
N181   N     0.83743   0.13370   0.40136   0.00000  Uiso   1.00
O182   O     0.87790   0.13383   0.39996   0.00000  Uiso   1.00
O183   O     0.81776   0.10180   0.38437   0.00000  Uiso   1.00
Zn184  Zn    0.19244   0.47423   0.28277   0.00000  Uiso   1.00
Zn185  Zn    0.13459   0.45711   0.22257   0.00000  Uiso   1.00
Zn186  Zn    0.21166   0.52997   0.21188   0.00000  Uiso   1.00
Zn187  Zn    0.12798   0.53868   0.28277   0.00000  Uiso   1.00
O188   O     0.16667   0.50000   0.25000   0.00000  Uiso   1.00
O189   O     0.06990   0.52293   0.27820   0.00000  Uiso   1.00
O190   O     0.25440   0.48610   0.26768   0.00000  Uiso   1.00
O191   O     0.13800   0.40236   0.23607   0.00000  Uiso   1.00
O192   O     0.20437   0.58860   0.21806   0.00000  Uiso   1.00
O193   O     0.15693   0.45726   0.16625   0.00000  Uiso   1.00
O194   O     0.12687   0.53979   0.33749   0.00000  Uiso   1.00
O195   O     0.21088   0.50826   0.15877   0.00000  Uiso   1.00
O196   O     0.17198   0.49468   0.33749   0.00000  Uiso   1.00
O197   O     0.17849   0.41434   0.27820   0.00000  Uiso   1.00
O198   O     0.14581   0.59469   0.26767   0.00000  Uiso   1.00
O199   O     0.07452   0.46584   0.23607   0.00000  Uiso   1.00
O200   O     0.26785   0.52512   0.21806   0.00000  Uiso   1.00
C201   C     0.05247   0.49314   0.25877   0.00000  Uiso   1.00
C202   C     0.28096   0.50684   0.24126   0.00000  Uiso   1.00
C203   C     0.15581   0.38944   0.25892   0.00000  Uiso   1.00
C204   C     0.17677   0.61094   0.24141   0.00000  Uiso   1.00
C205   C     0.18804   0.47824   0.14423   0.00000  Uiso   1.00
C206   C     0.14514   0.52057   0.35622   0.00000  Uiso   1.00
C207   C     0.13635   0.52894   0.39923   0.00000  Uiso   1.00
C208   C     0.19499   0.46773   0.10241   0.00000  Uiso   1.00
C209   C     0.11619   0.57800   0.45713   0.00000  Uiso   1.00
C210   C     0.11871   0.56575   0.41794   0.00000  Uiso   1.00
C211   C     0.14810   0.50203   0.42135   0.00000  Uiso   1.00
C212   C     0.14236   0.51288   0.46229   0.00000  Uiso   1.00
C213   C     0.12951   0.55282   0.47892   0.00000  Uiso   1.00
C214   C     0.15149   0.48660   0.48684   0.00000  Uiso   1.00
C215   C     0.15820   0.50401   0.02368   0.00000  Uiso   1.00
C216   C     0.14730   0.54489   0.03822   0.00000  Uiso   1.00
C217   C     0.13134   0.56794   0.01686   0.00000  Uiso   1.00
C218   C     0.15187   0.44308   0.47672   0.00000  Uiso   1.00
C219   C     0.16754   0.41897   0.49714   0.00000  Uiso   1.00
C220   C     0.18001   0.43677   0.03037   0.00000  Uiso   1.00
C221   C     0.17409   0.47918   0.04506   0.00000  Uiso   1.00
C222   C     0.19553   0.41150   0.05055   0.00000  Uiso   1.00
C223   C     0.20242   0.42678   0.08663   0.00000  Uiso   1.00
C224   C     0.18283   0.49433   0.08125   0.00000  Uiso   1.00
H225   H     0.12212   0.59871   0.02954   0.00000  Uiso   1.00
H226   H     0.17761   0.52553   0.09511   0.00000  Uiso   1.00
H227   H     0.21100   0.40584   0.10340   0.00000  Uiso   1.00
H228   H     0.16878   0.38588   0.48741   0.00000  Uiso   1.00
H229   H     0.10502   0.60797   0.47015   0.00000  Uiso   1.00
H230   H     0.10934   0.58660   0.40163   0.00000  Uiso   1.00
H231   H     0.14930   0.55958   0.06660   0.00000  Uiso   1.00
H232   H     0.13854   0.42656   0.45382   0.00000  Uiso   1.00
H233   H     0.19997   0.37916   0.03945   0.00000  Uiso   1.00
C234   C     0.32692   0.50937   0.23776   0.00000  Uiso   1.00
H235   H     0.01656   0.52653   0.21528   0.00000  Uiso   1.00
C236   C     0.00710   0.49067   0.26210   0.00000  Uiso   1.00
H237   H     0.31817   0.47350   0.28490   0.00000  Uiso   1.00
C238   C     0.18066   0.65543   0.23825   0.00000  Uiso   1.00
H239   H     0.20765   0.33603   0.21638   0.00000  Uiso   1.00
C240   C     0.15138   0.34539   0.26204   0.00000  Uiso   1.00
H241   H     0.12401   0.66560   0.28400   0.00000  Uiso   1.00
N242   N     0.17077   0.46704   0.40136   0.00000  Uiso   1.00
O243   O     0.21124   0.46716   0.39996   0.00000  Uiso   1.00
O244   O     0.15110   0.43513   0.38437   0.00000  Uiso   1.00
Zn245  Zn    0.52577   0.47423   0.28277   0.00000  Uiso   1.00
Zn246  Zn    0.46792   0.45711   0.22257   0.00000  Uiso   1.00
Zn247  Zn    0.54500   0.52997   0.21188   0.00000  Uiso   1.00
Zn248  Zn    0.46131   0.53868   0.28277   0.00000  Uiso   1.00
O249   O     0.50000   0.50000   0.25000   0.00000  Uiso   1.00
O250   O     0.40323   0.52293   0.27820   0.00000  Uiso   1.00
O251   O     0.58773   0.48610   0.26768   0.00000  Uiso   1.00
O252   O     0.47133   0.40236   0.23607   0.00000  Uiso   1.00
O253   O     0.53771   0.58860   0.21806   0.00000  Uiso   1.00
O254   O     0.49027   0.45726   0.16625   0.00000  Uiso   1.00
O255   O     0.46020   0.53979   0.33749   0.00000  Uiso   1.00
O256   O     0.54421   0.50826   0.15877   0.00000  Uiso   1.00
O257   O     0.50532   0.49468   0.33749   0.00000  Uiso   1.00
O258   O     0.51182   0.41434   0.27820   0.00000  Uiso   1.00
O259   O     0.47914   0.59469   0.26767   0.00000  Uiso   1.00
O260   O     0.40785   0.46584   0.23607   0.00000  Uiso   1.00
O261   O     0.60119   0.52512   0.21806   0.00000  Uiso   1.00
C262   C     0.38581   0.49314   0.25877   0.00000  Uiso   1.00
C263   C     0.61430   0.50684   0.24126   0.00000  Uiso   1.00
C264   C     0.48914   0.38944   0.25892   0.00000  Uiso   1.00
C265   C     0.51010   0.61094   0.24141   0.00000  Uiso   1.00
C266   C     0.52137   0.47824   0.14423   0.00000  Uiso   1.00
C267   C     0.47847   0.52057   0.35622   0.00000  Uiso   1.00
C268   C     0.46968   0.52894   0.39923   0.00000  Uiso   1.00
C269   C     0.52832   0.46773   0.10241   0.00000  Uiso   1.00
C270   C     0.44953   0.57800   0.45713   0.00000  Uiso   1.00
C271   C     0.45205   0.56575   0.41794   0.00000  Uiso   1.00
C272   C     0.48143   0.50203   0.42135   0.00000  Uiso   1.00
C273   C     0.47569   0.51288   0.46229   0.00000  Uiso   1.00
C274   C     0.46284   0.55282   0.47892   0.00000  Uiso   1.00
C275   C     0.48482   0.48660   0.48684   0.00000  Uiso   1.00
C276   C     0.49153   0.50401   0.02368   0.00000  Uiso   1.00
C277   C     0.48064   0.54489   0.03822   0.00000  Uiso   1.00
C278   C     0.46468   0.56794   0.01686   0.00000  Uiso   1.00
C279   C     0.48520   0.44308   0.47672   0.00000  Uiso   1.00
C280   C     0.50087   0.41897   0.49714   0.00000  Uiso   1.00
C281   C     0.51334   0.43677   0.03037   0.00000  Uiso   1.00
C282   C     0.50742   0.47918   0.04506   0.00000  Uiso   1.00
C283   C     0.52886   0.41150   0.05055   0.00000  Uiso   1.00
C284   C     0.53575   0.42678   0.08663   0.00000  Uiso   1.00
C285   C     0.51616   0.49433   0.08125   0.00000  Uiso   1.00
H286   H     0.45546   0.59871   0.02954   0.00000  Uiso   1.00
H287   H     0.51095   0.52553   0.09511   0.00000  Uiso   1.00
H288   H     0.54433   0.40584   0.10340   0.00000  Uiso   1.00
H289   H     0.50211   0.38588   0.48741   0.00000  Uiso   1.00
H290   H     0.43835   0.60797   0.47015   0.00000  Uiso   1.00
H291   H     0.44268   0.58660   0.40163   0.00000  Uiso   1.00
H292   H     0.48263   0.55958   0.06660   0.00000  Uiso   1.00
H293   H     0.47187   0.42656   0.45382   0.00000  Uiso   1.00
H294   H     0.53330   0.37916   0.03945   0.00000  Uiso   1.00
C295   C     0.66026   0.50937   0.23776   0.00000  Uiso   1.00
H296   H     0.34989   0.52653   0.21528   0.00000  Uiso   1.00
C297   C     0.34043   0.49067   0.26210   0.00000  Uiso   1.00
H298   H     0.65150   0.47350   0.28490   0.00000  Uiso   1.00
C299   C     0.51399   0.65543   0.23825   0.00000  Uiso   1.00
H300   H     0.54099   0.33603   0.21638   0.00000  Uiso   1.00
C301   C     0.48471   0.34539   0.26204   0.00000  Uiso   1.00
H302   H     0.45734   0.66560   0.28400   0.00000  Uiso   1.00
N303   N     0.50410   0.46704   0.40136   0.00000  Uiso   1.00
O304   O     0.54457   0.46716   0.39996   0.00000  Uiso   1.00
O305   O     0.48443   0.43513   0.38437   0.00000  Uiso   1.00
Zn306  Zn    0.85910   0.47423   0.28277   0.00000  Uiso   1.00
Zn307  Zn    0.80125   0.45711   0.22257   0.00000  Uiso   1.00
Zn308  Zn    0.87833   0.52997   0.21188   0.00000  Uiso   1.00
Zn309  Zn    0.79465   0.53868   0.28277   0.00000  Uiso   1.00
O310   O     0.83333   0.50000   0.25000   0.00000  Uiso   1.00
O311   O     0.73656   0.52293   0.27820   0.00000  Uiso   1.00
O312   O     0.92106   0.48610   0.26768   0.00000  Uiso   1.00
O313   O     0.80467   0.40236   0.23607   0.00000  Uiso   1.00
O314   O     0.87104   0.58860   0.21806   0.00000  Uiso   1.00
O315   O     0.82360   0.45726   0.16625   0.00000  Uiso   1.00
O316   O     0.79354   0.53979   0.33749   0.00000  Uiso   1.00
O317   O     0.87755   0.50826   0.15877   0.00000  Uiso   1.00
O318   O     0.83865   0.49468   0.33749   0.00000  Uiso   1.00
O319   O     0.84515   0.41434   0.27820   0.00000  Uiso   1.00
O320   O     0.81247   0.59469   0.26767   0.00000  Uiso   1.00
O321   O     0.74119   0.46584   0.23607   0.00000  Uiso   1.00
O322   O     0.93452   0.52512   0.21806   0.00000  Uiso   1.00
C323   C     0.71914   0.49314   0.25877   0.00000  Uiso   1.00
C324   C     0.94763   0.50684   0.24126   0.00000  Uiso   1.00
C325   C     0.82247   0.38944   0.25892   0.00000  Uiso   1.00
C326   C     0.84344   0.61094   0.24141   0.00000  Uiso   1.00
C327   C     0.85470   0.47824   0.14423   0.00000  Uiso   1.00
C328   C     0.81180   0.52057   0.35622   0.00000  Uiso   1.00
C329   C     0.80301   0.52894   0.39923   0.00000  Uiso   1.00
C330   C     0.86166   0.46773   0.10241   0.00000  Uiso   1.00
C331   C     0.78286   0.57800   0.45713   0.00000  Uiso   1.00
C332   C     0.78538   0.56575   0.41794   0.00000  Uiso   1.00
C333   C     0.81476   0.50203   0.42135   0.00000  Uiso   1.00
C334   C     0.80903   0.51288   0.46229   0.00000  Uiso   1.00
C335   C     0.79618   0.55282   0.47892   0.00000  Uiso   1.00
C336   C     0.81816   0.48660   0.48684   0.00000  Uiso   1.00
C337   C     0.82486   0.50401   0.02368   0.00000  Uiso   1.00
C338   C     0.81397   0.54489   0.03822   0.00000  Uiso   1.00
C339   C     0.79801   0.56794   0.01686   0.00000  Uiso   1.00
C340   C     0.81854   0.44308   0.47672   0.00000  Uiso   1.00
C341   C     0.83420   0.41897   0.49714   0.00000  Uiso   1.00
C342   C     0.84667   0.43677   0.03037   0.00000  Uiso   1.00
C343   C     0.84076   0.47918   0.04506   0.00000  Uiso   1.00
C344   C     0.86219   0.41150   0.05055   0.00000  Uiso   1.00
C345   C     0.86909   0.42678   0.08663   0.00000  Uiso   1.00
C346   C     0.84949   0.49433   0.08125   0.00000  Uiso   1.00
H347   H     0.78879   0.59871   0.02954   0.00000  Uiso   1.00
H348   H     0.84428   0.52553   0.09511   0.00000  Uiso   1.00
H349   H     0.87766   0.40584   0.10340   0.00000  Uiso   1.00
H350   H     0.83544   0.38588   0.48741   0.00000  Uiso   1.00
H351   H     0.77169   0.60797   0.47015   0.00000  Uiso   1.00
H352   H     0.77601   0.58660   0.40163   0.00000  Uiso   1.00
H353   H     0.81596   0.55958   0.06660   0.00000  Uiso   1.00
H354   H     0.80521   0.42656   0.45382   0.00000  Uiso   1.00
H355   H     0.86664   0.37916   0.03945   0.00000  Uiso   1.00
C356   C     0.99359   0.50937   0.23776   0.00000  Uiso   1.00
H357   H     0.68322   0.52653   0.21528   0.00000  Uiso   1.00
C358   C     0.67377   0.49067   0.26210   0.00000  Uiso   1.00
H359   H     0.98483   0.47350   0.28490   0.00000  Uiso   1.00
C360   C     0.84733   0.65543   0.23825   0.00000  Uiso   1.00
H361   H     0.87432   0.33603   0.21638   0.00000  Uiso   1.00
C362   C     0.81805   0.34539   0.26204   0.00000  Uiso   1.00
H363   H     0.79068   0.66560   0.28400   0.00000  Uiso   1.00
N364   N     0.83743   0.46704   0.40136   0.00000  Uiso   1.00
O365   O     0.87790   0.46716   0.39996   0.00000  Uiso   1.00
O366   O     0.81776   0.43513   0.38437   0.00000  Uiso   1.00
Zn367  Zn    0.19244   0.80756   0.28277   0.00000  Uiso   1.00
Zn368  Zn    0.13459   0.79044   0.22257   0.00000  Uiso   1.00
Zn369  Zn    0.21166   0.86331   0.21188   0.00000  Uiso   1.00
Zn370  Zn    0.12798   0.87202   0.28277   0.00000  Uiso   1.00
O371   O     0.16667   0.83333   0.25000   0.00000  Uiso   1.00
O372   O     0.06990   0.85627   0.27820   0.00000  Uiso   1.00
O373   O     0.25440   0.81944   0.26768   0.00000  Uiso   1.00
O374   O     0.13800   0.73570   0.23607   0.00000  Uiso   1.00
O375   O     0.20437   0.92193   0.21806   0.00000  Uiso   1.00
O376   O     0.15693   0.79060   0.16625   0.00000  Uiso   1.00
O377   O     0.12687   0.87313   0.33749   0.00000  Uiso   1.00
O378   O     0.21088   0.84159   0.15877   0.00000  Uiso   1.00
O379   O     0.17198   0.82802   0.33749   0.00000  Uiso   1.00
O380   O     0.17849   0.74768   0.27820   0.00000  Uiso   1.00
O381   O     0.14581   0.92803   0.26767   0.00000  Uiso   1.00
O382   O     0.07452   0.79917   0.23607   0.00000  Uiso   1.00
O383   O     0.26785   0.85845   0.21806   0.00000  Uiso   1.00
C384   C     0.05247   0.82647   0.25877   0.00000  Uiso   1.00
C385   C     0.28096   0.84017   0.24126   0.00000  Uiso   1.00
C386   C     0.15581   0.72278   0.25892   0.00000  Uiso   1.00
C387   C     0.17677   0.94427   0.24141   0.00000  Uiso   1.00
C388   C     0.18804   0.81158   0.14423   0.00000  Uiso   1.00
C389   C     0.14514   0.85390   0.35622   0.00000  Uiso   1.00
C390   C     0.13635   0.86227   0.39923   0.00000  Uiso   1.00
C391   C     0.19499   0.80107   0.10241   0.00000  Uiso   1.00
C392   C     0.11619   0.91134   0.45713   0.00000  Uiso   1.00
C393   C     0.11871   0.89909   0.41794   0.00000  Uiso   1.00
C394   C     0.14810   0.83537   0.42135   0.00000  Uiso   1.00
C395   C     0.14236   0.84621   0.46229   0.00000  Uiso   1.00
C396   C     0.12951   0.88615   0.47892   0.00000  Uiso   1.00
C397   C     0.15149   0.81994   0.48684   0.00000  Uiso   1.00
C398   C     0.15820   0.83734   0.02368   0.00000  Uiso   1.00
C399   C     0.14730   0.87822   0.03822   0.00000  Uiso   1.00
C400   C     0.13134   0.90128   0.01686   0.00000  Uiso   1.00
C401   C     0.15187   0.77641   0.47672   0.00000  Uiso   1.00
C402   C     0.16754   0.75231   0.49714   0.00000  Uiso   1.00
C403   C     0.18001   0.77010   0.03037   0.00000  Uiso   1.00
C404   C     0.17409   0.81251   0.04506   0.00000  Uiso   1.00
C405   C     0.19553   0.74484   0.05055   0.00000  Uiso   1.00
C406   C     0.20242   0.76011   0.08663   0.00000  Uiso   1.00
C407   C     0.18283   0.82766   0.08125   0.00000  Uiso   1.00
H408   H     0.12212   0.93204   0.02954   0.00000  Uiso   1.00
H409   H     0.17761   0.85886   0.09511   0.00000  Uiso   1.00
H410   H     0.21100   0.73918   0.10340   0.00000  Uiso   1.00
H411   H     0.16878   0.71921   0.48741   0.00000  Uiso   1.00
H412   H     0.10502   0.94131   0.47015   0.00000  Uiso   1.00
H413   H     0.10934   0.91993   0.40163   0.00000  Uiso   1.00
H414   H     0.14930   0.89291   0.06660   0.00000  Uiso   1.00
H415   H     0.13854   0.75990   0.45382   0.00000  Uiso   1.00
H416   H     0.19997   0.71249   0.03945   0.00000  Uiso   1.00
C417   C     0.32692   0.84270   0.23776   0.00000  Uiso   1.00
H418   H     0.01656   0.85986   0.21528   0.00000  Uiso   1.00
C419   C     0.00710   0.82400   0.26210   0.00000  Uiso   1.00
H420   H     0.31817   0.80684   0.28490   0.00000  Uiso   1.00
C421   C     0.18066   0.98876   0.23825   0.00000  Uiso   1.00
H422   H     0.20765   0.66936   0.21638   0.00000  Uiso   1.00
C423   C     0.15138   0.67872   0.26204   0.00000  Uiso   1.00
H424   H     0.12401   0.99893   0.28400   0.00000  Uiso   1.00
N425   N     0.17077   0.80037   0.40136   0.00000  Uiso   1.00
O426   O     0.21124   0.80050   0.39996   0.00000  Uiso   1.00
O427   O     0.15110   0.76847   0.38437   0.00000  Uiso   1.00
Zn428  Zn    0.52577   0.80756   0.28277   0.00000  Uiso   1.00
Zn429  Zn    0.46792   0.79044   0.22257   0.00000  Uiso   1.00
Zn430  Zn    0.54500   0.86331   0.21188   0.00000  Uiso   1.00
Zn431  Zn    0.46131   0.87202   0.28277   0.00000  Uiso   1.00
O432   O     0.50000   0.83333   0.25000   0.00000  Uiso   1.00
O433   O     0.40323   0.85627   0.27820   0.00000  Uiso   1.00
O434   O     0.58773   0.81944   0.26768   0.00000  Uiso   1.00
O435   O     0.47133   0.73570   0.23607   0.00000  Uiso   1.00
O436   O     0.53771   0.92193   0.21806   0.00000  Uiso   1.00
O437   O     0.49027   0.79060   0.16625   0.00000  Uiso   1.00
O438   O     0.46020   0.87313   0.33749   0.00000  Uiso   1.00
O439   O     0.54421   0.84159   0.15877   0.00000  Uiso   1.00
O440   O     0.50532   0.82802   0.33749   0.00000  Uiso   1.00
O441   O     0.51182   0.74768   0.27820   0.00000  Uiso   1.00
O442   O     0.47914   0.92803   0.26767   0.00000  Uiso   1.00
O443   O     0.40785   0.79917   0.23607   0.00000  Uiso   1.00
O444   O     0.60119   0.85845   0.21806   0.00000  Uiso   1.00
C445   C     0.38581   0.82647   0.25877   0.00000  Uiso   1.00
C446   C     0.61430   0.84017   0.24126   0.00000  Uiso   1.00
C447   C     0.48914   0.72278   0.25892   0.00000  Uiso   1.00
C448   C     0.51010   0.94427   0.24141   0.00000  Uiso   1.00
C449   C     0.52137   0.81158   0.14423   0.00000  Uiso   1.00
C450   C     0.47847   0.85390   0.35622   0.00000  Uiso   1.00
C451   C     0.46968   0.86227   0.39923   0.00000  Uiso   1.00
C452   C     0.52832   0.80107   0.10241   0.00000  Uiso   1.00
C453   C     0.44953   0.91134   0.45713   0.00000  Uiso   1.00
C454   C     0.45205   0.89909   0.41794   0.00000  Uiso   1.00
C455   C     0.48143   0.83537   0.42135   0.00000  Uiso   1.00
C456   C     0.47569   0.84621   0.46229   0.00000  Uiso   1.00
C457   C     0.46284   0.88615   0.47892   0.00000  Uiso   1.00
C458   C     0.48482   0.81994   0.48684   0.00000  Uiso   1.00
C459   C     0.49153   0.83734   0.02368   0.00000  Uiso   1.00
C460   C     0.48064   0.87822   0.03822   0.00000  Uiso   1.00
C461   C     0.46468   0.90128   0.01686   0.00000  Uiso   1.00
C462   C     0.48520   0.77641   0.47672   0.00000  Uiso   1.00
C463   C     0.50087   0.75231   0.49714   0.00000  Uiso   1.00
C464   C     0.51334   0.77010   0.03037   0.00000  Uiso   1.00
C465   C     0.50742   0.81251   0.04506   0.00000  Uiso   1.00
C466   C     0.52886   0.74484   0.05055   0.00000  Uiso   1.00
C467   C     0.53575   0.76011   0.08663   0.00000  Uiso   1.00
C468   C     0.51616   0.82766   0.08125   0.00000  Uiso   1.00
H469   H     0.45546   0.93204   0.02954   0.00000  Uiso   1.00
H470   H     0.51095   0.85886   0.09511   0.00000  Uiso   1.00
H471   H     0.54433   0.73918   0.10340   0.00000  Uiso   1.00
H472   H     0.50211   0.71921   0.48741   0.00000  Uiso   1.00
H473   H     0.43835   0.94131   0.47015   0.00000  Uiso   1.00
H474   H     0.44268   0.91993   0.40163   0.00000  Uiso   1.00
H475   H     0.48263   0.89291   0.06660   0.00000  Uiso   1.00
H476   H     0.47187   0.75990   0.45382   0.00000  Uiso   1.00
H477   H     0.53330   0.71249   0.03945   0.00000  Uiso   1.00
C478   C     0.66026   0.84270   0.23776   0.00000  Uiso   1.00
H479   H     0.34989   0.85986   0.21528   0.00000  Uiso   1.00
C480   C     0.34043   0.82400   0.26210   0.00000  Uiso   1.00
H481   H     0.65150   0.80684   0.28490   0.00000  Uiso   1.00
C482   C     0.51399   0.98876   0.23825   0.00000  Uiso   1.00
H483   H     0.54099   0.66936   0.21638   0.00000  Uiso   1.00
C484   C     0.48471   0.67872   0.26204   0.00000  Uiso   1.00
H485   H     0.45734   0.99893   0.28400   0.00000  Uiso   1.00
N486   N     0.50410   0.80037   0.40136   0.00000  Uiso   1.00
O487   O     0.54457   0.80050   0.39996   0.00000  Uiso   1.00
O488   O     0.48443   0.76847   0.38437   0.00000  Uiso   1.00
Zn489  Zn    0.85910   0.80756   0.28277   0.00000  Uiso   1.00
Zn490  Zn    0.80125   0.79044   0.22257   0.00000  Uiso   1.00
Zn491  Zn    0.87833   0.86331   0.21188   0.00000  Uiso   1.00
Zn492  Zn    0.79465   0.87202   0.28277   0.00000  Uiso   1.00
O493   O     0.83333   0.83333   0.25000   0.00000  Uiso   1.00
O494   O     0.73656   0.85627   0.27820   0.00000  Uiso   1.00
O495   O     0.92106   0.81944   0.26768   0.00000  Uiso   1.00
O496   O     0.80467   0.73570   0.23607   0.00000  Uiso   1.00
O497   O     0.87104   0.92193   0.21806   0.00000  Uiso   1.00
O498   O     0.82360   0.79060   0.16625   0.00000  Uiso   1.00
O499   O     0.79354   0.87313   0.33749   0.00000  Uiso   1.00
O500   O     0.87755   0.84159   0.15877   0.00000  Uiso   1.00
O501   O     0.83865   0.82802   0.33749   0.00000  Uiso   1.00
O502   O     0.84515   0.74768   0.27820   0.00000  Uiso   1.00
O503   O     0.81247   0.92803   0.26767   0.00000  Uiso   1.00
O504   O     0.74119   0.79917   0.23607   0.00000  Uiso   1.00
O505   O     0.93452   0.85845   0.21806   0.00000  Uiso   1.00
C506   C     0.71914   0.82647   0.25877   0.00000  Uiso   1.00
C507   C     0.94763   0.84017   0.24126   0.00000  Uiso   1.00
C508   C     0.82247   0.72278   0.25892   0.00000  Uiso   1.00
C509   C     0.84344   0.94427   0.24141   0.00000  Uiso   1.00
C510   C     0.85470   0.81158   0.14423   0.00000  Uiso   1.00
C511   C     0.81180   0.85390   0.35622   0.00000  Uiso   1.00
C512   C     0.80301   0.86227   0.39923   0.00000  Uiso   1.00
C513   C     0.86166   0.80107   0.10241   0.00000  Uiso   1.00
C514   C     0.78286   0.91134   0.45713   0.00000  Uiso   1.00
C515   C     0.78538   0.89909   0.41794   0.00000  Uiso   1.00
C516   C     0.81476   0.83537   0.42135   0.00000  Uiso   1.00
C517   C     0.80903   0.84621   0.46229   0.00000  Uiso   1.00
C518   C     0.79618   0.88615   0.47892   0.00000  Uiso   1.00
C519   C     0.81816   0.81994   0.48684   0.00000  Uiso   1.00
C520   C     0.82486   0.83734   0.02368   0.00000  Uiso   1.00
C521   C     0.81397   0.87822   0.03822   0.00000  Uiso   1.00
C522   C     0.79801   0.90128   0.01686   0.00000  Uiso   1.00
C523   C     0.81854   0.77641   0.47672   0.00000  Uiso   1.00
C524   C     0.83420   0.75231   0.49714   0.00000  Uiso   1.00
C525   C     0.84667   0.77010   0.03037   0.00000  Uiso   1.00
C526   C     0.84076   0.81251   0.04506   0.00000  Uiso   1.00
C527   C     0.86219   0.74484   0.05055   0.00000  Uiso   1.00
C528   C     0.86909   0.76011   0.08663   0.00000  Uiso   1.00
C529   C     0.84949   0.82766   0.08125   0.00000  Uiso   1.00
H530   H     0.78879   0.93204   0.02954   0.00000  Uiso   1.00
H531   H     0.84428   0.85886   0.09511   0.00000  Uiso   1.00
H532   H     0.87766   0.73918   0.10340   0.00000  Uiso   1.00
H533   H     0.83544   0.71921   0.48741   0.00000  Uiso   1.00
H534   H     0.77169   0.94131   0.47015   0.00000  Uiso   1.00
H535   H     0.77601   0.91993   0.40163   0.00000  Uiso   1.00
H536   H     0.81596   0.89291   0.06660   0.00000  Uiso   1.00
H537   H     0.80521   0.75990   0.45382   0.00000  Uiso   1.00
H538   H     0.86664   0.71249   0.03945   0.00000  Uiso   1.00
C539   C     0.99359   0.84270   0.23776   0.00000  Uiso   1.00
H540   H     0.68322   0.85986   0.21528   0.00000  Uiso   1.00
C541   C     0.67377   0.82400   0.26210   0.00000  Uiso   1.00
H542   H     0.98483   0.80684   0.28490   0.00000  Uiso   1.00
C543   C     0.84733   0.98876   0.23825   0.00000  Uiso   1.00
H544   H     0.87432   0.66936   0.21638   0.00000  Uiso   1.00
C545   C     0.81805   0.67872   0.26204   0.00000  Uiso   1.00
H546   H     0.79068   0.99893   0.28400   0.00000  Uiso   1.00
N547   N     0.83743   0.80037   0.40136   0.00000  Uiso   1.00
O548   O     0.87790   0.80050   0.39996   0.00000  Uiso   1.00
O549   O     0.81776   0.76847   0.38437   0.00000  Uiso   1.00
Zn550  Zn    0.19244   0.14090   0.78277   0.00000  Uiso   1.00
Zn551  Zn    0.13459   0.12378   0.72257   0.00000  Uiso   1.00
Zn552  Zn    0.21166   0.19664   0.71188   0.00000  Uiso   1.00
Zn553  Zn    0.12798   0.20535   0.78277   0.00000  Uiso   1.00
O554   O     0.16667   0.16667   0.75000   0.00000  Uiso   1.00
O555   O     0.06990   0.18960   0.77820   0.00000  Uiso   1.00
O556   O     0.25440   0.15277   0.76768   0.00000  Uiso   1.00
O557   O     0.13800   0.06903   0.73607   0.00000  Uiso   1.00
O558   O     0.20437   0.25527   0.71806   0.00000  Uiso   1.00
O559   O     0.15693   0.12393   0.66625   0.00000  Uiso   1.00
O560   O     0.12687   0.20646   0.83749   0.00000  Uiso   1.00
O561   O     0.21088   0.17493   0.65877   0.00000  Uiso   1.00
O562   O     0.17198   0.16135   0.83749   0.00000  Uiso   1.00
O563   O     0.17849   0.08101   0.77820   0.00000  Uiso   1.00
O564   O     0.14581   0.26136   0.76767   0.00000  Uiso   1.00
O565   O     0.07452   0.13251   0.73607   0.00000  Uiso   1.00
O566   O     0.26785   0.19179   0.71806   0.00000  Uiso   1.00
C567   C     0.05247   0.15981   0.75877   0.00000  Uiso   1.00
C568   C     0.28096   0.17350   0.74126   0.00000  Uiso   1.00
C569   C     0.15581   0.05611   0.75892   0.00000  Uiso   1.00
C570   C     0.17677   0.27760   0.74141   0.00000  Uiso   1.00
C571   C     0.18804   0.14491   0.64423   0.00000  Uiso   1.00
C572   C     0.14514   0.18724   0.85622   0.00000  Uiso   1.00
C573   C     0.13635   0.19560   0.89923   0.00000  Uiso   1.00
C574   C     0.19499   0.13440   0.60241   0.00000  Uiso   1.00
C575   C     0.11619   0.24467   0.95713   0.00000  Uiso   1.00
C576   C     0.11871   0.23242   0.91794   0.00000  Uiso   1.00
C577   C     0.14810   0.16870   0.92135   0.00000  Uiso   1.00
C578   C     0.14236   0.17955   0.96229   0.00000  Uiso   1.00
C579   C     0.12951   0.21948   0.97892   0.00000  Uiso   1.00
C580   C     0.15149   0.15327   0.98684   0.00000  Uiso   1.00
C581   C     0.15820   0.17067   0.52368   0.00000  Uiso   1.00
C582   C     0.14730   0.21156   0.53822   0.00000  Uiso   1.00
C583   C     0.13134   0.23461   0.51686   0.00000  Uiso   1.00
C584   C     0.15187   0.10974   0.97672   0.00000  Uiso   1.00
C585   C     0.16754   0.08564   0.99714   0.00000  Uiso   1.00
C586   C     0.18001   0.10344   0.53037   0.00000  Uiso   1.00
C587   C     0.17409   0.14585   0.54506   0.00000  Uiso   1.00
C588   C     0.19553   0.07817   0.55055   0.00000  Uiso   1.00
C589   C     0.20242   0.09344   0.58663   0.00000  Uiso   1.00
C590   C     0.18283   0.16100   0.58125   0.00000  Uiso   1.00
H591   H     0.12212   0.26537   0.52954   0.00000  Uiso   1.00
H592   H     0.17761   0.19219   0.59511   0.00000  Uiso   1.00
H593   H     0.21100   0.07251   0.60340   0.00000  Uiso   1.00
H594   H     0.16878   0.05255   0.98741   0.00000  Uiso   1.00
H595   H     0.10502   0.27464   0.97015   0.00000  Uiso   1.00
H596   H     0.10934   0.25326   0.90163   0.00000  Uiso   1.00
H597   H     0.14930   0.22625   0.56660   0.00000  Uiso   1.00
H598   H     0.13854   0.09323   0.95382   0.00000  Uiso   1.00
H599   H     0.19997   0.04582   0.53945   0.00000  Uiso   1.00
C600   C     0.32692   0.17604   0.73776   0.00000  Uiso   1.00
H601   H     0.01656   0.19319   0.71528   0.00000  Uiso   1.00
C602   C     0.00710   0.15734   0.76210   0.00000  Uiso   1.00
H603   H     0.31817   0.14017   0.78490   0.00000  Uiso   1.00
C604   C     0.18066   0.32209   0.73825   0.00000  Uiso   1.00
H605   H     0.20765   0.00269   0.71638   0.00000  Uiso   1.00
C606   C     0.15138   0.01206   0.76204   0.00000  Uiso   1.00
H607   H     0.12401   0.33226   0.78400   0.00000  Uiso   1.00
N608   N     0.17077   0.13370   0.90136   0.00000  Uiso   1.00
O609   O     0.21124   0.13383   0.89996   0.00000  Uiso   1.00
O610   O     0.15110   0.10180   0.88437   0.00000  Uiso   1.00
Zn611  Zn    0.52577   0.14090   0.78277   0.00000  Uiso   1.00
Zn612  Zn    0.46792   0.12378   0.72257   0.00000  Uiso   1.00
Zn613  Zn    0.54500   0.19664   0.71188   0.00000  Uiso   1.00
Zn614  Zn    0.46131   0.20535   0.78277   0.00000  Uiso   1.00
O615   O     0.50000   0.16667   0.75000   0.00000  Uiso   1.00
O616   O     0.40323   0.18960   0.77820   0.00000  Uiso   1.00
O617   O     0.58773   0.15277   0.76768   0.00000  Uiso   1.00
O618   O     0.47133   0.06903   0.73607   0.00000  Uiso   1.00
O619   O     0.53771   0.25527   0.71806   0.00000  Uiso   1.00
O620   O     0.49027   0.12393   0.66625   0.00000  Uiso   1.00
O621   O     0.46020   0.20646   0.83749   0.00000  Uiso   1.00
O622   O     0.54421   0.17493   0.65877   0.00000  Uiso   1.00
O623   O     0.50532   0.16135   0.83749   0.00000  Uiso   1.00
O624   O     0.51182   0.08101   0.77820   0.00000  Uiso   1.00
O625   O     0.47914   0.26136   0.76767   0.00000  Uiso   1.00
O626   O     0.40785   0.13251   0.73607   0.00000  Uiso   1.00
O627   O     0.60119   0.19179   0.71806   0.00000  Uiso   1.00
C628   C     0.38581   0.15981   0.75877   0.00000  Uiso   1.00
C629   C     0.61430   0.17350   0.74126   0.00000  Uiso   1.00
C630   C     0.48914   0.05611   0.75892   0.00000  Uiso   1.00
C631   C     0.51010   0.27760   0.74141   0.00000  Uiso   1.00
C632   C     0.52137   0.14491   0.64423   0.00000  Uiso   1.00
C633   C     0.47847   0.18724   0.85622   0.00000  Uiso   1.00
C634   C     0.46968   0.19560   0.89923   0.00000  Uiso   1.00
C635   C     0.52832   0.13440   0.60241   0.00000  Uiso   1.00
C636   C     0.44953   0.24467   0.95713   0.00000  Uiso   1.00
C637   C     0.45205   0.23242   0.91794   0.00000  Uiso   1.00
C638   C     0.48143   0.16870   0.92135   0.00000  Uiso   1.00
C639   C     0.47569   0.17955   0.96229   0.00000  Uiso   1.00
C640   C     0.46284   0.21948   0.97892   0.00000  Uiso   1.00
C641   C     0.48482   0.15327   0.98684   0.00000  Uiso   1.00
C642   C     0.49153   0.17067   0.52368   0.00000  Uiso   1.00
C643   C     0.48064   0.21156   0.53822   0.00000  Uiso   1.00
C644   C     0.46468   0.23461   0.51686   0.00000  Uiso   1.00
C645   C     0.48520   0.10974   0.97672   0.00000  Uiso   1.00
C646   C     0.50087   0.08564   0.99714   0.00000  Uiso   1.00
C647   C     0.51334   0.10344   0.53037   0.00000  Uiso   1.00
C648   C     0.50742   0.14585   0.54506   0.00000  Uiso   1.00
C649   C     0.52886   0.07817   0.55055   0.00000  Uiso   1.00
C650   C     0.53575   0.09344   0.58663   0.00000  Uiso   1.00
C651   C     0.51616   0.16100   0.58125   0.00000  Uiso   1.00
H652   H     0.45546   0.26537   0.52954   0.00000  Uiso   1.00
H653   H     0.51095   0.19219   0.59511   0.00000  Uiso   1.00
H654   H     0.54433   0.07251   0.60340   0.00000  Uiso   1.00
H655   H     0.50211   0.05255   0.98741   0.00000  Uiso   1.00
H656   H     0.43835   0.27464   0.97015   0.00000  Uiso   1.00
H657   H     0.44268   0.25326   0.90163   0.00000  Uiso   1.00
H658   H     0.48263   0.22625   0.56660   0.00000  Uiso   1.00
H659   H     0.47187   0.09323   0.95382   0.00000  Uiso   1.00
H660   H     0.53330   0.04582   0.53945   0.00000  Uiso   1.00
C661   C     0.66026   0.17604   0.73776   0.00000  Uiso   1.00
H662   H     0.34989   0.19319   0.71528   0.00000  Uiso   1.00
C663   C     0.34043   0.15734   0.76210   0.00000  Uiso   1.00
H664   H     0.65150   0.14017   0.78490   0.00000  Uiso   1.00
C665   C     0.51399   0.32209   0.73825   0.00000  Uiso   1.00
H666   H     0.54099   0.00269   0.71638   0.00000  Uiso   1.00
C667   C     0.48471   0.01206   0.76204   0.00000  Uiso   1.00
H668   H     0.45734   0.33226   0.78400   0.00000  Uiso   1.00
N669   N     0.50410   0.13370   0.90136   0.00000  Uiso   1.00
O670   O     0.54457   0.13383   0.89996   0.00000  Uiso   1.00
O671   O     0.48443   0.10180   0.88437   0.00000  Uiso   1.00
Zn672  Zn    0.85910   0.14090   0.78277   0.00000  Uiso   1.00
Zn673  Zn    0.80125   0.12378   0.72257   0.00000  Uiso   1.00
Zn674  Zn    0.87833   0.19664   0.71188   0.00000  Uiso   1.00
Zn675  Zn    0.79465   0.20535   0.78277   0.00000  Uiso   1.00
O676   O     0.83333   0.16667   0.75000   0.00000  Uiso   1.00
O677   O     0.73656   0.18960   0.77820   0.00000  Uiso   1.00
O678   O     0.92106   0.15277   0.76768   0.00000  Uiso   1.00
O679   O     0.80467   0.06903   0.73607   0.00000  Uiso   1.00
O680   O     0.87104   0.25527   0.71806   0.00000  Uiso   1.00
O681   O     0.82360   0.12393   0.66625   0.00000  Uiso   1.00
O682   O     0.79354   0.20646   0.83749   0.00000  Uiso   1.00
O683   O     0.87755   0.17493   0.65877   0.00000  Uiso   1.00
O684   O     0.83865   0.16135   0.83749   0.00000  Uiso   1.00
O685   O     0.84515   0.08101   0.77820   0.00000  Uiso   1.00
O686   O     0.81247   0.26136   0.76767   0.00000  Uiso   1.00
O687   O     0.74119   0.13251   0.73607   0.00000  Uiso   1.00
O688   O     0.93452   0.19179   0.71806   0.00000  Uiso   1.00
C689   C     0.71914   0.15981   0.75877   0.00000  Uiso   1.00
C690   C     0.94763   0.17350   0.74126   0.00000  Uiso   1.00
C691   C     0.82247   0.05611   0.75892   0.00000  Uiso   1.00
C692   C     0.84344   0.27760   0.74141   0.00000  Uiso   1.00
C693   C     0.85470   0.14491   0.64423   0.00000  Uiso   1.00
C694   C     0.81180   0.18724   0.85622   0.00000  Uiso   1.00
C695   C     0.80301   0.19560   0.89923   0.00000  Uiso   1.00
C696   C     0.86166   0.13440   0.60241   0.00000  Uiso   1.00
C697   C     0.78286   0.24467   0.95713   0.00000  Uiso   1.00
C698   C     0.78538   0.23242   0.91794   0.00000  Uiso   1.00
C699   C     0.81476   0.16870   0.92135   0.00000  Uiso   1.00
C700   C     0.80903   0.17955   0.96229   0.00000  Uiso   1.00
C701   C     0.79618   0.21948   0.97892   0.00000  Uiso   1.00
C702   C     0.81816   0.15327   0.98684   0.00000  Uiso   1.00
C703   C     0.82486   0.17067   0.52368   0.00000  Uiso   1.00
C704   C     0.81397   0.21156   0.53822   0.00000  Uiso   1.00
C705   C     0.79801   0.23461   0.51686   0.00000  Uiso   1.00
C706   C     0.81854   0.10974   0.97672   0.00000  Uiso   1.00
C707   C     0.83420   0.08564   0.99714   0.00000  Uiso   1.00
C708   C     0.84667   0.10344   0.53037   0.00000  Uiso   1.00
C709   C     0.84076   0.14585   0.54506   0.00000  Uiso   1.00
C710   C     0.86219   0.07817   0.55055   0.00000  Uiso   1.00
C711   C     0.86909   0.09344   0.58663   0.00000  Uiso   1.00
C712   C     0.84949   0.16100   0.58125   0.00000  Uiso   1.00
H713   H     0.78879   0.26537   0.52954   0.00000  Uiso   1.00
H714   H     0.84428   0.19219   0.59511   0.00000  Uiso   1.00
H715   H     0.87766   0.07251   0.60340   0.00000  Uiso   1.00
H716   H     0.83544   0.05255   0.98741   0.00000  Uiso   1.00
H717   H     0.77169   0.27464   0.97015   0.00000  Uiso   1.00
H718   H     0.77601   0.25326   0.90163   0.00000  Uiso   1.00
H719   H     0.81596   0.22625   0.56660   0.00000  Uiso   1.00
H720   H     0.80521   0.09323   0.95382   0.00000  Uiso   1.00
H721   H     0.86664   0.04582   0.53945   0.00000  Uiso   1.00
C722   C     0.99359   0.17604   0.73776   0.00000  Uiso   1.00
H723   H     0.68322   0.19319   0.71528   0.00000  Uiso   1.00
C724   C     0.67377   0.15734   0.76210   0.00000  Uiso   1.00
H725   H     0.98483   0.14017   0.78490   0.00000  Uiso   1.00
C726   C     0.84733   0.32209   0.73825   0.00000  Uiso   1.00
H727   H     0.87432   0.00269   0.71638   0.00000  Uiso   1.00
C728   C     0.81805   0.01206   0.76204   0.00000  Uiso   1.00
H729   H     0.79068   0.33226   0.78400   0.00000  Uiso   1.00
N730   N     0.83743   0.13370   0.90136   0.00000  Uiso   1.00
O731   O     0.87790   0.13383   0.89996   0.00000  Uiso   1.00
O732   O     0.81776   0.10180   0.88437   0.00000  Uiso   1.00
Zn733  Zn    0.19244   0.47423   0.78277   0.00000  Uiso   1.00
Zn734  Zn    0.13459   0.45711   0.72257   0.00000  Uiso   1.00
Zn735  Zn    0.21166   0.52997   0.71188   0.00000  Uiso   1.00
Zn736  Zn    0.12798   0.53868   0.78277   0.00000  Uiso   1.00
O737   O     0.16667   0.50000   0.75000   0.00000  Uiso   1.00
O738   O     0.06990   0.52293   0.77820   0.00000  Uiso   1.00
O739   O     0.25440   0.48610   0.76768   0.00000  Uiso   1.00
O740   O     0.13800   0.40236   0.73607   0.00000  Uiso   1.00
O741   O     0.20437   0.58860   0.71806   0.00000  Uiso   1.00
O742   O     0.15693   0.45726   0.66625   0.00000  Uiso   1.00
O743   O     0.12687   0.53979   0.83749   0.00000  Uiso   1.00
O744   O     0.21088   0.50826   0.65877   0.00000  Uiso   1.00
O745   O     0.17198   0.49468   0.83749   0.00000  Uiso   1.00
O746   O     0.17849   0.41434   0.77820   0.00000  Uiso   1.00
O747   O     0.14581   0.59469   0.76767   0.00000  Uiso   1.00
O748   O     0.07452   0.46584   0.73607   0.00000  Uiso   1.00
O749   O     0.26785   0.52512   0.71806   0.00000  Uiso   1.00
C750   C     0.05247   0.49314   0.75877   0.00000  Uiso   1.00
C751   C     0.28096   0.50684   0.74126   0.00000  Uiso   1.00
C752   C     0.15581   0.38944   0.75892   0.00000  Uiso   1.00
C753   C     0.17677   0.61094   0.74141   0.00000  Uiso   1.00
C754   C     0.18804   0.47824   0.64423   0.00000  Uiso   1.00
C755   C     0.14514   0.52057   0.85622   0.00000  Uiso   1.00
C756   C     0.13635   0.52894   0.89923   0.00000  Uiso   1.00
C757   C     0.19499   0.46773   0.60241   0.00000  Uiso   1.00
C758   C     0.11619   0.57800   0.95713   0.00000  Uiso   1.00
C759   C     0.11871   0.56575   0.91794   0.00000  Uiso   1.00
C760   C     0.14810   0.50203   0.92135   0.00000  Uiso   1.00
C761   C     0.14236   0.51288   0.96229   0.00000  Uiso   1.00
C762   C     0.12951   0.55282   0.97892   0.00000  Uiso   1.00
C763   C     0.15149   0.48660   0.98684   0.00000  Uiso   1.00
C764   C     0.15820   0.50401   0.52368   0.00000  Uiso   1.00
C765   C     0.14730   0.54489   0.53822   0.00000  Uiso   1.00
C766   C     0.13134   0.56794   0.51686   0.00000  Uiso   1.00
C767   C     0.15187   0.44308   0.97672   0.00000  Uiso   1.00
C768   C     0.16754   0.41897   0.99714   0.00000  Uiso   1.00
C769   C     0.18001   0.43677   0.53037   0.00000  Uiso   1.00
C770   C     0.17409   0.47918   0.54506   0.00000  Uiso   1.00
C771   C     0.19553   0.41150   0.55055   0.00000  Uiso   1.00
C772   C     0.20242   0.42678   0.58663   0.00000  Uiso   1.00
C773   C     0.18283   0.49433   0.58125   0.00000  Uiso   1.00
H774   H     0.12212   0.59871   0.52954   0.00000  Uiso   1.00
H775   H     0.17761   0.52553   0.59511   0.00000  Uiso   1.00
H776   H     0.21100   0.40584   0.60340   0.00000  Uiso   1.00
H777   H     0.16878   0.38588   0.98741   0.00000  Uiso   1.00
H778   H     0.10502   0.60797   0.97015   0.00000  Uiso   1.00
H779   H     0.10934   0.58660   0.90163   0.00000  Uiso   1.00
H780   H     0.14930   0.55958   0.56660   0.00000  Uiso   1.00
H781   H     0.13854   0.42656   0.95382   0.00000  Uiso   1.00
H782   H     0.19997   0.37916   0.53945   0.00000  Uiso   1.00
C783   C     0.32692   0.50937   0.73776   0.00000  Uiso   1.00
H784   H     0.01656   0.52653   0.71528   0.00000  Uiso   1.00
C785   C     0.00710   0.49067   0.76210   0.00000  Uiso   1.00
H786   H     0.31817   0.47350   0.78490   0.00000  Uiso   1.00
C787   C     0.18066   0.65543   0.73825   0.00000  Uiso   1.00
H788   H     0.20765   0.33603   0.71638   0.00000  Uiso   1.00
C789   C     0.15138   0.34539   0.76204   0.00000  Uiso   1.00
H790   H     0.12401   0.66560   0.78400   0.00000  Uiso   1.00
N791   N     0.17077   0.46704   0.90136   0.00000  Uiso   1.00
O792   O     0.21124   0.46716   0.89996   0.00000  Uiso   1.00
O793   O     0.15110   0.43513   0.88437   0.00000  Uiso   1.00
Zn794  Zn    0.52577   0.47423   0.78277   0.00000  Uiso   1.00
Zn795  Zn    0.46792   0.45711   0.72257   0.00000  Uiso   1.00
Zn796  Zn    0.54500   0.52997   0.71188   0.00000  Uiso   1.00
Zn797  Zn    0.46131   0.53868   0.78277   0.00000  Uiso   1.00
O798   O     0.50000   0.50000   0.75000   0.00000  Uiso   1.00
O799   O     0.40323   0.52293   0.77820   0.00000  Uiso   1.00
O800   O     0.58773   0.48610   0.76768   0.00000  Uiso   1.00
O801   O     0.47133   0.40236   0.73607   0.00000  Uiso   1.00
O802   O     0.53771   0.58860   0.71806   0.00000  Uiso   1.00
O803   O     0.49027   0.45726   0.66625   0.00000  Uiso   1.00
O804   O     0.46020   0.53979   0.83749   0.00000  Uiso   1.00
O805   O     0.54421   0.50826   0.65877   0.00000  Uiso   1.00
O806   O     0.50532   0.49468   0.83749   0.00000  Uiso   1.00
O807   O     0.51182   0.41434   0.77820   0.00000  Uiso   1.00
O808   O     0.47914   0.59469   0.76767   0.00000  Uiso   1.00
O809   O     0.40785   0.46584   0.73607   0.00000  Uiso   1.00
O810   O     0.60119   0.52512   0.71806   0.00000  Uiso   1.00
C811   C     0.38581   0.49314   0.75877   0.00000  Uiso   1.00
C812   C     0.61430   0.50684   0.74126   0.00000  Uiso   1.00
C813   C     0.48914   0.38944   0.75892   0.00000  Uiso   1.00
C814   C     0.51010   0.61094   0.74141   0.00000  Uiso   1.00
C815   C     0.52137   0.47824   0.64423   0.00000  Uiso   1.00
C816   C     0.47847   0.52057   0.85622   0.00000  Uiso   1.00
C817   C     0.46968   0.52894   0.89923   0.00000  Uiso   1.00
C818   C     0.52832   0.46773   0.60241   0.00000  Uiso   1.00
C819   C     0.44953   0.57800   0.95713   0.00000  Uiso   1.00
C820   C     0.45205   0.56575   0.91794   0.00000  Uiso   1.00
C821   C     0.48143   0.50203   0.92135   0.00000  Uiso   1.00
C822   C     0.47569   0.51288   0.96229   0.00000  Uiso   1.00
C823   C     0.46284   0.55282   0.97892   0.00000  Uiso   1.00
C824   C     0.48482   0.48660   0.98684   0.00000  Uiso   1.00
C825   C     0.49153   0.50401   0.52368   0.00000  Uiso   1.00
C826   C     0.48064   0.54489   0.53822   0.00000  Uiso   1.00
C827   C     0.46468   0.56794   0.51686   0.00000  Uiso   1.00
C828   C     0.48520   0.44308   0.97672   0.00000  Uiso   1.00
C829   C     0.50087   0.41897   0.99714   0.00000  Uiso   1.00
C830   C     0.51334   0.43677   0.53037   0.00000  Uiso   1.00
C831   C     0.50742   0.47918   0.54506   0.00000  Uiso   1.00
C832   C     0.52886   0.41150   0.55055   0.00000  Uiso   1.00
C833   C     0.53575   0.42678   0.58663   0.00000  Uiso   1.00
C834   C     0.51616   0.49433   0.58125   0.00000  Uiso   1.00
H835   H     0.45546   0.59871   0.52954   0.00000  Uiso   1.00
H836   H     0.51095   0.52553   0.59511   0.00000  Uiso   1.00
H837   H     0.54433   0.40584   0.60340   0.00000  Uiso   1.00
H838   H     0.50211   0.38588   0.98741   0.00000  Uiso   1.00
H839   H     0.43835   0.60797   0.97015   0.00000  Uiso   1.00
H840   H     0.44268   0.58660   0.90163   0.00000  Uiso   1.00
H841   H     0.48263   0.55958   0.56660   0.00000  Uiso   1.00
H842   H     0.47187   0.42656   0.95382   0.00000  Uiso   1.00
H843   H     0.53330   0.37916   0.53945   0.00000  Uiso   1.00
C844   C     0.66026   0.50937   0.73776   0.00000  Uiso   1.00
H845   H     0.34989   0.52653   0.71528   0.00000  Uiso   1.00
C846   C     0.34043   0.49067   0.76210   0.00000  Uiso   1.00
H847   H     0.65150   0.47350   0.78490   0.00000  Uiso   1.00
C848   C     0.51399   0.65543   0.73825   0.00000  Uiso   1.00
H849   H     0.54099   0.33603   0.71638   0.00000  Uiso   1.00
C850   C     0.48471   0.34539   0.76204   0.00000  Uiso   1.00
H851   H     0.45734   0.66560   0.78400   0.00000  Uiso   1.00
N852   N     0.50410   0.46704   0.90136   0.00000  Uiso   1.00
O853   O     0.54457   0.46716   0.89996   0.00000  Uiso   1.00
O854   O     0.48443   0.43513   0.88437   0.00000  Uiso   1.00
Zn855  Zn    0.85910   0.47423   0.78277   0.00000  Uiso   1.00
Zn856  Zn    0.80125   0.45711   0.72257   0.00000  Uiso   1.00
Zn857  Zn    0.87833   0.52997   0.71188   0.00000  Uiso   1.00
Zn858  Zn    0.79465   0.53868   0.78277   0.00000  Uiso   1.00
O859   O     0.83333   0.50000   0.75000   0.00000  Uiso   1.00
O860   O     0.73656   0.52293   0.77820   0.00000  Uiso   1.00
O861   O     0.92106   0.48610   0.76768   0.00000  Uiso   1.00
O862   O     0.80467   0.40236   0.73607   0.00000  Uiso   1.00
O863   O     0.87104   0.58860   0.71806   0.00000  Uiso   1.00
O864   O     0.82360   0.45726   0.66625   0.00000  Uiso   1.00
O865   O     0.79354   0.53979   0.83749   0.00000  Uiso   1.00
O866   O     0.87755   0.50826   0.65877   0.00000  Uiso   1.00
O867   O     0.83865   0.49468   0.83749   0.00000  Uiso   1.00
O868   O     0.84515   0.41434   0.77820   0.00000  Uiso   1.00
O869   O     0.81247   0.59469   0.76767   0.00000  Uiso   1.00
O870   O     0.74119   0.46584   0.73607   0.00000  Uiso   1.00
O871   O     0.93452   0.52512   0.71806   0.00000  Uiso   1.00
C872   C     0.71914   0.49314   0.75877   0.00000  Uiso   1.00
C873   C     0.94763   0.50684   0.74126   0.00000  Uiso   1.00
C874   C     0.82247   0.38944   0.75892   0.00000  Uiso   1.00
C875   C     0.84344   0.61094   0.74141   0.00000  Uiso   1.00
C876   C     0.85470   0.47824   0.64423   0.00000  Uiso   1.00
C877   C     0.81180   0.52057   0.85622   0.00000  Uiso   1.00
C878   C     0.80301   0.52894   0.89923   0.00000  Uiso   1.00
C879   C     0.86166   0.46773   0.60241   0.00000  Uiso   1.00
C880   C     0.78286   0.57800   0.95713   0.00000  Uiso   1.00
C881   C     0.78538   0.56575   0.91794   0.00000  Uiso   1.00
C882   C     0.81476   0.50203   0.92135   0.00000  Uiso   1.00
C883   C     0.80903   0.51288   0.96229   0.00000  Uiso   1.00
C884   C     0.79618   0.55282   0.97892   0.00000  Uiso   1.00
C885   C     0.81816   0.48660   0.98684   0.00000  Uiso   1.00
C886   C     0.82486   0.50401   0.52368   0.00000  Uiso   1.00
C887   C     0.81397   0.54489   0.53822   0.00000  Uiso   1.00
C888   C     0.79801   0.56794   0.51686   0.00000  Uiso   1.00
C889   C     0.81854   0.44308   0.97672   0.00000  Uiso   1.00
C890   C     0.83420   0.41897   0.99714   0.00000  Uiso   1.00
C891   C     0.84667   0.43677   0.53037   0.00000  Uiso   1.00
C892   C     0.84076   0.47918   0.54506   0.00000  Uiso   1.00
C893   C     0.86219   0.41150   0.55055   0.00000  Uiso   1.00
C894   C     0.86909   0.42678   0.58663   0.00000  Uiso   1.00
C895   C     0.84949   0.49433   0.58125   0.00000  Uiso   1.00
H896   H     0.78879   0.59871   0.52954   0.00000  Uiso   1.00
H897   H     0.84428   0.52553   0.59511   0.00000  Uiso   1.00
H898   H     0.87766   0.40584   0.60340   0.00000  Uiso   1.00
H899   H     0.83544   0.38588   0.98741   0.00000  Uiso   1.00
H900   H     0.77169   0.60797   0.97015   0.00000  Uiso   1.00
H901   H     0.77601   0.58660   0.90163   0.00000  Uiso   1.00
H902   H     0.81596   0.55958   0.56660   0.00000  Uiso   1.00
H903   H     0.80521   0.42656   0.95382   0.00000  Uiso   1.00
H904   H     0.86664   0.37916   0.53945   0.00000  Uiso   1.00
C905   C     0.99359   0.50937   0.73776   0.00000  Uiso   1.00
H906   H     0.68322   0.52653   0.71528   0.00000  Uiso   1.00
C907   C     0.67377   0.49067   0.76210   0.00000  Uiso   1.00
H908   H     0.98483   0.47350   0.78490   0.00000  Uiso   1.00
C909   C     0.84733   0.65543   0.73825   0.00000  Uiso   1.00
H910   H     0.87432   0.33603   0.71638   0.00000  Uiso   1.00
C911   C     0.81805   0.34539   0.76204   0.00000  Uiso   1.00
H912   H     0.79068   0.66560   0.78400   0.00000  Uiso   1.00
N913   N     0.83743   0.46704   0.90136   0.00000  Uiso   1.00
O914   O     0.87790   0.46716   0.89996   0.00000  Uiso   1.00
O915   O     0.81776   0.43513   0.88437   0.00000  Uiso   1.00
Zn916  Zn    0.19244   0.80756   0.78277   0.00000  Uiso   1.00
Zn917  Zn    0.13459   0.79044   0.72257   0.00000  Uiso   1.00
Zn918  Zn    0.21166   0.86331   0.71188   0.00000  Uiso   1.00
Zn919  Zn    0.12798   0.87202   0.78277   0.00000  Uiso   1.00
O920   O     0.16667   0.83333   0.75000   0.00000  Uiso   1.00
O921   O     0.06990   0.85627   0.77820   0.00000  Uiso   1.00
O922   O     0.25440   0.81944   0.76768   0.00000  Uiso   1.00
O923   O     0.13800   0.73570   0.73607   0.00000  Uiso   1.00
O924   O     0.20437   0.92193   0.71806   0.00000  Uiso   1.00
O925   O     0.15693   0.79060   0.66625   0.00000  Uiso   1.00
O926   O     0.12687   0.87313   0.83749   0.00000  Uiso   1.00
O927   O     0.21088   0.84159   0.65877   0.00000  Uiso   1.00
O928   O     0.17198   0.82802   0.83749   0.00000  Uiso   1.00
O929   O     0.17849   0.74768   0.77820   0.00000  Uiso   1.00
O930   O     0.14581   0.92803   0.76767   0.00000  Uiso   1.00
O931   O     0.07452   0.79917   0.73607   0.00000  Uiso   1.00
O932   O     0.26785   0.85845   0.71806   0.00000  Uiso   1.00
C933   C     0.05247   0.82647   0.75877   0.00000  Uiso   1.00
C934   C     0.28096   0.84017   0.74126   0.00000  Uiso   1.00
C935   C     0.15581   0.72278   0.75892   0.00000  Uiso   1.00
C936   C     0.17677   0.94427   0.74141   0.00000  Uiso   1.00
C937   C     0.18804   0.81158   0.64423   0.00000  Uiso   1.00
C938   C     0.14514   0.85390   0.85622   0.00000  Uiso   1.00
C939   C     0.13635   0.86227   0.89923   0.00000  Uiso   1.00
C940   C     0.19499   0.80107   0.60241   0.00000  Uiso   1.00
C941   C     0.11619   0.91134   0.95713   0.00000  Uiso   1.00
C942   C     0.11871   0.89909   0.91794   0.00000  Uiso   1.00
C943   C     0.14810   0.83537   0.92135   0.00000  Uiso   1.00
C944   C     0.14236   0.84621   0.96229   0.00000  Uiso   1.00
C945   C     0.12951   0.88615   0.97892   0.00000  Uiso   1.00
C946   C     0.15149   0.81994   0.98684   0.00000  Uiso   1.00
C947   C     0.15820   0.83734   0.52368   0.00000  Uiso   1.00
C948   C     0.14730   0.87822   0.53822   0.00000  Uiso   1.00
C949   C     0.13134   0.90128   0.51686   0.00000  Uiso   1.00
C950   C     0.15187   0.77641   0.97672   0.00000  Uiso   1.00
C951   C     0.16754   0.75231   0.99714   0.00000  Uiso   1.00
C952   C     0.18001   0.77010   0.53037   0.00000  Uiso   1.00
C953   C     0.17409   0.81251   0.54506   0.00000  Uiso   1.00
C954   C     0.19553   0.74484   0.55055   0.00000  Uiso   1.00
C955   C     0.20242   0.76011   0.58663   0.00000  Uiso   1.00
C956   C     0.18283   0.82766   0.58125   0.00000  Uiso   1.00
H957   H     0.12212   0.93204   0.52954   0.00000  Uiso   1.00
H958   H     0.17761   0.85886   0.59511   0.00000  Uiso   1.00
H959   H     0.21100   0.73918   0.60340   0.00000  Uiso   1.00
H960   H     0.16878   0.71921   0.98741   0.00000  Uiso   1.00
H961   H     0.10502   0.94131   0.97015   0.00000  Uiso   1.00
H962   H     0.10934   0.91993   0.90163   0.00000  Uiso   1.00
H963   H     0.14930   0.89291   0.56660   0.00000  Uiso   1.00
H964   H     0.13854   0.75990   0.95382   0.00000  Uiso   1.00
H965   H     0.19997   0.71249   0.53945   0.00000  Uiso   1.00
C966   C     0.32692   0.84270   0.73776   0.00000  Uiso   1.00
H967   H     0.01656   0.85986   0.71528   0.00000  Uiso   1.00
C968   C     0.00710   0.82400   0.76210   0.00000  Uiso   1.00
H969   H     0.31817   0.80684   0.78490   0.00000  Uiso   1.00
C970   C     0.18066   0.98876   0.73825   0.00000  Uiso   1.00
H971   H     0.20765   0.66936   0.71638   0.00000  Uiso   1.00
C972   C     0.15138   0.67872   0.76204   0.00000  Uiso   1.00
H973   H     0.12401   0.99893   0.78400   0.00000  Uiso   1.00
N974   N     0.17077   0.80037   0.90136   0.00000  Uiso   1.00
O975   O     0.21124   0.80050   0.89996   0.00000  Uiso   1.00
O976   O     0.15110   0.76847   0.88437   0.00000  Uiso   1.00
Zn977  Zn    0.52577   0.80756   0.78277   0.00000  Uiso   1.00
Zn978  Zn    0.46792   0.79044   0.72257   0.00000  Uiso   1.00
Zn979  Zn    0.54500   0.86331   0.71188   0.00000  Uiso   1.00
Zn980  Zn    0.46131   0.87202   0.78277   0.00000  Uiso   1.00
O981   O     0.50000   0.83333   0.75000   0.00000  Uiso   1.00
O982   O     0.40323   0.85627   0.77820   0.00000  Uiso   1.00
O983   O     0.58773   0.81944   0.76768   0.00000  Uiso   1.00
O984   O     0.47133   0.73570   0.73607   0.00000  Uiso   1.00
O985   O     0.53771   0.92193   0.71806   0.00000  Uiso   1.00
O986   O     0.49027   0.79060   0.66625   0.00000  Uiso   1.00
O987   O     0.46020   0.87313   0.83749   0.00000  Uiso   1.00
O988   O     0.54421   0.84159   0.65877   0.00000  Uiso   1.00
O989   O     0.50532   0.82802   0.83749   0.00000  Uiso   1.00
O990   O     0.51182   0.74768   0.77820   0.00000  Uiso   1.00
O991   O     0.47914   0.92803   0.76767   0.00000  Uiso   1.00
O992   O     0.40785   0.79917   0.73607   0.00000  Uiso   1.00
O993   O     0.60119   0.85845   0.71806   0.00000  Uiso   1.00
C994   C     0.38581   0.82647   0.75877   0.00000  Uiso   1.00
C995   C     0.61430   0.84017   0.74126   0.00000  Uiso   1.00
C996   C     0.48914   0.72278   0.75892   0.00000  Uiso   1.00
C997   C     0.51010   0.94427   0.74141   0.00000  Uiso   1.00
C998   C     0.52137   0.81158   0.64423   0.00000  Uiso   1.00
C999   C     0.47847   0.85390   0.85622   0.00000  Uiso   1.00
C1000  C     0.46968   0.86227   0.89923   0.00000  Uiso   1.00
C1001  C     0.52832   0.80107   0.60241   0.00000  Uiso   1.00
C1002  C     0.44953   0.91134   0.95713   0.00000  Uiso   1.00
C1003  C     0.45205   0.89909   0.91794   0.00000  Uiso   1.00
C1004  C     0.48143   0.83537   0.92135   0.00000  Uiso   1.00
C1005  C     0.47569   0.84621   0.96229   0.00000  Uiso   1.00
C1006  C     0.46284   0.88615   0.97892   0.00000  Uiso   1.00
C1007  C     0.48482   0.81994   0.98684   0.00000  Uiso   1.00
C1008  C     0.49153   0.83734   0.52368   0.00000  Uiso   1.00
C1009  C     0.48064   0.87822   0.53822   0.00000  Uiso   1.00
C1010  C     0.46468   0.90128   0.51686   0.00000  Uiso   1.00
C1011  C     0.48520   0.77641   0.97672   0.00000  Uiso   1.00
C1012  C     0.50087   0.75231   0.99714   0.00000  Uiso   1.00
C1013  C     0.51334   0.77010   0.53037   0.00000  Uiso   1.00
C1014  C     0.50742   0.81251   0.54506   0.00000  Uiso   1.00
C1015  C     0.52886   0.74484   0.55055   0.00000  Uiso   1.00
C1016  C     0.53575   0.76011   0.58663   0.00000  Uiso   1.00
C1017  C     0.51616   0.82766   0.58125   0.00000  Uiso   1.00
H1018  H     0.45546   0.93204   0.52954   0.00000  Uiso   1.00
H1019  H     0.51095   0.85886   0.59511   0.00000  Uiso   1.00
H1020  H     0.54433   0.73918   0.60340   0.00000  Uiso   1.00
H1021  H     0.50211   0.71921   0.98741   0.00000  Uiso   1.00
H1022  H     0.43835   0.94131   0.97015   0.00000  Uiso   1.00
H1023  H     0.44268   0.91993   0.90163   0.00000  Uiso   1.00
H1024  H     0.48263   0.89291   0.56660   0.00000  Uiso   1.00
H1025  H     0.47187   0.75990   0.95382   0.00000  Uiso   1.00
H1026  H     0.53330   0.71249   0.53945   0.00000  Uiso   1.00
C1027  C     0.66026   0.84270   0.73776   0.00000  Uiso   1.00
H1028  H     0.34989   0.85986   0.71528   0.00000  Uiso   1.00
C1029  C     0.34043   0.82400   0.76210   0.00000  Uiso   1.00
H1030  H     0.65150   0.80684   0.78490   0.00000  Uiso   1.00
C1031  C     0.51399   0.98876   0.73825   0.00000  Uiso   1.00
H1032  H     0.54099   0.66936   0.71638   0.00000  Uiso   1.00
C1033  C     0.48471   0.67872   0.76204   0.00000  Uiso   1.00
H1034  H     0.45734   0.99893   0.78400   0.00000  Uiso   1.00
N1035  N     0.50410   0.80037   0.90136   0.00000  Uiso   1.00
O1036  O     0.54457   0.80050   0.89996   0.00000  Uiso   1.00
O1037  O     0.48443   0.76847   0.88437   0.00000  Uiso   1.00
Zn1038 Zn    0.85910   0.80756   0.78277   0.00000  Uiso   1.00
Zn1039 Zn    0.80125   0.79044   0.72257   0.00000  Uiso   1.00
Zn1040 Zn    0.87833   0.86331   0.71188   0.00000  Uiso   1.00
Zn1041 Zn    0.79465   0.87202   0.78277   0.00000  Uiso   1.00
O1042  O     0.83333   0.83333   0.75000   0.00000  Uiso   1.00
O1043  O     0.73656   0.85627   0.77820   0.00000  Uiso   1.00
O1044  O     0.92106   0.81944   0.76768   0.00000  Uiso   1.00
O1045  O     0.80467   0.73570   0.73607   0.00000  Uiso   1.00
O1046  O     0.87104   0.92193   0.71806   0.00000  Uiso   1.00
O1047  O     0.82360   0.79060   0.66625   0.00000  Uiso   1.00
O1048  O     0.79354   0.87313   0.83749   0.00000  Uiso   1.00
O1049  O     0.87755   0.84159   0.65877   0.00000  Uiso   1.00
O1050  O     0.83865   0.82802   0.83749   0.00000  Uiso   1.00
O1051  O     0.84515   0.74768   0.77820   0.00000  Uiso   1.00
O1052  O     0.81247   0.92803   0.76767   0.00000  Uiso   1.00
O1053  O     0.74119   0.79917   0.73607   0.00000  Uiso   1.00
O1054  O     0.93452   0.85845   0.71806   0.00000  Uiso   1.00
C1055  C     0.71914   0.82647   0.75877   0.00000  Uiso   1.00
C1056  C     0.94763   0.84017   0.74126   0.00000  Uiso   1.00
C1057  C     0.82247   0.72278   0.75892   0.00000  Uiso   1.00
C1058  C     0.84344   0.94427   0.74141   0.00000  Uiso   1.00
C1059  C     0.85470   0.81158   0.64423   0.00000  Uiso   1.00
C1060  C     0.81180   0.85390   0.85622   0.00000  Uiso   1.00
C1061  C     0.80301   0.86227   0.89923   0.00000  Uiso   1.00
C1062  C     0.86166   0.80107   0.60241   0.00000  Uiso   1.00
C1063  C     0.78286   0.91134   0.95713   0.00000  Uiso   1.00
C1064  C     0.78538   0.89909   0.91794   0.00000  Uiso   1.00
C1065  C     0.81476   0.83537   0.92135   0.00000  Uiso   1.00
C1066  C     0.80903   0.84621   0.96229   0.00000  Uiso   1.00
C1067  C     0.79618   0.88615   0.97892   0.00000  Uiso   1.00
C1068  C     0.81816   0.81994   0.98684   0.00000  Uiso   1.00
C1069  C     0.82486   0.83734   0.52368   0.00000  Uiso   1.00
C1070  C     0.81397   0.87822   0.53822   0.00000  Uiso   1.00
C1071  C     0.79801   0.90128   0.51686   0.00000  Uiso   1.00
C1072  C     0.81854   0.77641   0.97672   0.00000  Uiso   1.00
C1073  C     0.83420   0.75231   0.99714   0.00000  Uiso   1.00
C1074  C     0.84667   0.77010   0.53037   0.00000  Uiso   1.00
C1075  C     0.84076   0.81251   0.54506   0.00000  Uiso   1.00
C1076  C     0.86219   0.74484   0.55055   0.00000  Uiso   1.00
C1077  C     0.86909   0.76011   0.58663   0.00000  Uiso   1.00
C1078  C     0.84949   0.82766   0.58125   0.00000  Uiso   1.00
H1079  H     0.78879   0.93204   0.52954   0.00000  Uiso   1.00
H1080  H     0.84428   0.85886   0.59511   0.00000  Uiso   1.00
H1081  H     0.87766   0.73918   0.60340   0.00000  Uiso   1.00
H1082  H     0.83544   0.71921   0.98741   0.00000  Uiso   1.00
H1083  H     0.77169   0.94131   0.97015   0.00000  Uiso   1.00
H1084  H     0.77601   0.91993   0.90163   0.00000  Uiso   1.00
H1085  H     0.81596   0.89291   0.56660   0.00000  Uiso   1.00
H1086  H     0.80521   0.75990   0.95382   0.00000  Uiso   1.00
H1087  H     0.86664   0.71249   0.53945   0.00000  Uiso   1.00
C1088  C     0.99359   0.84270   0.73776   0.00000  Uiso   1.00
H1089  H     0.68322   0.85986   0.71528   0.00000  Uiso   1.00
C1090  C     0.67377   0.82400   0.76210   0.00000  Uiso   1.00
H1091  H     0.98483   0.80684   0.78490   0.00000  Uiso   1.00
C1092  C     0.84733   0.98876   0.73825   0.00000  Uiso   1.00
H1093  H     0.87432   0.66936   0.71638   0.00000  Uiso   1.00
C1094  C     0.81805   0.67872   0.76204   0.00000  Uiso   1.00
H1095  H     0.79068   0.99893   0.78400   0.00000  Uiso   1.00
N1096  N     0.83743   0.80037   0.90136   0.00000  Uiso   1.00
O1097  O     0.87790   0.80050   0.89996   0.00000  Uiso   1.00
O1098  O     0.81776   0.76847   0.88437   0.00000  Uiso   1.00
loop_
_geom_bond_atom_site_label_1
_geom_bond_atom_site_label_2
_geom_bond_distance
_geom_bond_site_symmetry_2
_ccdc_geom_bond_type
Zn1    O5      1.961   .     S
Zn1    O13     1.937   .     S
Zn1    O14     1.925   .     S
Zn1    O7      1.925   .     S
Zn2    O16     1.927   .     S
Zn2    O5      1.938   .     S
Zn2    O10     1.945   .     S
Zn2    O8      1.937   .     S
Zn3    O9      1.928   .     S
Zn3    O17     1.933   .     S
Zn3    O5      1.945   .     S
Zn3    O12     1.941   .     S
Zn4    O15     1.933   .     S
Zn4    O11     1.951   .     S
Zn4    O6      1.928   .     S
Zn4    O5      1.935   .     S
O6     C18     1.269   .     A
O7     C19     1.282   .     A
O8     C20     1.276   .     A
O9     C21     1.274   .     A
O10    C22     1.268   .     A
O11    C23     1.287   .     A
O12    C22     1.278   .     A
O13    C23     1.281   .     A
O14    C20     1.276   .     A
O15    C21     1.275   .     A
O16    C18     1.269   .     A
O17    C19     1.285   .     A
C18    C53     1.436   .     S
C19    C51     1.454   .     S
C20    C57     1.435   .     S
C21    C55     1.451   .     S
C22    C25     1.451   .     S
C23    C24     1.480   .     S
C24    C27     1.401   .     A
C24    C28     1.420   .     A
C25    C40     1.396   .     A
C25    C41     1.395   .     A
C26    C30     1.398   .     A
C26    C27     1.388   .     A
C26    H46     1.084   .     S
C27    H47     1.083   .     S
C28    C29     1.426   .     A
C28    N59     1.436   .     S
C29    C30     1.418   .     A
C29    C31     1.428   .     A
C30    C583    1.394   .     S
C31    C35     1.409   .     A
C31    C581    1.424   .     S
C32    C38     1.428   .     A
C32    C33     1.413   .     A
C32    C580    1.424   1_554 S
C33    C34     1.389   .     A
C33    H48     1.076   .     S
C34    H42     1.084   .     S
C34    C579    1.394   1_554 S
C35    H49     1.076   .     S
C35    C36     1.382   .     A
C36    H45     1.084   .     S
C36    C586    1.389   .     S
C37    C38     1.423   .     A
C37    C39     1.400   .     A
C37    C585    1.389   1_554 S
C38    C41     1.412   .     A
C39    H50     1.084   .     S
C39    C40     1.386   .     A
C40    H44     1.084   .     S
C41    H43     1.077   .     S
C51    H113    1.088   .     S
C51    C114    1.334   .     S
H52    C173    1.088   1_455 S
C53    C173    1.334   1_455 S
C53    H176    1.086   1_455 S
H54    C114    1.086   .     S
C55    H239    1.088   .     S
C55    C240    1.331   .     S
H56    C421    1.088   1_545 S
C57    C421    1.331   1_545 S
C57    H424    1.086   1_545 S
H58    C240    1.086   .     S
N59    O60     1.301   .     A
N59    O61     1.303   .     A
Zn62   O66     1.961   .     S
Zn62   O74     1.937   .     S
Zn62   O75     1.925   .     S
Zn62   O68     1.925   .     S
Zn63   O77     1.927   .     S
Zn63   O66     1.938   .     S
Zn63   O71     1.945   .     S
Zn63   O69     1.937   .     S
Zn64   O70     1.928   .     S
Zn64   O78     1.933   .     S
Zn64   O66     1.945   .     S
Zn64   O73     1.941   .     S
Zn65   O76     1.933   .     S
Zn65   O72     1.951   .     S
Zn65   O67     1.928   .     S
Zn65   O66     1.935   .     S
O67    C79     1.269   .     A
O68    C80     1.282   .     A
O69    C81     1.276   .     A
O70    C82     1.274   .     A
O71    C83     1.268   .     A
O72    C84     1.287   .     A
O73    C83     1.278   .     A
O74    C84     1.281   .     A
O75    C81     1.276   .     A
O76    C82     1.275   .     A
O77    C79     1.269   .     A
O78    C80     1.285   .     A
C79    C114    1.436   .     S
C80    C112    1.454   .     S
C81    C118    1.435   .     S
C82    C116    1.451   .     S
C83    C86     1.451   .     S
C84    C85     1.480   .     S
C85    C88     1.401   .     A
C85    C89     1.420   .     A
C86    C101    1.396   .     A
C86    C102    1.395   .     A
C87    C91     1.398   .     A
C87    C88     1.388   .     A
C87    H107    1.084   .     S
C88    H108    1.083   .     S
C89    C90     1.426   .     A
C89    N120    1.436   .     S
C90    C91     1.418   .     A
C90    C92     1.428   .     A
C91    C644    1.394   .     S
C92    C96     1.409   .     A
C92    C642    1.424   .     S
C93    C99     1.428   .     A
C93    C94     1.413   .     A
C93    C641    1.424   1_554 S
C94    C95     1.389   .     A
C94    H109    1.076   .     S
C95    H103    1.084   .     S
C95    C640    1.394   1_554 S
C96    H110    1.076   .     S
C96    C97     1.382   .     A
C97    H106    1.084   .     S
C97    C647    1.389   .     S
C98    C99     1.423   .     A
C98    C100    1.400   .     A
C98    C646    1.389   1_554 S
C99    C102    1.412   .     A
C100   H111    1.084   .     S
C100   C101    1.386   .     A
C101   H105    1.084   .     S
C102   H104    1.077   .     S
C112   H174    1.088   .     S
C112   C175    1.334   .     S
H115   C175    1.086   .     S
C116   H300    1.088   .     S
C116   C301    1.331   .     S
H117   C482    1.088   1_545 S
C118   C482    1.331   1_545 S
C118   H485    1.086   1_545 S
H119   C301    1.086   .     S
N120   O121    1.301   .     A
N120   O122    1.303   .     A
Zn123  O127    1.961   .     S
Zn123  O135    1.937   .     S
Zn123  O136    1.925   .     S
Zn123  O129    1.925   .     S
Zn124  O138    1.927   .     S
Zn124  O127    1.938   .     S
Zn124  O132    1.945   .     S
Zn124  O130    1.937   .     S
Zn125  O131    1.928   .     S
Zn125  O139    1.933   .     S
Zn125  O127    1.945   .     S
Zn125  O134    1.941   .     S
Zn126  O137    1.933   .     S
Zn126  O133    1.951   .     S
Zn126  O128    1.928   .     S
Zn126  O127    1.935   .     S
O128   C140    1.269   .     A
O129   C141    1.282   .     A
O130   C142    1.276   .     A
O131   C143    1.274   .     A
O132   C144    1.268   .     A
O133   C145    1.287   .     A
O134   C144    1.278   .     A
O135   C145    1.281   .     A
O136   C142    1.276   .     A
O137   C143    1.275   .     A
O138   C140    1.269   .     A
O139   C141    1.285   .     A
C140   C175    1.436   .     S
C141   C173    1.454   .     S
C142   C179    1.435   .     S
C143   C177    1.451   .     S
C144   C147    1.451   .     S
C145   C146    1.480   .     S
C146   C149    1.401   .     A
C146   C150    1.420   .     A
C147   C162    1.396   .     A
C147   C163    1.395   .     A
C148   C152    1.398   .     A
C148   C149    1.388   .     A
C148   H168    1.084   .     S
C149   H169    1.083   .     S
C150   C151    1.426   .     A
C150   N181    1.436   .     S
C151   C152    1.418   .     A
C151   C153    1.428   .     A
C152   C705    1.394   .     S
C153   C157    1.409   .     A
C153   C703    1.424   .     S
C154   C160    1.428   .     A
C154   C155    1.413   .     A
C154   C702    1.424   1_554 S
C155   C156    1.389   .     A
C155   H170    1.076   .     S
C156   H164    1.084   .     S
C156   C701    1.394   1_554 S
C157   H171    1.076   .     S
C157   C158    1.382   .     A
C158   H167    1.084   .     S
C158   C708    1.389   .     S
C159   C160    1.423   .     A
C159   C161    1.400   .     A
C159   C707    1.389   1_554 S
C160   C163    1.412   .     A
C161   H172    1.084   .     S
C161   C162    1.386   .     A
C162   H166    1.084   .     S
C163   H165    1.077   .     S
C173   H52     1.088   1_655 S
C173   C53     1.334   1_655 S
H176   C53     1.086   1_655 S
C177   H361    1.088   .     S
C177   C362    1.331   .     S
H178   C543    1.088   1_545 S
C179   C543    1.331   1_545 S
C179   H546    1.086   1_545 S
H180   C362    1.086   .     S
N181   O182    1.301   .     A
N181   O183    1.303   .     A
Zn184  O188    1.961   .     S
Zn184  O196    1.937   .     S
Zn184  O197    1.925   .     S
Zn184  O190    1.925   .     S
Zn185  O199    1.927   .     S
Zn185  O188    1.938   .     S
Zn185  O193    1.945   .     S
Zn185  O191    1.937   .     S
Zn186  O192    1.928   .     S
Zn186  O200    1.933   .     S
Zn186  O188    1.945   .     S
Zn186  O195    1.941   .     S
Zn187  O198    1.933   .     S
Zn187  O194    1.951   .     S
Zn187  O189    1.928   .     S
Zn187  O188    1.935   .     S
O189   C201    1.269   .     A
O190   C202    1.282   .     A
O191   C203    1.276   .     A
O192   C204    1.274   .     A
O193   C205    1.268   .     A
O194   C206    1.287   .     A
O195   C205    1.278   .     A
O196   C206    1.281   .     A
O197   C203    1.276   .     A
O198   C204    1.275   .     A
O199   C201    1.269   .     A
O200   C202    1.285   .     A
C201   C236    1.436   .     S
C202   C234    1.454   .     S
C203   C240    1.435   .     S
C204   C238    1.451   .     S
C205   C208    1.451   .     S
C206   C207    1.480   .     S
C207   C210    1.401   .     A
C207   C211    1.420   .     A
C208   C223    1.396   .     A
C208   C224    1.395   .     A
C209   C213    1.398   .     A
C209   C210    1.388   .     A
C209   H229    1.084   .     S
C210   H230    1.083   .     S
C211   C212    1.426   .     A
C211   N242    1.436   .     S
C212   C213    1.418   .     A
C212   C214    1.428   .     A
C213   C766    1.394   .     S
C214   C218    1.409   .     A
C214   C764    1.424   .     S
C215   C221    1.428   .     A
C215   C216    1.413   .     A
C215   C763    1.424   1_554 S
C216   C217    1.389   .     A
C216   H231    1.076   .     S
C217   H225    1.084   .     S
C217   C762    1.394   1_554 S
C218   H232    1.076   .     S
C218   C219    1.382   .     A
C219   H228    1.084   .     S
C219   C769    1.389   .     S
C220   C221    1.423   .     A
C220   C222    1.400   .     A
C220   C768    1.389   1_554 S
C221   C224    1.412   .     A
C222   H233    1.084   .     S
C222   C223    1.386   .     A
C223   H227    1.084   .     S
C224   H226    1.077   .     S
C234   H296    1.088   .     S
C234   C297    1.334   .     S
H235   C356    1.088   1_455 S
C236   C356    1.334   1_455 S
C236   H359    1.086   1_455 S
H237   C297    1.086   .     S
C238   H422    1.088   .     S
C238   C423    1.331   .     S
H241   C423    1.086   .     S
N242   O243    1.301   .     A
N242   O244    1.303   .     A
Zn245  O249    1.961   .     S
Zn245  O257    1.937   .     S
Zn245  O258    1.925   .     S
Zn245  O251    1.925   .     S
Zn246  O260    1.927   .     S
Zn246  O249    1.938   .     S
Zn246  O254    1.945   .     S
Zn246  O252    1.937   .     S
Zn247  O253    1.928   .     S
Zn247  O261    1.933   .     S
Zn247  O249    1.945   .     S
Zn247  O256    1.941   .     S
Zn248  O259    1.933   .     S
Zn248  O255    1.951   .     S
Zn248  O250    1.928   .     S
Zn248  O249    1.935   .     S
O250   C262    1.269   .     A
O251   C263    1.282   .     A
O252   C264    1.276   .     A
O253   C265    1.274   .     A
O254   C266    1.268   .     A
O255   C267    1.287   .     A
O256   C266    1.278   .     A
O257   C267    1.281   .     A
O258   C264    1.276   .     A
O259   C265    1.275   .     A
O260   C262    1.269   .     A
O261   C263    1.285   .     A
C262   C297    1.436   .     S
C263   C295    1.454   .     S
C264   C301    1.435   .     S
C265   C299    1.451   .     S
C266   C269    1.451   .     S
C267   C268    1.480   .     S
C268   C271    1.401   .     A
C268   C272    1.420   .     A
C269   C284    1.396   .     A
C269   C285    1.395   .     A
C270   C274    1.398   .     A
C270   C271    1.388   .     A
C270   H290    1.084   .     S
C271   H291    1.083   .     S
C272   C273    1.426   .     A
C272   N303    1.436   .     S
C273   C274    1.418   .     A
C273   C275    1.428   .     A
C274   C827    1.394   .     S
C275   C279    1.409   .     A
C275   C825    1.424   .     S
C276   C282    1.428   .     A
C276   C277    1.413   .     A
C276   C824    1.424   1_554 S
C277   C278    1.389   .     A
C277   H292    1.076   .     S
C278   H286    1.084   .     S
C278   C823    1.394   1_554 S
C279   H293    1.076   .     S
C279   C280    1.382   .     A
C280   H289    1.084   .     S
C280   C830    1.389   .     S
C281   C282    1.423   .     A
C281   C283    1.400   .     A
C281   C829    1.389   1_554 S
C282   C285    1.412   .     A
C283   H294    1.084   .     S
C283   C284    1.386   .     A
C284   H288    1.084   .     S
C285   H287    1.077   .     S
C295   H357    1.088   .     S
C295   C358    1.334   .     S
H298   C358    1.086   .     S
C299   H483    1.088   .     S
C299   C484    1.331   .     S
H302   C484    1.086   .     S
N303   O304    1.301   .     A
N303   O305    1.303   .     A
Zn306  O310    1.961   .     S
Zn306  O318    1.937   .     S
Zn306  O319    1.925   .     S
Zn306  O312    1.925   .     S
Zn307  O321    1.927   .     S
Zn307  O310    1.938   .     S
Zn307  O315    1.945   .     S
Zn307  O313    1.937   .     S
Zn308  O314    1.928   .     S
Zn308  O322    1.933   .     S
Zn308  O310    1.945   .     S
Zn308  O317    1.941   .     S
Zn309  O320    1.933   .     S
Zn309  O316    1.951   .     S
Zn309  O311    1.928   .     S
Zn309  O310    1.935   .     S
O311   C323    1.269   .     A
O312   C324    1.282   .     A
O313   C325    1.276   .     A
O314   C326    1.274   .     A
O315   C327    1.268   .     A
O316   C328    1.287   .     A
O317   C327    1.278   .     A
O318   C328    1.281   .     A
O319   C325    1.276   .     A
O320   C326    1.275   .     A
O321   C323    1.269   .     A
O322   C324    1.285   .     A
C323   C358    1.436   .     S
C324   C356    1.454   .     S
C325   C362    1.435   .     S
C326   C360    1.451   .     S
C327   C330    1.451   .     S
C328   C329    1.480   .     S
C329   C332    1.401   .     A
C329   C333    1.420   .     A
C330   C345    1.396   .     A
C330   C346    1.395   .     A
C331   C335    1.398   .     A
C331   C332    1.388   .     A
C331   H351    1.084   .     S
C332   H352    1.083   .     S
C333   C334    1.426   .     A
C333   N364    1.436   .     S
C334   C335    1.418   .     A
C334   C336    1.428   .     A
C335   C888    1.394   .     S
C336   C340    1.409   .     A
C336   C886    1.424   .     S
C337   C343    1.428   .     A
C337   C338    1.413   .     A
C337   C885    1.424   1_554 S
C338   C339    1.389   .     A
C338   H353    1.076   .     S
C339   H347    1.084   .     S
C339   C884    1.394   1_554 S
C340   H354    1.076   .     S
C340   C341    1.382   .     A
C341   H350    1.084   .     S
C341   C891    1.389   .     S
C342   C343    1.423   .     A
C342   C344    1.400   .     A
C342   C890    1.389   1_554 S
C343   C346    1.412   .     A
C344   H355    1.084   .     S
C344   C345    1.386   .     A
C345   H349    1.084   .     S
C346   H348    1.077   .     S
C356   H235    1.088   1_655 S
C356   C236    1.334   1_655 S
H359   C236    1.086   1_655 S
C360   H544    1.088   .     S
C360   C545    1.331   .     S
H363   C545    1.086   .     S
N364   O365    1.301   .     A
N364   O366    1.303   .     A
Zn367  O371    1.961   .     S
Zn367  O379    1.937   .     S
Zn367  O380    1.925   .     S
Zn367  O373    1.925   .     S
Zn368  O382    1.927   .     S
Zn368  O371    1.938   .     S
Zn368  O376    1.945   .     S
Zn368  O374    1.937   .     S
Zn369  O375    1.928   .     S
Zn369  O383    1.933   .     S
Zn369  O371    1.945   .     S
Zn369  O378    1.941   .     S
Zn370  O381    1.933   .     S
Zn370  O377    1.951   .     S
Zn370  O372    1.928   .     S
Zn370  O371    1.935   .     S
O372   C384    1.269   .     A
O373   C385    1.282   .     A
O374   C386    1.276   .     A
O375   C387    1.274   .     A
O376   C388    1.268   .     A
O377   C389    1.287   .     A
O378   C388    1.278   .     A
O379   C389    1.281   .     A
O380   C386    1.276   .     A
O381   C387    1.275   .     A
O382   C384    1.269   .     A
O383   C385    1.285   .     A
C384   C419    1.436   .     S
C385   C417    1.454   .     S
C386   C423    1.435   .     S
C387   C421    1.451   .     S
C388   C391    1.451   .     S
C389   C390    1.480   .     S
C390   C393    1.401   .     A
C390   C394    1.420   .     A
C391   C406    1.396   .     A
C391   C407    1.395   .     A
C392   C396    1.398   .     A
C392   C393    1.388   .     A
C392   H412    1.084   .     S
C393   H413    1.083   .     S
C394   C395    1.426   .     A
C394   N425    1.436   .     S
C395   C396    1.418   .     A
C395   C397    1.428   .     A
C396   C949    1.394   .     S
C397   C401    1.409   .     A
C397   C947    1.424   .     S
C398   C404    1.428   .     A
C398   C399    1.413   .     A
C398   C946    1.424   1_554 S
C399   C400    1.389   .     A
C399   H414    1.076   .     S
C400   H408    1.084   .     S
C400   C945    1.394   1_554 S
C401   H415    1.076   .     S
C401   C402    1.382   .     A
C402   H411    1.084   .     S
C402   C952    1.389   .     S
C403   C404    1.423   .     A
C403   C405    1.400   .     A
C403   C951    1.389   1_554 S
C404   C407    1.412   .     A
C405   H416    1.084   .     S
C405   C406    1.386   .     A
C406   H410    1.084   .     S
C407   H409    1.077   .     S
C417   H479    1.088   .     S
C417   C480    1.334   .     S
H418   C539    1.088   1_455 S
C419   C539    1.334   1_455 S
C419   H542    1.086   1_455 S
H420   C480    1.086   .     S
C421   H56     1.088   1_565 S
C421   C57     1.331   1_565 S
H424   C57     1.086   1_565 S
N425   O426    1.301   .     A
N425   O427    1.303   .     A
Zn428  O432    1.961   .     S
Zn428  O440    1.937   .     S
Zn428  O441    1.925   .     S
Zn428  O434    1.925   .     S
Zn429  O443    1.927   .     S
Zn429  O432    1.938   .     S
Zn429  O437    1.945   .     S
Zn429  O435    1.937   .     S
Zn430  O436    1.928   .     S
Zn430  O444    1.933   .     S
Zn430  O432    1.945   .     S
Zn430  O439    1.941   .     S
Zn431  O442    1.933   .     S
Zn431  O438    1.951   .     S
Zn431  O433    1.928   .     S
Zn431  O432    1.935   .     S
O433   C445    1.269   .     A
O434   C446    1.282   .     A
O435   C447    1.276   .     A
O436   C448    1.274   .     A
O437   C449    1.268   .     A
O438   C450    1.287   .     A
O439   C449    1.278   .     A
O440   C450    1.281   .     A
O441   C447    1.276   .     A
O442   C448    1.275   .     A
O443   C445    1.269   .     A
O444   C446    1.285   .     A
C445   C480    1.436   .     S
C446   C478    1.454   .     S
C447   C484    1.435   .     S
C448   C482    1.451   .     S
C449   C452    1.451   .     S
C450   C451    1.480   .     S
C451   C454    1.401   .     A
C451   C455    1.420   .     A
C452   C467    1.396   .     A
C452   C468    1.395   .     A
C453   C457    1.398   .     A
C453   C454    1.388   .     A
C453   H473    1.084   .     S
C454   H474    1.083   .     S
C455   C456    1.426   .     A
C455   N486    1.436   .     S
C456   C457    1.418   .     A
C456   C458    1.428   .     A
C457   C1010   1.394   .     S
C458   C462    1.409   .     A
C458   C1008   1.424   .     S
C459   C465    1.428   .     A
C459   C460    1.413   .     A
C459   C1007   1.424   1_554 S
C460   C461    1.389   .     A
C460   H475    1.076   .     S
C461   H469    1.084   .     S
C461   C1006   1.394   1_554 S
C462   H476    1.076   .     S
C462   C463    1.382   .     A
C463   H472    1.084   .     S
C463   C1013   1.389   .     S
C464   C465    1.423   .     A
C464   C466    1.400   .     A
C464   C1012   1.389   1_554 S
C465   C468    1.412   .     A
C466   H477    1.084   .     S
C466   C467    1.386   .     A
C467   H471    1.084   .     S
C468   H470    1.077   .     S
C478   H540    1.088   .     S
C478   C541    1.334   .     S
H481   C541    1.086   .     S
C482   H117    1.088   1_565 S
C482   C118    1.331   1_565 S
H485   C118    1.086   1_565 S
N486   O487    1.301   .     A
N486   O488    1.303   .     A
Zn489  O493    1.961   .     S
Zn489  O501    1.937   .     S
Zn489  O502    1.925   .     S
Zn489  O495    1.925   .     S
Zn490  O504    1.927   .     S
Zn490  O493    1.938   .     S
Zn490  O498    1.945   .     S
Zn490  O496    1.937   .     S
Zn491  O497    1.928   .     S
Zn491  O505    1.933   .     S
Zn491  O493    1.945   .     S
Zn491  O500    1.941   .     S
Zn492  O503    1.933   .     S
Zn492  O499    1.951   .     S
Zn492  O494    1.928   .     S
Zn492  O493    1.935   .     S
O494   C506    1.269   .     A
O495   C507    1.282   .     A
O496   C508    1.276   .     A
O497   C509    1.274   .     A
O498   C510    1.268   .     A
O499   C511    1.287   .     A
O500   C510    1.278   .     A
O501   C511    1.281   .     A
O502   C508    1.276   .     A
O503   C509    1.275   .     A
O504   C506    1.269   .     A
O505   C507    1.285   .     A
C506   C541    1.436   .     S
C507   C539    1.454   .     S
C508   C545    1.435   .     S
C509   C543    1.451   .     S
C510   C513    1.451   .     S
C511   C512    1.480   .     S
C512   C515    1.401   .     A
C512   C516    1.420   .     A
C513   C528    1.396   .     A
C513   C529    1.395   .     A
C514   C518    1.398   .     A
C514   C515    1.388   .     A
C514   H534    1.084   .     S
C515   H535    1.083   .     S
C516   C517    1.426   .     A
C516   N547    1.436   .     S
C517   C518    1.418   .     A
C517   C519    1.428   .     A
C518   C1071   1.394   .     S
C519   C523    1.409   .     A
C519   C1069   1.424   .     S
C520   C526    1.428   .     A
C520   C521    1.413   .     A
C520   C1068   1.424   1_554 S
C521   C522    1.389   .     A
C521   H536    1.076   .     S
C522   H530    1.084   .     S
C522   C1067   1.394   1_554 S
C523   H537    1.076   .     S
C523   C524    1.382   .     A
C524   H533    1.084   .     S
C524   C1074   1.389   .     S
C525   C526    1.423   .     A
C525   C527    1.400   .     A
C525   C1073   1.389   1_554 S
C526   C529    1.412   .     A
C527   H538    1.084   .     S
C527   C528    1.386   .     A
C528   H532    1.084   .     S
C529   H531    1.077   .     S
C539   H418    1.088   1_655 S
C539   C419    1.334   1_655 S
H542   C419    1.086   1_655 S
C543   H178    1.088   1_565 S
C543   C179    1.331   1_565 S
H546   C179    1.086   1_565 S
N547   O548    1.301   .     A
N547   O549    1.303   .     A
Zn550  O554    1.961   .     S
Zn550  O562    1.937   .     S
Zn550  O563    1.925   .     S
Zn550  O556    1.925   .     S
Zn551  O565    1.927   .     S
Zn551  O554    1.938   .     S
Zn551  O559    1.945   .     S
Zn551  O557    1.937   .     S
Zn552  O558    1.928   .     S
Zn552  O566    1.933   .     S
Zn552  O554    1.945   .     S
Zn552  O561    1.941   .     S
Zn553  O564    1.933   .     S
Zn553  O560    1.951   .     S
Zn553  O555    1.928   .     S
Zn553  O554    1.935   .     S
O555   C567    1.269   .     A
O556   C568    1.282   .     A
O557   C569    1.276   .     A
O558   C570    1.274   .     A
O559   C571    1.268   .     A
O560   C572    1.287   .     A
O561   C571    1.278   .     A
O562   C572    1.281   .     A
O563   C569    1.276   .     A
O564   C570    1.275   .     A
O565   C567    1.269   .     A
O566   C568    1.285   .     A
C567   C602    1.436   .     S
C568   C600    1.454   .     S
C569   C606    1.435   .     S
C570   C604    1.451   .     S
C571   C574    1.451   .     S
C572   C573    1.480   .     S
C573   C576    1.401   .     A
C573   C577    1.420   .     A
C574   C589    1.396   .     A
C574   C590    1.395   .     A
C575   C579    1.398   .     A
C575   C576    1.388   .     A
C575   H595    1.084   .     S
C576   H596    1.083   .     S
C577   C578    1.426   .     A
C577   N608    1.436   .     S
C578   C579    1.418   .     A
C578   C580    1.428   .     A
C579   C34     1.394   1_556 S
C580   C584    1.409   .     A
C580   C32     1.424   1_556 S
C581   C587    1.428   .     A
C581   C582    1.413   .     A
C582   C583    1.389   .     A
C582   H597    1.076   .     S
C583   H591    1.084   .     S
C584   H598    1.076   .     S
C584   C585    1.382   .     A
C585   H594    1.084   .     S
C585   C37     1.389   1_556 S
C586   C587    1.423   .     A
C586   C588    1.400   .     A
C587   C590    1.412   .     A
C588   H599    1.084   .     S
C588   C589    1.386   .     A
C589   H593    1.084   .     S
C590   H592    1.077   .     S
C600   H662    1.088   .     S
C600   C663    1.334   .     S
H601   C722    1.088   1_455 S
C602   C722    1.334   1_455 S
C602   H725    1.086   1_455 S
H603   C663    1.086   .     S
C604   H788    1.088   .     S
C604   C789    1.331   .     S
H605   C970    1.088   1_545 S
C606   C970    1.331   1_545 S
C606   H973    1.086   1_545 S
H607   C789    1.086   .     S
N608   O609    1.301   .     A
N608   O610    1.303   .     A
Zn611  O615    1.961   .     S
Zn611  O623    1.937   .     S
Zn611  O624    1.925   .     S
Zn611  O617    1.925   .     S
Zn612  O626    1.927   .     S
Zn612  O615    1.938   .     S
Zn612  O620    1.945   .     S
Zn612  O618    1.937   .     S
Zn613  O619    1.928   .     S
Zn613  O627    1.933   .     S
Zn613  O615    1.945   .     S
Zn613  O622    1.941   .     S
Zn614  O625    1.933   .     S
Zn614  O621    1.951   .     S
Zn614  O616    1.928   .     S
Zn614  O615    1.935   .     S
O616   C628    1.269   .     A
O617   C629    1.282   .     A
O618   C630    1.276   .     A
O619   C631    1.274   .     A
O620   C632    1.268   .     A
O621   C633    1.287   .     A
O622   C632    1.278   .     A
O623   C633    1.281   .     A
O624   C630    1.276   .     A
O625   C631    1.275   .     A
O626   C628    1.269   .     A
O627   C629    1.285   .     A
C628   C663    1.436   .     S
C629   C661    1.454   .     S
C630   C667    1.435   .     S
C631   C665    1.451   .     S
C632   C635    1.451   .     S
C633   C634    1.480   .     S
C634   C637    1.401   .     A
C634   C638    1.420   .     A
C635   C650    1.396   .     A
C635   C651    1.395   .     A
C636   C640    1.398   .     A
C636   C637    1.388   .     A
C636   H656    1.084   .     S
C637   H657    1.083   .     S
C638   C639    1.426   .     A
C638   N669    1.436   .     S
C639   C640    1.418   .     A
C639   C641    1.428   .     A
C640   C95     1.394   1_556 S
C641   C645    1.409   .     A
C641   C93     1.424   1_556 S
C642   C648    1.428   .     A
C642   C643    1.413   .     A
C643   C644    1.389   .     A
C643   H658    1.076   .     S
C644   H652    1.084   .     S
C645   H659    1.076   .     S
C645   C646    1.382   .     A
C646   H655    1.084   .     S
C646   C98     1.389   1_556 S
C647   C648    1.423   .     A
C647   C649    1.400   .     A
C648   C651    1.412   .     A
C649   H660    1.084   .     S
C649   C650    1.386   .     A
C650   H654    1.084   .     S
C651   H653    1.077   .     S
C661   H723    1.088   .     S
C661   C724    1.334   .     S
H664   C724    1.086   .     S
C665   H849    1.088   .     S
C665   C850    1.331   .     S
H666   C1031   1.088   1_545 S
C667   C1031   1.331   1_545 S
C667   H1034   1.086   1_545 S
H668   C850    1.086   .     S
N669   O670    1.301   .     A
N669   O671    1.303   .     A
Zn672  O676    1.961   .     S
Zn672  O684    1.937   .     S
Zn672  O685    1.925   .     S
Zn672  O678    1.925   .     S
Zn673  O687    1.927   .     S
Zn673  O676    1.938   .     S
Zn673  O681    1.945   .     S
Zn673  O679    1.937   .     S
Zn674  O680    1.928   .     S
Zn674  O688    1.933   .     S
Zn674  O676    1.945   .     S
Zn674  O683    1.941   .     S
Zn675  O686    1.933   .     S
Zn675  O682    1.951   .     S
Zn675  O677    1.928   .     S
Zn675  O676    1.935   .     S
O677   C689    1.269   .     A
O678   C690    1.282   .     A
O679   C691    1.276   .     A
O680   C692    1.274   .     A
O681   C693    1.268   .     A
O682   C694    1.287   .     A
O683   C693    1.278   .     A
O684   C694    1.281   .     A
O685   C691    1.276   .     A
O686   C692    1.275   .     A
O687   C689    1.269   .     A
O688   C690    1.285   .     A
C689   C724    1.436   .     S
C690   C722    1.454   .     S
C691   C728    1.435   .     S
C692   C726    1.451   .     S
C693   C696    1.451   .     S
C694   C695    1.480   .     S
C695   C698    1.401   .     A
C695   C699    1.420   .     A
C696   C711    1.396   .     A
C696   C712    1.395   .     A
C697   C701    1.398   .     A
C697   C698    1.388   .     A
C697   H717    1.084   .     S
C698   H718    1.083   .     S
C699   C700    1.426   .     A
C699   N730    1.436   .     S
C700   C701    1.418   .     A
C700   C702    1.428   .     A
C701   C156    1.394   1_556 S
C702   C706    1.409   .     A
C702   C154    1.424   1_556 S
C703   C709    1.428   .     A
C703   C704    1.413   .     A
C704   C705    1.389   .     A
C704   H719    1.076   .     S
C705   H713    1.084   .     S
C706   H720    1.076   .     S
C706   C707    1.382   .     A
C707   H716    1.084   .     S
C707   C159    1.389   1_556 S
C708   C709    1.423   .     A
C708   C710    1.400   .     A
C709   C712    1.412   .     A
C710   H721    1.084   .     S
C710   C711    1.386   .     A
C711   H715    1.084   .     S
C712   H714    1.077   .     S
C722   H601    1.088   1_655 S
C722   C602    1.334   1_655 S
H725   C602    1.086   1_655 S
C726   H910    1.088   .     S
C726   C911    1.331   .     S
H727   C1092   1.088   1_545 S
C728   C1092   1.331   1_545 S
C728   H1095   1.086   1_545 S
H729   C911    1.086   .     S
N730   O731    1.301   .     A
N730   O732    1.303   .     A
Zn733  O737    1.961   .     S
Zn733  O745    1.937   .     S
Zn733  O746    1.925   .     S
Zn733  O739    1.925   .     S
Zn734  O748    1.927   .     S
Zn734  O737    1.938   .     S
Zn734  O742    1.945   .     S
Zn734  O740    1.937   .     S
Zn735  O741    1.928   .     S
Zn735  O749    1.933   .     S
Zn735  O737    1.945   .     S
Zn735  O744    1.941   .     S
Zn736  O747    1.933   .     S
Zn736  O743    1.951   .     S
Zn736  O738    1.928   .     S
Zn736  O737    1.935   .     S
O738   C750    1.269   .     A
O739   C751    1.282   .     A
O740   C752    1.276   .     A
O741   C753    1.274   .     A
O742   C754    1.268   .     A
O743   C755    1.287   .     A
O744   C754    1.278   .     A
O745   C755    1.281   .     A
O746   C752    1.276   .     A
O747   C753    1.275   .     A
O748   C750    1.269   .     A
O749   C751    1.285   .     A
C750   C785    1.436   .     S
C751   C783    1.454   .     S
C752   C789    1.435   .     S
C753   C787    1.451   .     S
C754   C757    1.451   .     S
C755   C756    1.480   .     S
C756   C759    1.401   .     A
C756   C760    1.420   .     A
C757   C772    1.396   .     A
C757   C773    1.395   .     A
C758   C762    1.398   .     A
C758   C759    1.388   .     A
C758   H778    1.084   .     S
C759   H779    1.083   .     S
C760   C761    1.426   .     A
C760   N791    1.436   .     S
C761   C762    1.418   .     A
C761   C763    1.428   .     A
C762   C217    1.394   1_556 S
C763   C767    1.409   .     A
C763   C215    1.424   1_556 S
C764   C770    1.428   .     A
C764   C765    1.413   .     A
C765   C766    1.389   .     A
C765   H780    1.076   .     S
C766   H774    1.084   .     S
C767   H781    1.076   .     S
C767   C768    1.382   .     A
C768   H777    1.084   .     S
C768   C220    1.389   1_556 S
C769   C770    1.423   .     A
C769   C771    1.400   .     A
C770   C773    1.412   .     A
C771   H782    1.084   .     S
C771   C772    1.386   .     A
C772   H776    1.084   .     S
C773   H775    1.077   .     S
C783   H845    1.088   .     S
C783   C846    1.334   .     S
H784   C905    1.088   1_455 S
C785   C905    1.334   1_455 S
C785   H908    1.086   1_455 S
H786   C846    1.086   .     S
C787   H971    1.088   .     S
C787   C972    1.331   .     S
H790   C972    1.086   .     S
N791   O792    1.301   .     A
N791   O793    1.303   .     A
Zn794  O798    1.961   .     S
Zn794  O806    1.937   .     S
Zn794  O807    1.925   .     S
Zn794  O800    1.925   .     S
Zn795  O809    1.927   .     S
Zn795  O798    1.938   .     S
Zn795  O803    1.945   .     S
Zn795  O801    1.937   .     S
Zn796  O802    1.928   .     S
Zn796  O810    1.933   .     S
Zn796  O798    1.945   .     S
Zn796  O805    1.941   .     S
Zn797  O808    1.933   .     S
Zn797  O804    1.951   .     S
Zn797  O799    1.928   .     S
Zn797  O798    1.935   .     S
O799   C811    1.269   .     A
O800   C812    1.282   .     A
O801   C813    1.276   .     A
O802   C814    1.274   .     A
O803   C815    1.268   .     A
O804   C816    1.287   .     A
O805   C815    1.278   .     A
O806   C816    1.281   .     A
O807   C813    1.276   .     A
O808   C814    1.275   .     A
O809   C811    1.269   .     A
O810   C812    1.285   .     A
C811   C846    1.436   .     S
C812   C844    1.454   .     S
C813   C850    1.435   .     S
C814   C848    1.451   .     S
C815   C818    1.451   .     S
C816   C817    1.480   .     S
C817   C820    1.401   .     A
C817   C821    1.420   .     A
C818   C833    1.396   .     A
C818   C834    1.395   .     A
C819   C823    1.398   .     A
C819   C820    1.388   .     A
C819   H839    1.084   .     S
C820   H840    1.083   .     S
C821   C822    1.426   .     A
C821   N852    1.436   .     S
C822   C823    1.418   .     A
C822   C824    1.428   .     A
C823   C278    1.394   1_556 S
C824   C828    1.409   .     A
C824   C276    1.424   1_556 S
C825   C831    1.428   .     A
C825   C826    1.413   .     A
C826   C827    1.389   .     A
C826   H841    1.076   .     S
C827   H835    1.084   .     S
C828   H842    1.076   .     S
C828   C829    1.382   .     A
C829   H838    1.084   .     S
C829   C281    1.389   1_556 S
C830   C831    1.423   .     A
C830   C832    1.400   .     A
C831   C834    1.412   .     A
C832   H843    1.084   .     S
C832   C833    1.386   .     A
C833   H837    1.084   .     S
C834   H836    1.077   .     S
C844   H906    1.088   .     S
C844   C907    1.334   .     S
H847   C907    1.086   .     S
C848   H1032   1.088   .     S
C848   C1033   1.331   .     S
H851   C1033   1.086   .     S
N852   O853    1.301   .     A
N852   O854    1.303   .     A
Zn855  O859    1.961   .     S
Zn855  O867    1.937   .     S
Zn855  O868    1.925   .     S
Zn855  O861    1.925   .     S
Zn856  O870    1.927   .     S
Zn856  O859    1.938   .     S
Zn856  O864    1.945   .     S
Zn856  O862    1.937   .     S
Zn857  O863    1.928   .     S
Zn857  O871    1.933   .     S
Zn857  O859    1.945   .     S
Zn857  O866    1.941   .     S
Zn858  O869    1.933   .     S
Zn858  O865    1.951   .     S
Zn858  O860    1.928   .     S
Zn858  O859    1.935   .     S
O860   C872    1.269   .     A
O861   C873    1.282   .     A
O862   C874    1.276   .     A
O863   C875    1.274   .     A
O864   C876    1.268   .     A
O865   C877    1.287   .     A
O866   C876    1.278   .     A
O867   C877    1.281   .     A
O868   C874    1.276   .     A
O869   C875    1.275   .     A
O870   C872    1.269   .     A
O871   C873    1.285   .     A
C872   C907    1.436   .     S
C873   C905    1.454   .     S
C874   C911    1.435   .     S
C875   C909    1.451   .     S
C876   C879    1.451   .     S
C877   C878    1.480   .     S
C878   C881    1.401   .     A
C878   C882    1.420   .     A
C879   C894    1.396   .     A
C879   C895    1.395   .     A
C880   C884    1.398   .     A
C880   C881    1.388   .     A
C880   H900    1.084   .     S
C881   H901    1.083   .     S
C882   C883    1.426   .     A
C882   N913    1.436   .     S
C883   C884    1.418   .     A
C883   C885    1.428   .     A
C884   C339    1.394   1_556 S
C885   C889    1.409   .     A
C885   C337    1.424   1_556 S
C886   C892    1.428   .     A
C886   C887    1.413   .     A
C887   C888    1.389   .     A
C887   H902    1.076   .     S
C888   H896    1.084   .     S
C889   H903    1.076   .     S
C889   C890    1.382   .     A
C890   H899    1.084   .     S
C890   C342    1.389   1_556 S
C891   C892    1.423   .     A
C891   C893    1.400   .     A
C892   C895    1.412   .     A
C893   H904    1.084   .     S
C893   C894    1.386   .     A
C894   H898    1.084   .     S
C895   H897    1.077   .     S
C905   H784    1.088   1_655 S
C905   C785    1.334   1_655 S
H908   C785    1.086   1_655 S
C909   H1093   1.088   .     S
C909   C1094   1.331   .     S
H912   C1094   1.086   .     S
N913   O914    1.301   .     A
N913   O915    1.303   .     A
Zn916  O920    1.961   .     S
Zn916  O928    1.937   .     S
Zn916  O929    1.925   .     S
Zn916  O922    1.925   .     S
Zn917  O931    1.927   .     S
Zn917  O920    1.938   .     S
Zn917  O925    1.945   .     S
Zn917  O923    1.937   .     S
Zn918  O924    1.928   .     S
Zn918  O932    1.933   .     S
Zn918  O920    1.945   .     S
Zn918  O927    1.941   .     S
Zn919  O930    1.933   .     S
Zn919  O926    1.951   .     S
Zn919  O921    1.928   .     S
Zn919  O920    1.935   .     S
O921   C933    1.269   .     A
O922   C934    1.282   .     A
O923   C935    1.276   .     A
O924   C936    1.274   .     A
O925   C937    1.268   .     A
O926   C938    1.287   .     A
O927   C937    1.278   .     A
O928   C938    1.281   .     A
O929   C935    1.276   .     A
O930   C936    1.275   .     A
O931   C933    1.269   .     A
O932   C934    1.285   .     A
C933   C968    1.436   .     S
C934   C966    1.454   .     S
C935   C972    1.435   .     S
C936   C970    1.451   .     S
C937   C940    1.451   .     S
C938   C939    1.480   .     S
C939   C942    1.401   .     A
C939   C943    1.420   .     A
C940   C955    1.396   .     A
C940   C956    1.395   .     A
C941   C945    1.398   .     A
C941   C942    1.388   .     A
C941   H961    1.084   .     S
C942   H962    1.083   .     S
C943   C944    1.426   .     A
C943   N974    1.436   .     S
C944   C945    1.418   .     A
C944   C946    1.428   .     A
C945   C400    1.394   1_556 S
C946   C950    1.409   .     A
C946   C398    1.424   1_556 S
C947   C953    1.428   .     A
C947   C948    1.413   .     A
C948   C949    1.389   .     A
C948   H963    1.076   .     S
C949   H957    1.084   .     S
C950   H964    1.076   .     S
C950   C951    1.382   .     A
C951   H960    1.084   .     S
C951   C403    1.389   1_556 S
C952   C953    1.423   .     A
C952   C954    1.400   .     A
C953   C956    1.412   .     A
C954   H965    1.084   .     S
C954   C955    1.386   .     A
C955   H959    1.084   .     S
C956   H958    1.077   .     S
C966   H1028   1.088   .     S
C966   C1029   1.334   .     S
H967   C1088   1.088   1_455 S
C968   C1088   1.334   1_455 S
C968   H1091   1.086   1_455 S
H969   C1029   1.086   .     S
C970   H605    1.088   1_565 S
C970   C606    1.331   1_565 S
H973   C606    1.086   1_565 S
N974   O975    1.301   .     A
N974   O976    1.303   .     A
Zn977  O981    1.961   .     S
Zn977  O989    1.937   .     S
Zn977  O990    1.925   .     S
Zn977  O983    1.925   .     S
Zn978  O992    1.927   .     S
Zn978  O981    1.938   .     S
Zn978  O986    1.945   .     S
Zn978  O984    1.937   .     S
Zn979  O985    1.928   .     S
Zn979  O993    1.933   .     S
Zn979  O981    1.945   .     S
Zn979  O988    1.941   .     S
Zn980  O991    1.933   .     S
Zn980  O987    1.951   .     S
Zn980  O982    1.928   .     S
Zn980  O981    1.935   .     S
O982   C994    1.269   .     A
O983   C995    1.282   .     A
O984   C996    1.276   .     A
O985   C997    1.274   .     A
O986   C998    1.268   .     A
O987   C999    1.287   .     A
O988   C998    1.278   .     A
O989   C999    1.281   .     A
O990   C996    1.276   .     A
O991   C997    1.275   .     A
O992   C994    1.269   .     A
O993   C995    1.285   .     A
C994   C1029   1.436   .     S
C995   C1027   1.454   .     S
C996   C1033   1.435   .     S
C997   C1031   1.451   .     S
C998   C1001   1.451   .     S
C999   C1000   1.480   .     S
C1000  C1003   1.401   .     A
C1000  C1004   1.420   .     A
C1001  C1016   1.396   .     A
C1001  C1017   1.395   .     A
C1002  C1006   1.398   .     A
C1002  C1003   1.388   .     A
C1002  H1022   1.084   .     S
C1003  H1023   1.083   .     S
C1004  C1005   1.426   .     A
C1004  N1035   1.436   .     S
C1005  C1006   1.418   .     A
C1005  C1007   1.428   .     A
C1006  C461    1.394   1_556 S
C1007  C1011   1.409   .     A
C1007  C459    1.424   1_556 S
C1008  C1014   1.428   .     A
C1008  C1009   1.413   .     A
C1009  C1010   1.389   .     A
C1009  H1024   1.076   .     S
C1010  H1018   1.084   .     S
C1011  H1025   1.076   .     S
C1011  C1012   1.382   .     A
C1012  H1021   1.084   .     S
C1012  C464    1.389   1_556 S
C1013  C1014   1.423   .     A
C1013  C1015   1.400   .     A
C1014  C1017   1.412   .     A
C1015  H1026   1.084   .     S
C1015  C1016   1.386   .     A
C1016  H1020   1.084   .     S
C1017  H1019   1.077   .     S
C1027  H1089   1.088   .     S
C1027  C1090   1.334   .     S
H1030  C1090   1.086   .     S
C1031  H666    1.088   1_565 S
C1031  C667    1.331   1_565 S
H1034  C667    1.086   1_565 S
N1035  O1036   1.301   .     A
N1035  O1037   1.303   .     A
Zn1038 O1042   1.961   .     S
Zn1038 O1050   1.937   .     S
Zn1038 O1051   1.925   .     S
Zn1038 O1044   1.925   .     S
Zn1039 O1053   1.927   .     S
Zn1039 O1042   1.938   .     S
Zn1039 O1047   1.945   .     S
Zn1039 O1045   1.937   .     S
Zn1040 O1046   1.928   .     S
Zn1040 O1054   1.933   .     S
Zn1040 O1042   1.945   .     S
Zn1040 O1049   1.941   .     S
Zn1041 O1052   1.933   .     S
Zn1041 O1048   1.951   .     S
Zn1041 O1043   1.928   .     S
Zn1041 O1042   1.935   .     S
O1043  C1055   1.269   .     A
O1044  C1056   1.282   .     A
O1045  C1057   1.276   .     A
O1046  C1058   1.274   .     A
O1047  C1059   1.268   .     A
O1048  C1060   1.287   .     A
O1049  C1059   1.278   .     A
O1050  C1060   1.281   .     A
O1051  C1057   1.276   .     A
O1052  C1058   1.275   .     A
O1053  C1055   1.269   .     A
O1054  C1056   1.285   .     A
C1055  C1090   1.436   .     S
C1056  C1088   1.454   .     S
C1057  C1094   1.435   .     S
C1058  C1092   1.451   .     S
C1059  C1062   1.451   .     S
C1060  C1061   1.480   .     S
C1061  C1064   1.401   .     A
C1061  C1065   1.420   .     A
C1062  C1077   1.396   .     A
C1062  C1078   1.395   .     A
C1063  C1067   1.398   .     A
C1063  C1064   1.388   .     A
C1063  H1083   1.084   .     S
C1064  H1084   1.083   .     S
C1065  C1066   1.426   .     A
C1065  N1096   1.436   .     S
C1066  C1067   1.418   .     A
C1066  C1068   1.428   .     A
C1067  C522    1.394   1_556 S
C1068  C1072   1.409   .     A
C1068  C520    1.424   1_556 S
C1069  C1075   1.428   .     A
C1069  C1070   1.413   .     A
C1070  C1071   1.389   .     A
C1070  H1085   1.076   .     S
C1071  H1079   1.084   .     S
C1072  H1086   1.076   .     S
C1072  C1073   1.382   .     A
C1073  H1082   1.084   .     S
C1073  C525    1.389   1_556 S
C1074  C1075   1.423   .     A
C1074  C1076   1.400   .     A
C1075  C1078   1.412   .     A
C1076  H1087   1.084   .     S
C1076  C1077   1.386   .     A
C1077  H1081   1.084   .     S
C1078  H1080   1.077   .     S
C1088  H967    1.088   1_655 S
C1088  C968    1.334   1_655 S
H1091  C968    1.086   1_655 S
C1092  H727    1.088   1_565 S
C1092  C728    1.331   1_565 S
H1095  C728    1.086   1_565 S
N1096  O1097   1.301   .     A
N1096  O1098   1.303   .     A
