data_str_m1_o10_o16_pcu_sym.254
_audit_creation_date              2020-01-03
_audit_creation_method            'Materials Studio'
_symmetry_space_group_name_H-M    'P1'
_symmetry_Int_Tables_number       1
_symmetry_cell_setting            triclinic
loop_
_symmetry_equiv_pos_as_xyz
  x,y,z
_cell_length_a                    32.6190
_cell_length_b                    32.4902
_cell_length_c                    31.0876
_cell_angle_alpha                 95.9948
_cell_angle_beta                  74.5050
_cell_angle_gamma                 98.3188
loop_
_atom_site_label
_atom_site_type_symbol
_atom_site_fract_x
_atom_site_fract_y
_atom_site_fract_z
_atom_site_U_iso_or_equiv
_atom_site_adp_type
_atom_site_occupancy
C1     C     0.05296   0.15999   0.25976   0.00000  Uiso   1.00
C2     C     0.16600   0.15319   0.05951   0.00000  Uiso   1.00
C3     C     0.23662   0.13630   0.05690   0.00000  Uiso   1.00
C4     C     0.28080   0.17376   0.24004   0.00000  Uiso   1.00
C5     C     0.13856   0.18953   0.42012   0.00000  Uiso   1.00
C6     C     0.32659   0.17587   0.23586   0.00000  Uiso   1.00
C7     C     0.00771   0.15747   0.26460   0.00000  Uiso   1.00
C8     C     0.18054   0.32255   0.23625   0.00000  Uiso   1.00
C9     C     0.15229   0.01181   0.26409   0.00000  Uiso   1.00
C10    C     0.15633   0.05592   0.26019   0.00000  Uiso   1.00
C11    C     0.17665   0.27794   0.24011   0.00000  Uiso   1.00
C12    C     0.08289   0.19519   0.48911   0.00000  Uiso   1.00
C13    C     0.18562   0.14838   0.12941   0.00000  Uiso   1.00
C14    C     0.14908   0.18505   0.37083   0.00000  Uiso   1.00
C15    C     0.24971   0.14147   0.01134   0.00000  Uiso   1.00
C16    C     0.19507   0.14278   0.08102   0.00000  Uiso   1.00
C17    C     0.09722   0.19826   0.44322   0.00000  Uiso   1.00
C18    C     0.10903   0.18238   0.01263   0.00000  Uiso   1.00
C19    C     0.15135   0.17405   0.49079   0.00000  Uiso   1.00
C20    C     0.16687   0.18007   0.44426   0.00000  Uiso   1.00
C21    C     0.17892   0.16026   0.01356   0.00000  Uiso   1.00
C22    C     0.22172   0.15445   0.48974   0.00000  Uiso   1.00
C23    C     0.23702   0.16352   0.44512   0.00000  Uiso   1.00
C24    C     0.21040   0.17702   0.42301   0.00000  Uiso   1.00
F25    F     0.31448   0.13721   0.29968   0.00000  Uiso   1.00
H26    H     0.25948   0.12904   0.07381   0.00000  Uiso   1.00
H27    H     0.22489   0.18594   0.38927   0.00000  Uiso   1.00
H28    H     0.01562   0.19256   0.20889   0.00000  Uiso   1.00
H29    H     0.20659   0.00379   0.21058   0.00000  Uiso   1.00
H30    H     0.12600   0.33136   0.29001   0.00000  Uiso   1.00
H31    H     0.27010   0.16086   0.42731   0.00000  Uiso   1.00
H32    H     0.28238   0.13719   0.49338   0.00000  Uiso   1.00
H33    H     0.13468   0.15819   0.08023   0.00000  Uiso   1.00
H34    H     0.07516   0.20584   0.42549   0.00000  Uiso   1.00
H35    H     0.09510   0.17968   0.04788   0.00000  Uiso   1.00
H36    H     0.05068   0.20150   0.00643   0.00000  Uiso   1.00
O37    O     0.16667   0.16667   0.25000   0.00000  Uiso   1.00
O38    O     0.15451   0.12637   0.15459   0.00000  Uiso   1.00
O39    O     0.12940   0.20391   0.34968   0.00000  Uiso   1.00
O40    O     0.20824   0.17759   0.14606   0.00000  Uiso   1.00
O41    O     0.17451   0.15880   0.34968   0.00000  Uiso   1.00
O42    O     0.17930   0.08019   0.28214   0.00000  Uiso   1.00
O43    O     0.14632   0.26085   0.27014   0.00000  Uiso   1.00
O44    O     0.07412   0.13291   0.23413   0.00000  Uiso   1.00
O45    O     0.26693   0.19272   0.21361   0.00000  Uiso   1.00
O46    O     0.07071   0.18878   0.28213   0.00000  Uiso   1.00
O47    O     0.25491   0.15226   0.27014   0.00000  Uiso   1.00
O48    O     0.13760   0.06944   0.23413   0.00000  Uiso   1.00
O49    O     0.20345   0.25620   0.21361   0.00000  Uiso   1.00
Zn50   Zn    0.19338   0.13994   0.28734   0.00000  Uiso   1.00
Zn51   Zn    0.13379   0.12458   0.21876   0.00000  Uiso   1.00
Zn52   Zn    0.21056   0.19775   0.20657   0.00000  Uiso   1.00
Zn53   Zn    0.12893   0.20439   0.28734   0.00000  Uiso   1.00
C54    C     0.38629   0.15999   0.25976   0.00000  Uiso   1.00
C55    C     0.49933   0.15319   0.05951   0.00000  Uiso   1.00
C56    C     0.56995   0.13630   0.05690   0.00000  Uiso   1.00
C57    C     0.61414   0.17376   0.24004   0.00000  Uiso   1.00
C58    C     0.47189   0.18953   0.42012   0.00000  Uiso   1.00
C59    C     0.65992   0.17587   0.23586   0.00000  Uiso   1.00
C60    C     0.34104   0.15747   0.26460   0.00000  Uiso   1.00
C61    C     0.51387   0.32255   0.23625   0.00000  Uiso   1.00
C62    C     0.48563   0.01181   0.26409   0.00000  Uiso   1.00
C63    C     0.48966   0.05592   0.26019   0.00000  Uiso   1.00
C64    C     0.50998   0.27794   0.24011   0.00000  Uiso   1.00
C65    C     0.41623   0.19519   0.48911   0.00000  Uiso   1.00
C66    C     0.51896   0.14838   0.12941   0.00000  Uiso   1.00
C67    C     0.48241   0.18505   0.37083   0.00000  Uiso   1.00
C68    C     0.58304   0.14147   0.01134   0.00000  Uiso   1.00
C69    C     0.52841   0.14278   0.08102   0.00000  Uiso   1.00
C70    C     0.43055   0.19826   0.44322   0.00000  Uiso   1.00
C71    C     0.44236   0.18238   0.01263   0.00000  Uiso   1.00
C72    C     0.48468   0.17405   0.49079   0.00000  Uiso   1.00
C73    C     0.50021   0.18007   0.44426   0.00000  Uiso   1.00
C74    C     0.51225   0.16026   0.01356   0.00000  Uiso   1.00
C75    C     0.55505   0.15445   0.48974   0.00000  Uiso   1.00
C76    C     0.57035   0.16352   0.44512   0.00000  Uiso   1.00
C77    C     0.54373   0.17702   0.42301   0.00000  Uiso   1.00
F78    F     0.64781   0.13721   0.29968   0.00000  Uiso   1.00
H79    H     0.59282   0.12904   0.07381   0.00000  Uiso   1.00
H80    H     0.55823   0.18594   0.38927   0.00000  Uiso   1.00
H81    H     0.34896   0.19256   0.20889   0.00000  Uiso   1.00
H82    H     0.53992   0.00379   0.21058   0.00000  Uiso   1.00
H83    H     0.45933   0.33136   0.29001   0.00000  Uiso   1.00
H84    H     0.60343   0.16086   0.42731   0.00000  Uiso   1.00
H85    H     0.61571   0.13719   0.49338   0.00000  Uiso   1.00
H86    H     0.46801   0.15819   0.08023   0.00000  Uiso   1.00
H87    H     0.40850   0.20584   0.42549   0.00000  Uiso   1.00
H88    H     0.42844   0.17968   0.04788   0.00000  Uiso   1.00
H89    H     0.38402   0.20150   0.00643   0.00000  Uiso   1.00
O90    O     0.50000   0.16667   0.25000   0.00000  Uiso   1.00
O91    O     0.48784   0.12637   0.15459   0.00000  Uiso   1.00
O92    O     0.46274   0.20391   0.34968   0.00000  Uiso   1.00
O93    O     0.54157   0.17759   0.14606   0.00000  Uiso   1.00
O94    O     0.50785   0.15880   0.34968   0.00000  Uiso   1.00
O95    O     0.51264   0.08019   0.28214   0.00000  Uiso   1.00
O96    O     0.47965   0.26085   0.27014   0.00000  Uiso   1.00
O97    O     0.40745   0.13291   0.23413   0.00000  Uiso   1.00
O98    O     0.60026   0.19272   0.21361   0.00000  Uiso   1.00
O99    O     0.40405   0.18878   0.28213   0.00000  Uiso   1.00
O100   O     0.58824   0.15226   0.27014   0.00000  Uiso   1.00
O101   O     0.47093   0.06944   0.23413   0.00000  Uiso   1.00
O102   O     0.53678   0.25620   0.21361   0.00000  Uiso   1.00
Zn103  Zn    0.52672   0.13994   0.28734   0.00000  Uiso   1.00
Zn104  Zn    0.46713   0.12458   0.21876   0.00000  Uiso   1.00
Zn105  Zn    0.54389   0.19775   0.20657   0.00000  Uiso   1.00
Zn106  Zn    0.46226   0.20439   0.28734   0.00000  Uiso   1.00
C107   C     0.71962   0.15999   0.25976   0.00000  Uiso   1.00
C108   C     0.83267   0.15319   0.05951   0.00000  Uiso   1.00
C109   C     0.90329   0.13630   0.05690   0.00000  Uiso   1.00
C110   C     0.94747   0.17376   0.24004   0.00000  Uiso   1.00
C111   C     0.80523   0.18953   0.42012   0.00000  Uiso   1.00
C112   C     0.99325   0.17587   0.23586   0.00000  Uiso   1.00
C113   C     0.67438   0.15747   0.26460   0.00000  Uiso   1.00
C114   C     0.84721   0.32255   0.23625   0.00000  Uiso   1.00
C115   C     0.81896   0.01181   0.26409   0.00000  Uiso   1.00
C116   C     0.82299   0.05592   0.26019   0.00000  Uiso   1.00
C117   C     0.84332   0.27794   0.24011   0.00000  Uiso   1.00
C118   C     0.74956   0.19519   0.48911   0.00000  Uiso   1.00
C119   C     0.85229   0.14838   0.12941   0.00000  Uiso   1.00
C120   C     0.81575   0.18505   0.37083   0.00000  Uiso   1.00
C121   C     0.91637   0.14147   0.01134   0.00000  Uiso   1.00
C122   C     0.86174   0.14278   0.08102   0.00000  Uiso   1.00
C123   C     0.76388   0.19826   0.44322   0.00000  Uiso   1.00
C124   C     0.77570   0.18238   0.01263   0.00000  Uiso   1.00
C125   C     0.81802   0.17405   0.49079   0.00000  Uiso   1.00
C126   C     0.83354   0.18007   0.44426   0.00000  Uiso   1.00
C127   C     0.84558   0.16026   0.01356   0.00000  Uiso   1.00
C128   C     0.88839   0.15445   0.48974   0.00000  Uiso   1.00
C129   C     0.90369   0.16352   0.44512   0.00000  Uiso   1.00
C130   C     0.87706   0.17702   0.42301   0.00000  Uiso   1.00
F131   F     0.98115   0.13721   0.29968   0.00000  Uiso   1.00
H132   H     0.92615   0.12904   0.07381   0.00000  Uiso   1.00
H133   H     0.89156   0.18594   0.38927   0.00000  Uiso   1.00
H134   H     0.68229   0.19256   0.20889   0.00000  Uiso   1.00
H135   H     0.87326   0.00379   0.21058   0.00000  Uiso   1.00
H136   H     0.79267   0.33136   0.29001   0.00000  Uiso   1.00
H137   H     0.93677   0.16086   0.42731   0.00000  Uiso   1.00
H138   H     0.94904   0.13719   0.49338   0.00000  Uiso   1.00
H139   H     0.80134   0.15819   0.08023   0.00000  Uiso   1.00
H140   H     0.74183   0.20584   0.42549   0.00000  Uiso   1.00
H141   H     0.76177   0.17968   0.04788   0.00000  Uiso   1.00
H142   H     0.71735   0.20150   0.00643   0.00000  Uiso   1.00
O143   O     0.83333   0.16667   0.25000   0.00000  Uiso   1.00
O144   O     0.82118   0.12637   0.15459   0.00000  Uiso   1.00
O145   O     0.79607   0.20391   0.34968   0.00000  Uiso   1.00
O146   O     0.87491   0.17759   0.14606   0.00000  Uiso   1.00
O147   O     0.84118   0.15880   0.34968   0.00000  Uiso   1.00
O148   O     0.84597   0.08019   0.28214   0.00000  Uiso   1.00
O149   O     0.81298   0.26085   0.27014   0.00000  Uiso   1.00
O150   O     0.74078   0.13291   0.23413   0.00000  Uiso   1.00
O151   O     0.93360   0.19272   0.21361   0.00000  Uiso   1.00
O152   O     0.73738   0.18878   0.28213   0.00000  Uiso   1.00
O153   O     0.92158   0.15226   0.27014   0.00000  Uiso   1.00
O154   O     0.80426   0.06944   0.23413   0.00000  Uiso   1.00
O155   O     0.87012   0.25620   0.21361   0.00000  Uiso   1.00
Zn156  Zn    0.86005   0.13994   0.28734   0.00000  Uiso   1.00
Zn157  Zn    0.80046   0.12458   0.21876   0.00000  Uiso   1.00
Zn158  Zn    0.87723   0.19775   0.20657   0.00000  Uiso   1.00
Zn159  Zn    0.79560   0.20439   0.28734   0.00000  Uiso   1.00
C160   C     0.05296   0.49333   0.25976   0.00000  Uiso   1.00
C161   C     0.16600   0.48652   0.05951   0.00000  Uiso   1.00
C162   C     0.23662   0.46963   0.05690   0.00000  Uiso   1.00
C163   C     0.28080   0.50709   0.24004   0.00000  Uiso   1.00
C164   C     0.13856   0.52286   0.42012   0.00000  Uiso   1.00
C165   C     0.32659   0.50921   0.23586   0.00000  Uiso   1.00
C166   C     0.00771   0.49081   0.26460   0.00000  Uiso   1.00
C167   C     0.18054   0.65589   0.23625   0.00000  Uiso   1.00
C168   C     0.15229   0.34514   0.26409   0.00000  Uiso   1.00
C169   C     0.15633   0.38925   0.26019   0.00000  Uiso   1.00
C170   C     0.17665   0.61128   0.24011   0.00000  Uiso   1.00
C171   C     0.08289   0.52852   0.48911   0.00000  Uiso   1.00
C172   C     0.18562   0.48172   0.12941   0.00000  Uiso   1.00
C173   C     0.14908   0.51839   0.37083   0.00000  Uiso   1.00
C174   C     0.24971   0.47480   0.01134   0.00000  Uiso   1.00
C175   C     0.19507   0.47611   0.08102   0.00000  Uiso   1.00
C176   C     0.09722   0.53159   0.44322   0.00000  Uiso   1.00
C177   C     0.10903   0.51571   0.01263   0.00000  Uiso   1.00
C178   C     0.15135   0.50738   0.49079   0.00000  Uiso   1.00
C179   C     0.16687   0.51341   0.44426   0.00000  Uiso   1.00
C180   C     0.17892   0.49359   0.01356   0.00000  Uiso   1.00
C181   C     0.22172   0.48778   0.48974   0.00000  Uiso   1.00
C182   C     0.23702   0.49685   0.44512   0.00000  Uiso   1.00
C183   C     0.21040   0.51035   0.42301   0.00000  Uiso   1.00
F184   F     0.31448   0.47055   0.29968   0.00000  Uiso   1.00
H185   H     0.25948   0.46238   0.07381   0.00000  Uiso   1.00
H186   H     0.22489   0.51927   0.38927   0.00000  Uiso   1.00
H187   H     0.01562   0.52589   0.20889   0.00000  Uiso   1.00
H188   H     0.20659   0.33712   0.21058   0.00000  Uiso   1.00
H189   H     0.12600   0.66469   0.29001   0.00000  Uiso   1.00
H190   H     0.27010   0.49419   0.42731   0.00000  Uiso   1.00
H191   H     0.28238   0.47052   0.49338   0.00000  Uiso   1.00
H192   H     0.13468   0.49152   0.08023   0.00000  Uiso   1.00
H193   H     0.07516   0.53918   0.42549   0.00000  Uiso   1.00
H194   H     0.09510   0.51301   0.04788   0.00000  Uiso   1.00
H195   H     0.05068   0.53483   0.00643   0.00000  Uiso   1.00
O196   O     0.16667   0.50000   0.25000   0.00000  Uiso   1.00
O197   O     0.15451   0.45970   0.15459   0.00000  Uiso   1.00
O198   O     0.12940   0.53724   0.34968   0.00000  Uiso   1.00
O199   O     0.20824   0.51092   0.14606   0.00000  Uiso   1.00
O200   O     0.17451   0.49213   0.34968   0.00000  Uiso   1.00
O201   O     0.17930   0.41352   0.28214   0.00000  Uiso   1.00
O202   O     0.14632   0.59418   0.27014   0.00000  Uiso   1.00
O203   O     0.07412   0.46625   0.23413   0.00000  Uiso   1.00
O204   O     0.26693   0.52605   0.21361   0.00000  Uiso   1.00
O205   O     0.07071   0.52211   0.28213   0.00000  Uiso   1.00
O206   O     0.25491   0.48559   0.27014   0.00000  Uiso   1.00
O207   O     0.13760   0.40277   0.23413   0.00000  Uiso   1.00
O208   O     0.20345   0.58953   0.21361   0.00000  Uiso   1.00
Zn209  Zn    0.19338   0.47327   0.28734   0.00000  Uiso   1.00
Zn210  Zn    0.13379   0.45791   0.21876   0.00000  Uiso   1.00
Zn211  Zn    0.21056   0.53109   0.20657   0.00000  Uiso   1.00
Zn212  Zn    0.12893   0.53773   0.28734   0.00000  Uiso   1.00
C213   C     0.38629   0.49333   0.25976   0.00000  Uiso   1.00
C214   C     0.49933   0.48652   0.05951   0.00000  Uiso   1.00
C215   C     0.56995   0.46963   0.05690   0.00000  Uiso   1.00
C216   C     0.61414   0.50709   0.24004   0.00000  Uiso   1.00
C217   C     0.47189   0.52286   0.42012   0.00000  Uiso   1.00
C218   C     0.65992   0.50921   0.23586   0.00000  Uiso   1.00
C219   C     0.34104   0.49081   0.26460   0.00000  Uiso   1.00
C220   C     0.51387   0.65589   0.23625   0.00000  Uiso   1.00
C221   C     0.48563   0.34514   0.26409   0.00000  Uiso   1.00
C222   C     0.48966   0.38925   0.26019   0.00000  Uiso   1.00
C223   C     0.50998   0.61128   0.24011   0.00000  Uiso   1.00
C224   C     0.41623   0.52852   0.48911   0.00000  Uiso   1.00
C225   C     0.51896   0.48172   0.12941   0.00000  Uiso   1.00
C226   C     0.48241   0.51839   0.37083   0.00000  Uiso   1.00
C227   C     0.58304   0.47480   0.01134   0.00000  Uiso   1.00
C228   C     0.52841   0.47611   0.08102   0.00000  Uiso   1.00
C229   C     0.43055   0.53159   0.44322   0.00000  Uiso   1.00
C230   C     0.44236   0.51571   0.01263   0.00000  Uiso   1.00
C231   C     0.48468   0.50738   0.49079   0.00000  Uiso   1.00
C232   C     0.50021   0.51341   0.44426   0.00000  Uiso   1.00
C233   C     0.51225   0.49359   0.01356   0.00000  Uiso   1.00
C234   C     0.55505   0.48778   0.48974   0.00000  Uiso   1.00
C235   C     0.57035   0.49685   0.44512   0.00000  Uiso   1.00
C236   C     0.54373   0.51035   0.42301   0.00000  Uiso   1.00
F237   F     0.64781   0.47055   0.29968   0.00000  Uiso   1.00
H238   H     0.59282   0.46238   0.07381   0.00000  Uiso   1.00
H239   H     0.55823   0.51927   0.38927   0.00000  Uiso   1.00
H240   H     0.34896   0.52589   0.20889   0.00000  Uiso   1.00
H241   H     0.53992   0.33712   0.21058   0.00000  Uiso   1.00
H242   H     0.45933   0.66469   0.29001   0.00000  Uiso   1.00
H243   H     0.60343   0.49419   0.42731   0.00000  Uiso   1.00
H244   H     0.61571   0.47052   0.49338   0.00000  Uiso   1.00
H245   H     0.46801   0.49152   0.08023   0.00000  Uiso   1.00
H246   H     0.40850   0.53918   0.42549   0.00000  Uiso   1.00
H247   H     0.42844   0.51301   0.04788   0.00000  Uiso   1.00
H248   H     0.38402   0.53483   0.00643   0.00000  Uiso   1.00
O249   O     0.50000   0.50000   0.25000   0.00000  Uiso   1.00
O250   O     0.48784   0.45970   0.15459   0.00000  Uiso   1.00
O251   O     0.46274   0.53724   0.34968   0.00000  Uiso   1.00
O252   O     0.54157   0.51092   0.14606   0.00000  Uiso   1.00
O253   O     0.50785   0.49213   0.34968   0.00000  Uiso   1.00
O254   O     0.51264   0.41352   0.28214   0.00000  Uiso   1.00
O255   O     0.47965   0.59418   0.27014   0.00000  Uiso   1.00
O256   O     0.40745   0.46625   0.23413   0.00000  Uiso   1.00
O257   O     0.60026   0.52605   0.21361   0.00000  Uiso   1.00
O258   O     0.40405   0.52211   0.28213   0.00000  Uiso   1.00
O259   O     0.58824   0.48559   0.27014   0.00000  Uiso   1.00
O260   O     0.47093   0.40277   0.23413   0.00000  Uiso   1.00
O261   O     0.53678   0.58953   0.21361   0.00000  Uiso   1.00
Zn262  Zn    0.52672   0.47327   0.28734   0.00000  Uiso   1.00
Zn263  Zn    0.46713   0.45791   0.21876   0.00000  Uiso   1.00
Zn264  Zn    0.54389   0.53109   0.20657   0.00000  Uiso   1.00
Zn265  Zn    0.46226   0.53773   0.28734   0.00000  Uiso   1.00
C266   C     0.71962   0.49333   0.25976   0.00000  Uiso   1.00
C267   C     0.83267   0.48652   0.05951   0.00000  Uiso   1.00
C268   C     0.90329   0.46963   0.05690   0.00000  Uiso   1.00
C269   C     0.94747   0.50709   0.24004   0.00000  Uiso   1.00
C270   C     0.80523   0.52286   0.42012   0.00000  Uiso   1.00
C271   C     0.99325   0.50921   0.23586   0.00000  Uiso   1.00
C272   C     0.67438   0.49081   0.26460   0.00000  Uiso   1.00
C273   C     0.84721   0.65589   0.23625   0.00000  Uiso   1.00
C274   C     0.81896   0.34514   0.26409   0.00000  Uiso   1.00
C275   C     0.82299   0.38925   0.26019   0.00000  Uiso   1.00
C276   C     0.84332   0.61128   0.24011   0.00000  Uiso   1.00
C277   C     0.74956   0.52852   0.48911   0.00000  Uiso   1.00
C278   C     0.85229   0.48172   0.12941   0.00000  Uiso   1.00
C279   C     0.81575   0.51839   0.37083   0.00000  Uiso   1.00
C280   C     0.91637   0.47480   0.01134   0.00000  Uiso   1.00
C281   C     0.86174   0.47611   0.08102   0.00000  Uiso   1.00
C282   C     0.76388   0.53159   0.44322   0.00000  Uiso   1.00
C283   C     0.77570   0.51571   0.01263   0.00000  Uiso   1.00
C284   C     0.81802   0.50738   0.49079   0.00000  Uiso   1.00
C285   C     0.83354   0.51341   0.44426   0.00000  Uiso   1.00
C286   C     0.84558   0.49359   0.01356   0.00000  Uiso   1.00
C287   C     0.88839   0.48778   0.48974   0.00000  Uiso   1.00
C288   C     0.90369   0.49685   0.44512   0.00000  Uiso   1.00
C289   C     0.87706   0.51035   0.42301   0.00000  Uiso   1.00
F290   F     0.98115   0.47055   0.29968   0.00000  Uiso   1.00
H291   H     0.92615   0.46238   0.07381   0.00000  Uiso   1.00
H292   H     0.89156   0.51927   0.38927   0.00000  Uiso   1.00
H293   H     0.68229   0.52589   0.20889   0.00000  Uiso   1.00
H294   H     0.87326   0.33712   0.21058   0.00000  Uiso   1.00
H295   H     0.79267   0.66469   0.29001   0.00000  Uiso   1.00
H296   H     0.93677   0.49419   0.42731   0.00000  Uiso   1.00
H297   H     0.94904   0.47052   0.49338   0.00000  Uiso   1.00
H298   H     0.80134   0.49152   0.08023   0.00000  Uiso   1.00
H299   H     0.74183   0.53918   0.42549   0.00000  Uiso   1.00
H300   H     0.76177   0.51301   0.04788   0.00000  Uiso   1.00
H301   H     0.71735   0.53483   0.00643   0.00000  Uiso   1.00
O302   O     0.83333   0.50000   0.25000   0.00000  Uiso   1.00
O303   O     0.82118   0.45970   0.15459   0.00000  Uiso   1.00
O304   O     0.79607   0.53724   0.34968   0.00000  Uiso   1.00
O305   O     0.87491   0.51092   0.14606   0.00000  Uiso   1.00
O306   O     0.84118   0.49213   0.34968   0.00000  Uiso   1.00
O307   O     0.84597   0.41352   0.28214   0.00000  Uiso   1.00
O308   O     0.81298   0.59418   0.27014   0.00000  Uiso   1.00
O309   O     0.74078   0.46625   0.23413   0.00000  Uiso   1.00
O310   O     0.93360   0.52605   0.21361   0.00000  Uiso   1.00
O311   O     0.73738   0.52211   0.28213   0.00000  Uiso   1.00
O312   O     0.92158   0.48559   0.27014   0.00000  Uiso   1.00
O313   O     0.80426   0.40277   0.23413   0.00000  Uiso   1.00
O314   O     0.87012   0.58953   0.21361   0.00000  Uiso   1.00
Zn315  Zn    0.86005   0.47327   0.28734   0.00000  Uiso   1.00
Zn316  Zn    0.80046   0.45791   0.21876   0.00000  Uiso   1.00
Zn317  Zn    0.87723   0.53109   0.20657   0.00000  Uiso   1.00
Zn318  Zn    0.79560   0.53773   0.28734   0.00000  Uiso   1.00
C319   C     0.05296   0.82666   0.25976   0.00000  Uiso   1.00
C320   C     0.16600   0.81985   0.05951   0.00000  Uiso   1.00
C321   C     0.23662   0.80297   0.05690   0.00000  Uiso   1.00
C322   C     0.28080   0.84043   0.24004   0.00000  Uiso   1.00
C323   C     0.13856   0.85620   0.42012   0.00000  Uiso   1.00
C324   C     0.32659   0.84254   0.23586   0.00000  Uiso   1.00
C325   C     0.00771   0.82414   0.26460   0.00000  Uiso   1.00
C326   C     0.18054   0.98922   0.23625   0.00000  Uiso   1.00
C327   C     0.15229   0.67847   0.26409   0.00000  Uiso   1.00
C328   C     0.15633   0.72258   0.26019   0.00000  Uiso   1.00
C329   C     0.17665   0.94461   0.24011   0.00000  Uiso   1.00
C330   C     0.08289   0.86186   0.48911   0.00000  Uiso   1.00
C331   C     0.18562   0.81505   0.12941   0.00000  Uiso   1.00
C332   C     0.14908   0.85172   0.37083   0.00000  Uiso   1.00
C333   C     0.24971   0.80813   0.01134   0.00000  Uiso   1.00
C334   C     0.19507   0.80944   0.08102   0.00000  Uiso   1.00
C335   C     0.09722   0.86492   0.44322   0.00000  Uiso   1.00
C336   C     0.10903   0.84904   0.01263   0.00000  Uiso   1.00
C337   C     0.15135   0.84072   0.49079   0.00000  Uiso   1.00
C338   C     0.16687   0.84674   0.44426   0.00000  Uiso   1.00
C339   C     0.17892   0.82693   0.01356   0.00000  Uiso   1.00
C340   C     0.22172   0.82112   0.48974   0.00000  Uiso   1.00
C341   C     0.23702   0.83018   0.44512   0.00000  Uiso   1.00
C342   C     0.21040   0.84369   0.42301   0.00000  Uiso   1.00
F343   F     0.31448   0.80388   0.29968   0.00000  Uiso   1.00
H344   H     0.25948   0.79571   0.07381   0.00000  Uiso   1.00
H345   H     0.22489   0.85260   0.38927   0.00000  Uiso   1.00
H346   H     0.01562   0.85923   0.20889   0.00000  Uiso   1.00
H347   H     0.20659   0.67046   0.21058   0.00000  Uiso   1.00
H348   H     0.12600   0.99803   0.29001   0.00000  Uiso   1.00
H349   H     0.27010   0.82753   0.42731   0.00000  Uiso   1.00
H350   H     0.28238   0.80385   0.49338   0.00000  Uiso   1.00
H351   H     0.13468   0.82485   0.08023   0.00000  Uiso   1.00
H352   H     0.07516   0.87251   0.42549   0.00000  Uiso   1.00
H353   H     0.09510   0.84634   0.04788   0.00000  Uiso   1.00
H354   H     0.05068   0.86816   0.00643   0.00000  Uiso   1.00
O355   O     0.16667   0.83333   0.25000   0.00000  Uiso   1.00
O356   O     0.15451   0.79304   0.15459   0.00000  Uiso   1.00
O357   O     0.12940   0.87058   0.34968   0.00000  Uiso   1.00
O358   O     0.20824   0.84425   0.14606   0.00000  Uiso   1.00
O359   O     0.17451   0.82546   0.34968   0.00000  Uiso   1.00
O360   O     0.17930   0.74686   0.28214   0.00000  Uiso   1.00
O361   O     0.14632   0.92751   0.27014   0.00000  Uiso   1.00
O362   O     0.07412   0.79958   0.23413   0.00000  Uiso   1.00
O363   O     0.26693   0.85939   0.21361   0.00000  Uiso   1.00
O364   O     0.07071   0.85544   0.28213   0.00000  Uiso   1.00
O365   O     0.25491   0.81892   0.27014   0.00000  Uiso   1.00
O366   O     0.13760   0.73610   0.23413   0.00000  Uiso   1.00
O367   O     0.20345   0.92286   0.21361   0.00000  Uiso   1.00
Zn368  Zn    0.19338   0.80661   0.28734   0.00000  Uiso   1.00
Zn369  Zn    0.13379   0.79124   0.21876   0.00000  Uiso   1.00
Zn370  Zn    0.21056   0.86442   0.20657   0.00000  Uiso   1.00
Zn371  Zn    0.12893   0.87106   0.28734   0.00000  Uiso   1.00
C372   C     0.38629   0.82666   0.25976   0.00000  Uiso   1.00
C373   C     0.49933   0.81985   0.05951   0.00000  Uiso   1.00
C374   C     0.56995   0.80297   0.05690   0.00000  Uiso   1.00
C375   C     0.61414   0.84043   0.24004   0.00000  Uiso   1.00
C376   C     0.47189   0.85620   0.42012   0.00000  Uiso   1.00
C377   C     0.65992   0.84254   0.23586   0.00000  Uiso   1.00
C378   C     0.34104   0.82414   0.26460   0.00000  Uiso   1.00
C379   C     0.51387   0.98922   0.23625   0.00000  Uiso   1.00
C380   C     0.48563   0.67847   0.26409   0.00000  Uiso   1.00
C381   C     0.48966   0.72258   0.26019   0.00000  Uiso   1.00
C382   C     0.50998   0.94461   0.24011   0.00000  Uiso   1.00
C383   C     0.41623   0.86186   0.48911   0.00000  Uiso   1.00
C384   C     0.51896   0.81505   0.12941   0.00000  Uiso   1.00
C385   C     0.48241   0.85172   0.37083   0.00000  Uiso   1.00
C386   C     0.58304   0.80813   0.01134   0.00000  Uiso   1.00
C387   C     0.52841   0.80944   0.08102   0.00000  Uiso   1.00
C388   C     0.43055   0.86492   0.44322   0.00000  Uiso   1.00
C389   C     0.44236   0.84904   0.01263   0.00000  Uiso   1.00
C390   C     0.48468   0.84072   0.49079   0.00000  Uiso   1.00
C391   C     0.50021   0.84674   0.44426   0.00000  Uiso   1.00
C392   C     0.51225   0.82693   0.01356   0.00000  Uiso   1.00
C393   C     0.55505   0.82112   0.48974   0.00000  Uiso   1.00
C394   C     0.57035   0.83018   0.44512   0.00000  Uiso   1.00
C395   C     0.54373   0.84369   0.42301   0.00000  Uiso   1.00
F396   F     0.64781   0.80388   0.29968   0.00000  Uiso   1.00
H397   H     0.59282   0.79571   0.07381   0.00000  Uiso   1.00
H398   H     0.55823   0.85260   0.38927   0.00000  Uiso   1.00
H399   H     0.34896   0.85923   0.20889   0.00000  Uiso   1.00
H400   H     0.53992   0.67046   0.21058   0.00000  Uiso   1.00
H401   H     0.45933   0.99803   0.29001   0.00000  Uiso   1.00
H402   H     0.60343   0.82753   0.42731   0.00000  Uiso   1.00
H403   H     0.61571   0.80385   0.49338   0.00000  Uiso   1.00
H404   H     0.46801   0.82485   0.08023   0.00000  Uiso   1.00
H405   H     0.40850   0.87251   0.42549   0.00000  Uiso   1.00
H406   H     0.42844   0.84634   0.04788   0.00000  Uiso   1.00
H407   H     0.38402   0.86816   0.00643   0.00000  Uiso   1.00
O408   O     0.50000   0.83333   0.25000   0.00000  Uiso   1.00
O409   O     0.48784   0.79304   0.15459   0.00000  Uiso   1.00
O410   O     0.46274   0.87058   0.34968   0.00000  Uiso   1.00
O411   O     0.54157   0.84425   0.14606   0.00000  Uiso   1.00
O412   O     0.50785   0.82546   0.34968   0.00000  Uiso   1.00
O413   O     0.51264   0.74686   0.28214   0.00000  Uiso   1.00
O414   O     0.47965   0.92751   0.27014   0.00000  Uiso   1.00
O415   O     0.40745   0.79958   0.23413   0.00000  Uiso   1.00
O416   O     0.60026   0.85939   0.21361   0.00000  Uiso   1.00
O417   O     0.40405   0.85544   0.28213   0.00000  Uiso   1.00
O418   O     0.58824   0.81892   0.27014   0.00000  Uiso   1.00
O419   O     0.47093   0.73610   0.23413   0.00000  Uiso   1.00
O420   O     0.53678   0.92286   0.21361   0.00000  Uiso   1.00
Zn421  Zn    0.52672   0.80661   0.28734   0.00000  Uiso   1.00
Zn422  Zn    0.46713   0.79124   0.21876   0.00000  Uiso   1.00
Zn423  Zn    0.54389   0.86442   0.20657   0.00000  Uiso   1.00
Zn424  Zn    0.46226   0.87106   0.28734   0.00000  Uiso   1.00
C425   C     0.71962   0.82666   0.25976   0.00000  Uiso   1.00
C426   C     0.83267   0.81985   0.05951   0.00000  Uiso   1.00
C427   C     0.90329   0.80297   0.05690   0.00000  Uiso   1.00
C428   C     0.94747   0.84043   0.24004   0.00000  Uiso   1.00
C429   C     0.80523   0.85620   0.42012   0.00000  Uiso   1.00
C430   C     0.99325   0.84254   0.23586   0.00000  Uiso   1.00
C431   C     0.67438   0.82414   0.26460   0.00000  Uiso   1.00
C432   C     0.84721   0.98922   0.23625   0.00000  Uiso   1.00
C433   C     0.81896   0.67847   0.26409   0.00000  Uiso   1.00
C434   C     0.82299   0.72258   0.26019   0.00000  Uiso   1.00
C435   C     0.84332   0.94461   0.24011   0.00000  Uiso   1.00
C436   C     0.74956   0.86186   0.48911   0.00000  Uiso   1.00
C437   C     0.85229   0.81505   0.12941   0.00000  Uiso   1.00
C438   C     0.81575   0.85172   0.37083   0.00000  Uiso   1.00
C439   C     0.91637   0.80813   0.01134   0.00000  Uiso   1.00
C440   C     0.86174   0.80944   0.08102   0.00000  Uiso   1.00
C441   C     0.76388   0.86492   0.44322   0.00000  Uiso   1.00
C442   C     0.77570   0.84904   0.01263   0.00000  Uiso   1.00
C443   C     0.81802   0.84072   0.49079   0.00000  Uiso   1.00
C444   C     0.83354   0.84674   0.44426   0.00000  Uiso   1.00
C445   C     0.84558   0.82693   0.01356   0.00000  Uiso   1.00
C446   C     0.88839   0.82112   0.48974   0.00000  Uiso   1.00
C447   C     0.90369   0.83018   0.44512   0.00000  Uiso   1.00
C448   C     0.87706   0.84369   0.42301   0.00000  Uiso   1.00
F449   F     0.98115   0.80388   0.29968   0.00000  Uiso   1.00
H450   H     0.92615   0.79571   0.07381   0.00000  Uiso   1.00
H451   H     0.89156   0.85260   0.38927   0.00000  Uiso   1.00
H452   H     0.68229   0.85923   0.20889   0.00000  Uiso   1.00
H453   H     0.87326   0.67046   0.21058   0.00000  Uiso   1.00
H454   H     0.79267   0.99803   0.29001   0.00000  Uiso   1.00
H455   H     0.93677   0.82753   0.42731   0.00000  Uiso   1.00
H456   H     0.94904   0.80385   0.49338   0.00000  Uiso   1.00
H457   H     0.80134   0.82485   0.08023   0.00000  Uiso   1.00
H458   H     0.74183   0.87251   0.42549   0.00000  Uiso   1.00
H459   H     0.76177   0.84634   0.04788   0.00000  Uiso   1.00
H460   H     0.71735   0.86816   0.00643   0.00000  Uiso   1.00
O461   O     0.83333   0.83333   0.25000   0.00000  Uiso   1.00
O462   O     0.82118   0.79304   0.15459   0.00000  Uiso   1.00
O463   O     0.79607   0.87058   0.34968   0.00000  Uiso   1.00
O464   O     0.87491   0.84425   0.14606   0.00000  Uiso   1.00
O465   O     0.84118   0.82546   0.34968   0.00000  Uiso   1.00
O466   O     0.84597   0.74686   0.28214   0.00000  Uiso   1.00
O467   O     0.81298   0.92751   0.27014   0.00000  Uiso   1.00
O468   O     0.74078   0.79958   0.23413   0.00000  Uiso   1.00
O469   O     0.93360   0.85939   0.21361   0.00000  Uiso   1.00
O470   O     0.73738   0.85544   0.28213   0.00000  Uiso   1.00
O471   O     0.92158   0.81892   0.27014   0.00000  Uiso   1.00
O472   O     0.80426   0.73610   0.23413   0.00000  Uiso   1.00
O473   O     0.87012   0.92286   0.21361   0.00000  Uiso   1.00
Zn474  Zn    0.86005   0.80661   0.28734   0.00000  Uiso   1.00
Zn475  Zn    0.80046   0.79124   0.21876   0.00000  Uiso   1.00
Zn476  Zn    0.87723   0.86442   0.20657   0.00000  Uiso   1.00
Zn477  Zn    0.79560   0.87106   0.28734   0.00000  Uiso   1.00
C478   C     0.05296   0.15999   0.75976   0.00000  Uiso   1.00
C479   C     0.16600   0.15319   0.55951   0.00000  Uiso   1.00
C480   C     0.23662   0.13630   0.55690   0.00000  Uiso   1.00
C481   C     0.28080   0.17376   0.74004   0.00000  Uiso   1.00
C482   C     0.13856   0.18953   0.92012   0.00000  Uiso   1.00
C483   C     0.32659   0.17587   0.73586   0.00000  Uiso   1.00
C484   C     0.00771   0.15747   0.76460   0.00000  Uiso   1.00
C485   C     0.18054   0.32255   0.73625   0.00000  Uiso   1.00
C486   C     0.15229   0.01181   0.76409   0.00000  Uiso   1.00
C487   C     0.15633   0.05592   0.76019   0.00000  Uiso   1.00
C488   C     0.17665   0.27794   0.74011   0.00000  Uiso   1.00
C489   C     0.08289   0.19519   0.98911   0.00000  Uiso   1.00
C490   C     0.18562   0.14838   0.62941   0.00000  Uiso   1.00
C491   C     0.14908   0.18505   0.87083   0.00000  Uiso   1.00
C492   C     0.24971   0.14147   0.51134   0.00000  Uiso   1.00
C493   C     0.19507   0.14278   0.58102   0.00000  Uiso   1.00
C494   C     0.09722   0.19826   0.94322   0.00000  Uiso   1.00
C495   C     0.10903   0.18238   0.51263   0.00000  Uiso   1.00
C496   C     0.15135   0.17405   0.99079   0.00000  Uiso   1.00
C497   C     0.16687   0.18007   0.94426   0.00000  Uiso   1.00
C498   C     0.17892   0.16026   0.51356   0.00000  Uiso   1.00
C499   C     0.22172   0.15445   0.98974   0.00000  Uiso   1.00
C500   C     0.23702   0.16352   0.94512   0.00000  Uiso   1.00
C501   C     0.21040   0.17702   0.92301   0.00000  Uiso   1.00
F502   F     0.31448   0.13721   0.79968   0.00000  Uiso   1.00
H503   H     0.25948   0.12904   0.57381   0.00000  Uiso   1.00
H504   H     0.22489   0.18594   0.88927   0.00000  Uiso   1.00
H505   H     0.01562   0.19256   0.70889   0.00000  Uiso   1.00
H506   H     0.20659   0.00379   0.71058   0.00000  Uiso   1.00
H507   H     0.12600   0.33136   0.79001   0.00000  Uiso   1.00
H508   H     0.27010   0.16086   0.92731   0.00000  Uiso   1.00
H509   H     0.28238   0.13719   0.99338   0.00000  Uiso   1.00
H510   H     0.13468   0.15819   0.58023   0.00000  Uiso   1.00
H511   H     0.07516   0.20584   0.92549   0.00000  Uiso   1.00
H512   H     0.09510   0.17968   0.54788   0.00000  Uiso   1.00
H513   H     0.05068   0.20150   0.50643   0.00000  Uiso   1.00
O514   O     0.16667   0.16667   0.75000   0.00000  Uiso   1.00
O515   O     0.15451   0.12637   0.65459   0.00000  Uiso   1.00
O516   O     0.12940   0.20391   0.84968   0.00000  Uiso   1.00
O517   O     0.20824   0.17759   0.64606   0.00000  Uiso   1.00
O518   O     0.17451   0.15880   0.84968   0.00000  Uiso   1.00
O519   O     0.17930   0.08019   0.78214   0.00000  Uiso   1.00
O520   O     0.14632   0.26085   0.77014   0.00000  Uiso   1.00
O521   O     0.07412   0.13291   0.73413   0.00000  Uiso   1.00
O522   O     0.26693   0.19272   0.71361   0.00000  Uiso   1.00
O523   O     0.07071   0.18878   0.78213   0.00000  Uiso   1.00
O524   O     0.25491   0.15226   0.77014   0.00000  Uiso   1.00
O525   O     0.13760   0.06944   0.73413   0.00000  Uiso   1.00
O526   O     0.20345   0.25620   0.71361   0.00000  Uiso   1.00
Zn527  Zn    0.19338   0.13994   0.78734   0.00000  Uiso   1.00
Zn528  Zn    0.13379   0.12458   0.71876   0.00000  Uiso   1.00
Zn529  Zn    0.21056   0.19775   0.70657   0.00000  Uiso   1.00
Zn530  Zn    0.12893   0.20439   0.78734   0.00000  Uiso   1.00
C531   C     0.38629   0.15999   0.75976   0.00000  Uiso   1.00
C532   C     0.49933   0.15319   0.55951   0.00000  Uiso   1.00
C533   C     0.56995   0.13630   0.55690   0.00000  Uiso   1.00
C534   C     0.61414   0.17376   0.74004   0.00000  Uiso   1.00
C535   C     0.47189   0.18953   0.92012   0.00000  Uiso   1.00
C536   C     0.65992   0.17587   0.73586   0.00000  Uiso   1.00
C537   C     0.34104   0.15747   0.76460   0.00000  Uiso   1.00
C538   C     0.51387   0.32255   0.73625   0.00000  Uiso   1.00
C539   C     0.48563   0.01181   0.76409   0.00000  Uiso   1.00
C540   C     0.48966   0.05592   0.76019   0.00000  Uiso   1.00
C541   C     0.50998   0.27794   0.74011   0.00000  Uiso   1.00
C542   C     0.41623   0.19519   0.98911   0.00000  Uiso   1.00
C543   C     0.51896   0.14838   0.62941   0.00000  Uiso   1.00
C544   C     0.48241   0.18505   0.87083   0.00000  Uiso   1.00
C545   C     0.58304   0.14147   0.51134   0.00000  Uiso   1.00
C546   C     0.52841   0.14278   0.58102   0.00000  Uiso   1.00
C547   C     0.43055   0.19826   0.94322   0.00000  Uiso   1.00
C548   C     0.44236   0.18238   0.51263   0.00000  Uiso   1.00
C549   C     0.48468   0.17405   0.99079   0.00000  Uiso   1.00
C550   C     0.50021   0.18007   0.94426   0.00000  Uiso   1.00
C551   C     0.51225   0.16026   0.51356   0.00000  Uiso   1.00
C552   C     0.55505   0.15445   0.98974   0.00000  Uiso   1.00
C553   C     0.57035   0.16352   0.94512   0.00000  Uiso   1.00
C554   C     0.54373   0.17702   0.92301   0.00000  Uiso   1.00
F555   F     0.64781   0.13721   0.79968   0.00000  Uiso   1.00
H556   H     0.59282   0.12904   0.57381   0.00000  Uiso   1.00
H557   H     0.55823   0.18594   0.88927   0.00000  Uiso   1.00
H558   H     0.34896   0.19256   0.70889   0.00000  Uiso   1.00
H559   H     0.53992   0.00379   0.71058   0.00000  Uiso   1.00
H560   H     0.45933   0.33136   0.79001   0.00000  Uiso   1.00
H561   H     0.60343   0.16086   0.92731   0.00000  Uiso   1.00
H562   H     0.61571   0.13719   0.99338   0.00000  Uiso   1.00
H563   H     0.46801   0.15819   0.58023   0.00000  Uiso   1.00
H564   H     0.40850   0.20584   0.92549   0.00000  Uiso   1.00
H565   H     0.42844   0.17968   0.54788   0.00000  Uiso   1.00
H566   H     0.38402   0.20150   0.50643   0.00000  Uiso   1.00
O567   O     0.50000   0.16667   0.75000   0.00000  Uiso   1.00
O568   O     0.48784   0.12637   0.65459   0.00000  Uiso   1.00
O569   O     0.46274   0.20391   0.84968   0.00000  Uiso   1.00
O570   O     0.54157   0.17759   0.64606   0.00000  Uiso   1.00
O571   O     0.50785   0.15880   0.84968   0.00000  Uiso   1.00
O572   O     0.51264   0.08019   0.78214   0.00000  Uiso   1.00
O573   O     0.47965   0.26085   0.77014   0.00000  Uiso   1.00
O574   O     0.40745   0.13291   0.73413   0.00000  Uiso   1.00
O575   O     0.60026   0.19272   0.71361   0.00000  Uiso   1.00
O576   O     0.40405   0.18878   0.78213   0.00000  Uiso   1.00
O577   O     0.58824   0.15226   0.77014   0.00000  Uiso   1.00
O578   O     0.47093   0.06944   0.73413   0.00000  Uiso   1.00
O579   O     0.53678   0.25620   0.71361   0.00000  Uiso   1.00
Zn580  Zn    0.52672   0.13994   0.78734   0.00000  Uiso   1.00
Zn581  Zn    0.46713   0.12458   0.71876   0.00000  Uiso   1.00
Zn582  Zn    0.54389   0.19775   0.70657   0.00000  Uiso   1.00
Zn583  Zn    0.46226   0.20439   0.78734   0.00000  Uiso   1.00
C584   C     0.71962   0.15999   0.75976   0.00000  Uiso   1.00
C585   C     0.83267   0.15319   0.55951   0.00000  Uiso   1.00
C586   C     0.90329   0.13630   0.55690   0.00000  Uiso   1.00
C587   C     0.94747   0.17376   0.74004   0.00000  Uiso   1.00
C588   C     0.80523   0.18953   0.92012   0.00000  Uiso   1.00
C589   C     0.99325   0.17587   0.73586   0.00000  Uiso   1.00
C590   C     0.67438   0.15747   0.76460   0.00000  Uiso   1.00
C591   C     0.84721   0.32255   0.73625   0.00000  Uiso   1.00
C592   C     0.81896   0.01181   0.76409   0.00000  Uiso   1.00
C593   C     0.82299   0.05592   0.76019   0.00000  Uiso   1.00
C594   C     0.84332   0.27794   0.74011   0.00000  Uiso   1.00
C595   C     0.74956   0.19519   0.98911   0.00000  Uiso   1.00
C596   C     0.85229   0.14838   0.62941   0.00000  Uiso   1.00
C597   C     0.81575   0.18505   0.87083   0.00000  Uiso   1.00
C598   C     0.91637   0.14147   0.51134   0.00000  Uiso   1.00
C599   C     0.86174   0.14278   0.58102   0.00000  Uiso   1.00
C600   C     0.76388   0.19826   0.94322   0.00000  Uiso   1.00
C601   C     0.77570   0.18238   0.51263   0.00000  Uiso   1.00
C602   C     0.81802   0.17405   0.99079   0.00000  Uiso   1.00
C603   C     0.83354   0.18007   0.94426   0.00000  Uiso   1.00
C604   C     0.84558   0.16026   0.51356   0.00000  Uiso   1.00
C605   C     0.88839   0.15445   0.98974   0.00000  Uiso   1.00
C606   C     0.90369   0.16352   0.94512   0.00000  Uiso   1.00
C607   C     0.87706   0.17702   0.92301   0.00000  Uiso   1.00
F608   F     0.98115   0.13721   0.79968   0.00000  Uiso   1.00
H609   H     0.92615   0.12904   0.57381   0.00000  Uiso   1.00
H610   H     0.89156   0.18594   0.88927   0.00000  Uiso   1.00
H611   H     0.68229   0.19256   0.70889   0.00000  Uiso   1.00
H612   H     0.87326   0.00379   0.71058   0.00000  Uiso   1.00
H613   H     0.79267   0.33136   0.79001   0.00000  Uiso   1.00
H614   H     0.93677   0.16086   0.92731   0.00000  Uiso   1.00
H615   H     0.94904   0.13719   0.99338   0.00000  Uiso   1.00
H616   H     0.80134   0.15819   0.58023   0.00000  Uiso   1.00
H617   H     0.74183   0.20584   0.92549   0.00000  Uiso   1.00
H618   H     0.76177   0.17968   0.54788   0.00000  Uiso   1.00
H619   H     0.71735   0.20150   0.50643   0.00000  Uiso   1.00
O620   O     0.83333   0.16667   0.75000   0.00000  Uiso   1.00
O621   O     0.82118   0.12637   0.65459   0.00000  Uiso   1.00
O622   O     0.79607   0.20391   0.84968   0.00000  Uiso   1.00
O623   O     0.87491   0.17759   0.64606   0.00000  Uiso   1.00
O624   O     0.84118   0.15880   0.84968   0.00000  Uiso   1.00
O625   O     0.84597   0.08019   0.78214   0.00000  Uiso   1.00
O626   O     0.81298   0.26085   0.77014   0.00000  Uiso   1.00
O627   O     0.74078   0.13291   0.73413   0.00000  Uiso   1.00
O628   O     0.93360   0.19272   0.71361   0.00000  Uiso   1.00
O629   O     0.73738   0.18878   0.78213   0.00000  Uiso   1.00
O630   O     0.92158   0.15226   0.77014   0.00000  Uiso   1.00
O631   O     0.80426   0.06944   0.73413   0.00000  Uiso   1.00
O632   O     0.87012   0.25620   0.71361   0.00000  Uiso   1.00
Zn633  Zn    0.86005   0.13994   0.78734   0.00000  Uiso   1.00
Zn634  Zn    0.80046   0.12458   0.71876   0.00000  Uiso   1.00
Zn635  Zn    0.87723   0.19775   0.70657   0.00000  Uiso   1.00
Zn636  Zn    0.79560   0.20439   0.78734   0.00000  Uiso   1.00
C637   C     0.05296   0.49333   0.75976   0.00000  Uiso   1.00
C638   C     0.16600   0.48652   0.55951   0.00000  Uiso   1.00
C639   C     0.23662   0.46963   0.55690   0.00000  Uiso   1.00
C640   C     0.28080   0.50709   0.74004   0.00000  Uiso   1.00
C641   C     0.13856   0.52286   0.92012   0.00000  Uiso   1.00
C642   C     0.32659   0.50921   0.73586   0.00000  Uiso   1.00
C643   C     0.00771   0.49081   0.76460   0.00000  Uiso   1.00
C644   C     0.18054   0.65589   0.73625   0.00000  Uiso   1.00
C645   C     0.15229   0.34514   0.76409   0.00000  Uiso   1.00
C646   C     0.15633   0.38925   0.76019   0.00000  Uiso   1.00
C647   C     0.17665   0.61128   0.74011   0.00000  Uiso   1.00
C648   C     0.08289   0.52852   0.98911   0.00000  Uiso   1.00
C649   C     0.18562   0.48172   0.62941   0.00000  Uiso   1.00
C650   C     0.14908   0.51839   0.87083   0.00000  Uiso   1.00
C651   C     0.24971   0.47480   0.51134   0.00000  Uiso   1.00
C652   C     0.19507   0.47611   0.58102   0.00000  Uiso   1.00
C653   C     0.09722   0.53159   0.94322   0.00000  Uiso   1.00
C654   C     0.10903   0.51571   0.51263   0.00000  Uiso   1.00
C655   C     0.15135   0.50738   0.99079   0.00000  Uiso   1.00
C656   C     0.16687   0.51341   0.94426   0.00000  Uiso   1.00
C657   C     0.17892   0.49359   0.51356   0.00000  Uiso   1.00
C658   C     0.22172   0.48778   0.98974   0.00000  Uiso   1.00
C659   C     0.23702   0.49685   0.94512   0.00000  Uiso   1.00
C660   C     0.21040   0.51035   0.92301   0.00000  Uiso   1.00
F661   F     0.31448   0.47055   0.79968   0.00000  Uiso   1.00
H662   H     0.25948   0.46238   0.57381   0.00000  Uiso   1.00
H663   H     0.22489   0.51927   0.88927   0.00000  Uiso   1.00
H664   H     0.01562   0.52589   0.70889   0.00000  Uiso   1.00
H665   H     0.20659   0.33712   0.71058   0.00000  Uiso   1.00
H666   H     0.12600   0.66469   0.79001   0.00000  Uiso   1.00
H667   H     0.27010   0.49419   0.92731   0.00000  Uiso   1.00
H668   H     0.28238   0.47052   0.99338   0.00000  Uiso   1.00
H669   H     0.13468   0.49152   0.58023   0.00000  Uiso   1.00
H670   H     0.07516   0.53918   0.92549   0.00000  Uiso   1.00
H671   H     0.09510   0.51301   0.54788   0.00000  Uiso   1.00
H672   H     0.05068   0.53483   0.50643   0.00000  Uiso   1.00
O673   O     0.16667   0.50000   0.75000   0.00000  Uiso   1.00
O674   O     0.15451   0.45970   0.65459   0.00000  Uiso   1.00
O675   O     0.12940   0.53724   0.84968   0.00000  Uiso   1.00
O676   O     0.20824   0.51092   0.64606   0.00000  Uiso   1.00
O677   O     0.17451   0.49213   0.84968   0.00000  Uiso   1.00
O678   O     0.17930   0.41352   0.78214   0.00000  Uiso   1.00
O679   O     0.14632   0.59418   0.77014   0.00000  Uiso   1.00
O680   O     0.07412   0.46625   0.73413   0.00000  Uiso   1.00
O681   O     0.26693   0.52605   0.71361   0.00000  Uiso   1.00
O682   O     0.07071   0.52211   0.78213   0.00000  Uiso   1.00
O683   O     0.25491   0.48559   0.77014   0.00000  Uiso   1.00
O684   O     0.13760   0.40277   0.73413   0.00000  Uiso   1.00
O685   O     0.20345   0.58953   0.71361   0.00000  Uiso   1.00
Zn686  Zn    0.19338   0.47327   0.78734   0.00000  Uiso   1.00
Zn687  Zn    0.13379   0.45791   0.71876   0.00000  Uiso   1.00
Zn688  Zn    0.21056   0.53109   0.70657   0.00000  Uiso   1.00
Zn689  Zn    0.12893   0.53773   0.78734   0.00000  Uiso   1.00
C690   C     0.38629   0.49333   0.75976   0.00000  Uiso   1.00
C691   C     0.49933   0.48652   0.55951   0.00000  Uiso   1.00
C692   C     0.56995   0.46963   0.55690   0.00000  Uiso   1.00
C693   C     0.61414   0.50709   0.74004   0.00000  Uiso   1.00
C694   C     0.47189   0.52286   0.92012   0.00000  Uiso   1.00
C695   C     0.65992   0.50921   0.73586   0.00000  Uiso   1.00
C696   C     0.34104   0.49081   0.76460   0.00000  Uiso   1.00
C697   C     0.51387   0.65589   0.73625   0.00000  Uiso   1.00
C698   C     0.48563   0.34514   0.76409   0.00000  Uiso   1.00
C699   C     0.48966   0.38925   0.76019   0.00000  Uiso   1.00
C700   C     0.50998   0.61128   0.74011   0.00000  Uiso   1.00
C701   C     0.41623   0.52852   0.98911   0.00000  Uiso   1.00
C702   C     0.51896   0.48172   0.62941   0.00000  Uiso   1.00
C703   C     0.48241   0.51839   0.87083   0.00000  Uiso   1.00
C704   C     0.58304   0.47480   0.51134   0.00000  Uiso   1.00
C705   C     0.52841   0.47611   0.58102   0.00000  Uiso   1.00
C706   C     0.43055   0.53159   0.94322   0.00000  Uiso   1.00
C707   C     0.44236   0.51571   0.51263   0.00000  Uiso   1.00
C708   C     0.48468   0.50738   0.99079   0.00000  Uiso   1.00
C709   C     0.50021   0.51341   0.94426   0.00000  Uiso   1.00
C710   C     0.51225   0.49359   0.51356   0.00000  Uiso   1.00
C711   C     0.55505   0.48778   0.98974   0.00000  Uiso   1.00
C712   C     0.57035   0.49685   0.94512   0.00000  Uiso   1.00
C713   C     0.54373   0.51035   0.92301   0.00000  Uiso   1.00
F714   F     0.64781   0.47055   0.79968   0.00000  Uiso   1.00
H715   H     0.59282   0.46238   0.57381   0.00000  Uiso   1.00
H716   H     0.55823   0.51927   0.88927   0.00000  Uiso   1.00
H717   H     0.34896   0.52589   0.70889   0.00000  Uiso   1.00
H718   H     0.53992   0.33712   0.71058   0.00000  Uiso   1.00
H719   H     0.45933   0.66469   0.79001   0.00000  Uiso   1.00
H720   H     0.60343   0.49419   0.92731   0.00000  Uiso   1.00
H721   H     0.61571   0.47052   0.99338   0.00000  Uiso   1.00
H722   H     0.46801   0.49152   0.58023   0.00000  Uiso   1.00
H723   H     0.40850   0.53918   0.92549   0.00000  Uiso   1.00
H724   H     0.42844   0.51301   0.54788   0.00000  Uiso   1.00
H725   H     0.38402   0.53483   0.50643   0.00000  Uiso   1.00
O726   O     0.50000   0.50000   0.75000   0.00000  Uiso   1.00
O727   O     0.48784   0.45970   0.65459   0.00000  Uiso   1.00
O728   O     0.46274   0.53724   0.84968   0.00000  Uiso   1.00
O729   O     0.54157   0.51092   0.64606   0.00000  Uiso   1.00
O730   O     0.50785   0.49213   0.84968   0.00000  Uiso   1.00
O731   O     0.51264   0.41352   0.78214   0.00000  Uiso   1.00
O732   O     0.47965   0.59418   0.77014   0.00000  Uiso   1.00
O733   O     0.40745   0.46625   0.73413   0.00000  Uiso   1.00
O734   O     0.60026   0.52605   0.71361   0.00000  Uiso   1.00
O735   O     0.40405   0.52211   0.78213   0.00000  Uiso   1.00
O736   O     0.58824   0.48559   0.77014   0.00000  Uiso   1.00
O737   O     0.47093   0.40277   0.73413   0.00000  Uiso   1.00
O738   O     0.53678   0.58953   0.71361   0.00000  Uiso   1.00
Zn739  Zn    0.52672   0.47327   0.78734   0.00000  Uiso   1.00
Zn740  Zn    0.46713   0.45791   0.71876   0.00000  Uiso   1.00
Zn741  Zn    0.54389   0.53109   0.70657   0.00000  Uiso   1.00
Zn742  Zn    0.46226   0.53773   0.78734   0.00000  Uiso   1.00
C743   C     0.71962   0.49333   0.75976   0.00000  Uiso   1.00
C744   C     0.83267   0.48652   0.55951   0.00000  Uiso   1.00
C745   C     0.90329   0.46963   0.55690   0.00000  Uiso   1.00
C746   C     0.94747   0.50709   0.74004   0.00000  Uiso   1.00
C747   C     0.80523   0.52286   0.92012   0.00000  Uiso   1.00
C748   C     0.99325   0.50921   0.73586   0.00000  Uiso   1.00
C749   C     0.67438   0.49081   0.76460   0.00000  Uiso   1.00
C750   C     0.84721   0.65589   0.73625   0.00000  Uiso   1.00
C751   C     0.81896   0.34514   0.76409   0.00000  Uiso   1.00
C752   C     0.82299   0.38925   0.76019   0.00000  Uiso   1.00
C753   C     0.84332   0.61128   0.74011   0.00000  Uiso   1.00
C754   C     0.74956   0.52852   0.98911   0.00000  Uiso   1.00
C755   C     0.85229   0.48172   0.62941   0.00000  Uiso   1.00
C756   C     0.81575   0.51839   0.87083   0.00000  Uiso   1.00
C757   C     0.91637   0.47480   0.51134   0.00000  Uiso   1.00
C758   C     0.86174   0.47611   0.58102   0.00000  Uiso   1.00
C759   C     0.76388   0.53159   0.94322   0.00000  Uiso   1.00
C760   C     0.77570   0.51571   0.51263   0.00000  Uiso   1.00
C761   C     0.81802   0.50738   0.99079   0.00000  Uiso   1.00
C762   C     0.83354   0.51341   0.94426   0.00000  Uiso   1.00
C763   C     0.84558   0.49359   0.51356   0.00000  Uiso   1.00
C764   C     0.88839   0.48778   0.98974   0.00000  Uiso   1.00
C765   C     0.90369   0.49685   0.94512   0.00000  Uiso   1.00
C766   C     0.87706   0.51035   0.92301   0.00000  Uiso   1.00
F767   F     0.98115   0.47055   0.79968   0.00000  Uiso   1.00
H768   H     0.92615   0.46238   0.57381   0.00000  Uiso   1.00
H769   H     0.89156   0.51927   0.88927   0.00000  Uiso   1.00
H770   H     0.68229   0.52589   0.70889   0.00000  Uiso   1.00
H771   H     0.87326   0.33712   0.71058   0.00000  Uiso   1.00
H772   H     0.79267   0.66469   0.79001   0.00000  Uiso   1.00
H773   H     0.93677   0.49419   0.92731   0.00000  Uiso   1.00
H774   H     0.94904   0.47052   0.99338   0.00000  Uiso   1.00
H775   H     0.80134   0.49152   0.58023   0.00000  Uiso   1.00
H776   H     0.74183   0.53918   0.92549   0.00000  Uiso   1.00
H777   H     0.76177   0.51301   0.54788   0.00000  Uiso   1.00
H778   H     0.71735   0.53483   0.50643   0.00000  Uiso   1.00
O779   O     0.83333   0.50000   0.75000   0.00000  Uiso   1.00
O780   O     0.82118   0.45970   0.65459   0.00000  Uiso   1.00
O781   O     0.79607   0.53724   0.84968   0.00000  Uiso   1.00
O782   O     0.87491   0.51092   0.64606   0.00000  Uiso   1.00
O783   O     0.84118   0.49213   0.84968   0.00000  Uiso   1.00
O784   O     0.84597   0.41352   0.78214   0.00000  Uiso   1.00
O785   O     0.81298   0.59418   0.77014   0.00000  Uiso   1.00
O786   O     0.74078   0.46625   0.73413   0.00000  Uiso   1.00
O787   O     0.93360   0.52605   0.71361   0.00000  Uiso   1.00
O788   O     0.73738   0.52211   0.78213   0.00000  Uiso   1.00
O789   O     0.92158   0.48559   0.77014   0.00000  Uiso   1.00
O790   O     0.80426   0.40277   0.73413   0.00000  Uiso   1.00
O791   O     0.87012   0.58953   0.71361   0.00000  Uiso   1.00
Zn792  Zn    0.86005   0.47327   0.78734   0.00000  Uiso   1.00
Zn793  Zn    0.80046   0.45791   0.71876   0.00000  Uiso   1.00
Zn794  Zn    0.87723   0.53109   0.70657   0.00000  Uiso   1.00
Zn795  Zn    0.79560   0.53773   0.78734   0.00000  Uiso   1.00
C796   C     0.05296   0.82666   0.75976   0.00000  Uiso   1.00
C797   C     0.16600   0.81985   0.55951   0.00000  Uiso   1.00
C798   C     0.23662   0.80297   0.55690   0.00000  Uiso   1.00
C799   C     0.28080   0.84043   0.74004   0.00000  Uiso   1.00
C800   C     0.13856   0.85620   0.92012   0.00000  Uiso   1.00
C801   C     0.32659   0.84254   0.73586   0.00000  Uiso   1.00
C802   C     0.00771   0.82414   0.76460   0.00000  Uiso   1.00
C803   C     0.18054   0.98922   0.73625   0.00000  Uiso   1.00
C804   C     0.15229   0.67847   0.76409   0.00000  Uiso   1.00
C805   C     0.15633   0.72258   0.76019   0.00000  Uiso   1.00
C806   C     0.17665   0.94461   0.74011   0.00000  Uiso   1.00
C807   C     0.08289   0.86186   0.98911   0.00000  Uiso   1.00
C808   C     0.18562   0.81505   0.62941   0.00000  Uiso   1.00
C809   C     0.14908   0.85172   0.87083   0.00000  Uiso   1.00
C810   C     0.24971   0.80813   0.51134   0.00000  Uiso   1.00
C811   C     0.19507   0.80944   0.58102   0.00000  Uiso   1.00
C812   C     0.09722   0.86492   0.94322   0.00000  Uiso   1.00
C813   C     0.10903   0.84904   0.51263   0.00000  Uiso   1.00
C814   C     0.15135   0.84072   0.99079   0.00000  Uiso   1.00
C815   C     0.16687   0.84674   0.94426   0.00000  Uiso   1.00
C816   C     0.17892   0.82693   0.51356   0.00000  Uiso   1.00
C817   C     0.22172   0.82112   0.98974   0.00000  Uiso   1.00
C818   C     0.23702   0.83018   0.94512   0.00000  Uiso   1.00
C819   C     0.21040   0.84369   0.92301   0.00000  Uiso   1.00
F820   F     0.31448   0.80388   0.79968   0.00000  Uiso   1.00
H821   H     0.25948   0.79571   0.57381   0.00000  Uiso   1.00
H822   H     0.22489   0.85260   0.88927   0.00000  Uiso   1.00
H823   H     0.01562   0.85923   0.70889   0.00000  Uiso   1.00
H824   H     0.20659   0.67046   0.71058   0.00000  Uiso   1.00
H825   H     0.12600   0.99803   0.79001   0.00000  Uiso   1.00
H826   H     0.27010   0.82753   0.92731   0.00000  Uiso   1.00
H827   H     0.28238   0.80385   0.99338   0.00000  Uiso   1.00
H828   H     0.13468   0.82485   0.58023   0.00000  Uiso   1.00
H829   H     0.07516   0.87251   0.92549   0.00000  Uiso   1.00
H830   H     0.09510   0.84634   0.54788   0.00000  Uiso   1.00
H831   H     0.05068   0.86816   0.50643   0.00000  Uiso   1.00
O832   O     0.16667   0.83333   0.75000   0.00000  Uiso   1.00
O833   O     0.15451   0.79304   0.65459   0.00000  Uiso   1.00
O834   O     0.12940   0.87058   0.84968   0.00000  Uiso   1.00
O835   O     0.20824   0.84425   0.64606   0.00000  Uiso   1.00
O836   O     0.17451   0.82546   0.84968   0.00000  Uiso   1.00
O837   O     0.17930   0.74686   0.78214   0.00000  Uiso   1.00
O838   O     0.14632   0.92751   0.77014   0.00000  Uiso   1.00
O839   O     0.07412   0.79958   0.73413   0.00000  Uiso   1.00
O840   O     0.26693   0.85939   0.71361   0.00000  Uiso   1.00
O841   O     0.07071   0.85544   0.78213   0.00000  Uiso   1.00
O842   O     0.25491   0.81892   0.77014   0.00000  Uiso   1.00
O843   O     0.13760   0.73610   0.73413   0.00000  Uiso   1.00
O844   O     0.20345   0.92286   0.71361   0.00000  Uiso   1.00
Zn845  Zn    0.19338   0.80661   0.78734   0.00000  Uiso   1.00
Zn846  Zn    0.13379   0.79124   0.71876   0.00000  Uiso   1.00
Zn847  Zn    0.21056   0.86442   0.70657   0.00000  Uiso   1.00
Zn848  Zn    0.12893   0.87106   0.78734   0.00000  Uiso   1.00
C849   C     0.38629   0.82666   0.75976   0.00000  Uiso   1.00
C850   C     0.49933   0.81985   0.55951   0.00000  Uiso   1.00
C851   C     0.56995   0.80297   0.55690   0.00000  Uiso   1.00
C852   C     0.61414   0.84043   0.74004   0.00000  Uiso   1.00
C853   C     0.47189   0.85620   0.92012   0.00000  Uiso   1.00
C854   C     0.65992   0.84254   0.73586   0.00000  Uiso   1.00
C855   C     0.34104   0.82414   0.76460   0.00000  Uiso   1.00
C856   C     0.51387   0.98922   0.73625   0.00000  Uiso   1.00
C857   C     0.48563   0.67847   0.76409   0.00000  Uiso   1.00
C858   C     0.48966   0.72258   0.76019   0.00000  Uiso   1.00
C859   C     0.50998   0.94461   0.74011   0.00000  Uiso   1.00
C860   C     0.41623   0.86186   0.98911   0.00000  Uiso   1.00
C861   C     0.51896   0.81505   0.62941   0.00000  Uiso   1.00
C862   C     0.48241   0.85172   0.87083   0.00000  Uiso   1.00
C863   C     0.58304   0.80813   0.51134   0.00000  Uiso   1.00
C864   C     0.52841   0.80944   0.58102   0.00000  Uiso   1.00
C865   C     0.43055   0.86492   0.94322   0.00000  Uiso   1.00
C866   C     0.44236   0.84904   0.51263   0.00000  Uiso   1.00
C867   C     0.48468   0.84072   0.99079   0.00000  Uiso   1.00
C868   C     0.50021   0.84674   0.94426   0.00000  Uiso   1.00
C869   C     0.51225   0.82693   0.51356   0.00000  Uiso   1.00
C870   C     0.55505   0.82112   0.98974   0.00000  Uiso   1.00
C871   C     0.57035   0.83018   0.94512   0.00000  Uiso   1.00
C872   C     0.54373   0.84369   0.92301   0.00000  Uiso   1.00
F873   F     0.64781   0.80388   0.79968   0.00000  Uiso   1.00
H874   H     0.59282   0.79571   0.57381   0.00000  Uiso   1.00
H875   H     0.55823   0.85260   0.88927   0.00000  Uiso   1.00
H876   H     0.34896   0.85923   0.70889   0.00000  Uiso   1.00
H877   H     0.53992   0.67046   0.71058   0.00000  Uiso   1.00
H878   H     0.45933   0.99803   0.79001   0.00000  Uiso   1.00
H879   H     0.60343   0.82753   0.92731   0.00000  Uiso   1.00
H880   H     0.61571   0.80385   0.99338   0.00000  Uiso   1.00
H881   H     0.46801   0.82485   0.58023   0.00000  Uiso   1.00
H882   H     0.40850   0.87251   0.92549   0.00000  Uiso   1.00
H883   H     0.42844   0.84634   0.54788   0.00000  Uiso   1.00
H884   H     0.38402   0.86816   0.50643   0.00000  Uiso   1.00
O885   O     0.50000   0.83333   0.75000   0.00000  Uiso   1.00
O886   O     0.48784   0.79304   0.65459   0.00000  Uiso   1.00
O887   O     0.46274   0.87058   0.84968   0.00000  Uiso   1.00
O888   O     0.54157   0.84425   0.64606   0.00000  Uiso   1.00
O889   O     0.50785   0.82546   0.84968   0.00000  Uiso   1.00
O890   O     0.51264   0.74686   0.78214   0.00000  Uiso   1.00
O891   O     0.47965   0.92751   0.77014   0.00000  Uiso   1.00
O892   O     0.40745   0.79958   0.73413   0.00000  Uiso   1.00
O893   O     0.60026   0.85939   0.71361   0.00000  Uiso   1.00
O894   O     0.40405   0.85544   0.78213   0.00000  Uiso   1.00
O895   O     0.58824   0.81892   0.77014   0.00000  Uiso   1.00
O896   O     0.47093   0.73610   0.73413   0.00000  Uiso   1.00
O897   O     0.53678   0.92286   0.71361   0.00000  Uiso   1.00
Zn898  Zn    0.52672   0.80661   0.78734   0.00000  Uiso   1.00
Zn899  Zn    0.46713   0.79124   0.71876   0.00000  Uiso   1.00
Zn900  Zn    0.54389   0.86442   0.70657   0.00000  Uiso   1.00
Zn901  Zn    0.46226   0.87106   0.78734   0.00000  Uiso   1.00
C902   C     0.71962   0.82666   0.75976   0.00000  Uiso   1.00
C903   C     0.83267   0.81985   0.55951   0.00000  Uiso   1.00
C904   C     0.90329   0.80297   0.55690   0.00000  Uiso   1.00
C905   C     0.94747   0.84043   0.74004   0.00000  Uiso   1.00
C906   C     0.80523   0.85620   0.92012   0.00000  Uiso   1.00
C907   C     0.99325   0.84254   0.73586   0.00000  Uiso   1.00
C908   C     0.67438   0.82414   0.76460   0.00000  Uiso   1.00
C909   C     0.84721   0.98922   0.73625   0.00000  Uiso   1.00
C910   C     0.81896   0.67847   0.76409   0.00000  Uiso   1.00
C911   C     0.82299   0.72258   0.76019   0.00000  Uiso   1.00
C912   C     0.84332   0.94461   0.74011   0.00000  Uiso   1.00
C913   C     0.74956   0.86186   0.98911   0.00000  Uiso   1.00
C914   C     0.85229   0.81505   0.62941   0.00000  Uiso   1.00
C915   C     0.81575   0.85172   0.87083   0.00000  Uiso   1.00
C916   C     0.91637   0.80813   0.51134   0.00000  Uiso   1.00
C917   C     0.86174   0.80944   0.58102   0.00000  Uiso   1.00
C918   C     0.76388   0.86492   0.94322   0.00000  Uiso   1.00
C919   C     0.77570   0.84904   0.51263   0.00000  Uiso   1.00
C920   C     0.81802   0.84072   0.99079   0.00000  Uiso   1.00
C921   C     0.83354   0.84674   0.94426   0.00000  Uiso   1.00
C922   C     0.84558   0.82693   0.51356   0.00000  Uiso   1.00
C923   C     0.88839   0.82112   0.98974   0.00000  Uiso   1.00
C924   C     0.90369   0.83018   0.94512   0.00000  Uiso   1.00
C925   C     0.87706   0.84369   0.92301   0.00000  Uiso   1.00
F926   F     0.98115   0.80388   0.79968   0.00000  Uiso   1.00
H927   H     0.92615   0.79571   0.57381   0.00000  Uiso   1.00
H928   H     0.89156   0.85260   0.88927   0.00000  Uiso   1.00
H929   H     0.68229   0.85923   0.70889   0.00000  Uiso   1.00
H930   H     0.87326   0.67046   0.71058   0.00000  Uiso   1.00
H931   H     0.79267   0.99803   0.79001   0.00000  Uiso   1.00
H932   H     0.93677   0.82753   0.92731   0.00000  Uiso   1.00
H933   H     0.94904   0.80385   0.99338   0.00000  Uiso   1.00
H934   H     0.80134   0.82485   0.58023   0.00000  Uiso   1.00
H935   H     0.74183   0.87251   0.92549   0.00000  Uiso   1.00
H936   H     0.76177   0.84634   0.54788   0.00000  Uiso   1.00
H937   H     0.71735   0.86816   0.50643   0.00000  Uiso   1.00
O938   O     0.83333   0.83333   0.75000   0.00000  Uiso   1.00
O939   O     0.82118   0.79304   0.65459   0.00000  Uiso   1.00
O940   O     0.79607   0.87058   0.84968   0.00000  Uiso   1.00
O941   O     0.87491   0.84425   0.64606   0.00000  Uiso   1.00
O942   O     0.84118   0.82546   0.84968   0.00000  Uiso   1.00
O943   O     0.84597   0.74686   0.78214   0.00000  Uiso   1.00
O944   O     0.81298   0.92751   0.77014   0.00000  Uiso   1.00
O945   O     0.74078   0.79958   0.73413   0.00000  Uiso   1.00
O946   O     0.93360   0.85939   0.71361   0.00000  Uiso   1.00
O947   O     0.73738   0.85544   0.78213   0.00000  Uiso   1.00
O948   O     0.92158   0.81892   0.77014   0.00000  Uiso   1.00
O949   O     0.80426   0.73610   0.73413   0.00000  Uiso   1.00
O950   O     0.87012   0.92286   0.71361   0.00000  Uiso   1.00
Zn951  Zn    0.86005   0.80661   0.78734   0.00000  Uiso   1.00
Zn952  Zn    0.80046   0.79124   0.71876   0.00000  Uiso   1.00
Zn953  Zn    0.87723   0.86442   0.70657   0.00000  Uiso   1.00
Zn954  Zn    0.79560   0.87106   0.78734   0.00000  Uiso   1.00
loop_
_geom_bond_atom_site_label_1
_geom_bond_atom_site_label_2
_geom_bond_distance
_geom_bond_site_symmetry_2
_ccdc_geom_bond_type
C1     O44     1.273   .     A
C1     O46     1.271   .     A
C1     C7      1.434   .     S
C2     C16     1.393   .     A
C2     C21     1.411   .     A
C2     H33     1.077   .     S
C3     C15     1.387   .     A
C3     H26     1.084   .     S
C3     C16     1.396   .     A
C4     O45     1.282   .     A
C4     C6      1.456   .     S
C4     O47     1.273   .     A
C5     C14     1.474   .     S
C5     C20     1.418   .     A
C5     C17     1.402   .     A
C6     C60     1.340   .     S
C6     H81     1.088   .     S
C7     C112    1.340   1_455 S
C7     F131    1.361   1_455 S
C8     C11     1.451   .     S
C8     C168    1.332   .     S
C8     H188    1.088   .     S
C9     C10     1.435   .     S
C9     C326    1.332   1_545 S
C9     H348    1.086   1_545 S
C10    O48     1.280   .     A
C10    O42     1.280   .     A
C11    O43     1.271   .     A
C11    O49     1.271   .     A
C12    C17     1.387   .     A
C12    C495    1.391   .     S
C12    H513    1.083   .     S
C13    O38     1.279   .     A
C13    C16     1.450   .     S
C13    O40     1.269   .     A
C14    O41     1.282   .     A
C14    O39     1.282   .     A
C15    C499    1.400   1_554 S
C15    H509    1.084   1_554 S
C17    H34     1.083   .     S
C18    H35     1.076   .     S
C18    C489    1.391   1_554 S
C18    C496    1.417   1_554 S
C19    C20     1.423   .     A
C19    C495    1.417   .     S
C19    C498    1.426   .     S
C20    C24     1.410   .     A
C21    C496    1.426   1_554 S
C21    C499    1.424   1_554 S
C22    C23     1.390   .     A
C22    C492    1.400   .     S
C22    C498    1.424   .     S
C23    C24     1.382   .     A
C23    H31     1.084   .     S
C24    H27     1.080   .     S
F25    C60     1.361   .     S
H28    C112    1.088   1_455 S
H29    C326    1.088   1_545 S
H30    C168    1.086   .     S
H32    C492    1.084   .     S
H36    C489    1.083   1_554 S
O37    Zn53    1.934   .     S
O37    Zn50    1.957   .     S
O37    Zn51    1.954   .     S
O37    Zn52    1.930   .     S
O38    Zn51    1.932   .     S
O39    Zn53    1.944   .     S
O40    Zn52    1.944   .     S
O41    Zn50    1.932   .     S
O42    Zn50    1.929   .     S
O43    Zn53    1.927   .     S
O44    Zn51    1.929   .     S
O45    Zn52    1.940   .     S
O46    Zn53    1.939   .     S
O47    Zn50    1.927   .     S
O48    Zn51    1.931   .     S
O49    Zn52    1.929   .     S
C54    O97     1.273   .     A
C54    O99     1.271   .     A
C54    C60     1.434   .     S
C55    C69     1.393   .     A
C55    C74     1.411   .     A
C55    H86     1.077   .     S
C56    C68     1.387   .     A
C56    H79     1.084   .     S
C56    C69     1.396   .     A
C57    O98     1.282   .     A
C57    C59     1.456   .     S
C57    O100    1.273   .     A
C58    C67     1.474   .     S
C58    C73     1.418   .     A
C58    C70     1.402   .     A
C59    C113    1.340   .     S
C59    H134    1.088   .     S
C61    C64     1.451   .     S
C61    C221    1.332   .     S
C61    H241    1.088   .     S
C62    C63     1.435   .     S
C62    C379    1.332   1_545 S
C62    H401    1.086   1_545 S
C63    O101    1.280   .     A
C63    O95     1.280   .     A
C64    O96     1.271   .     A
C64    O102    1.271   .     A
C65    C70     1.387   .     A
C65    C548    1.391   .     S
C65    H566    1.083   .     S
C66    O91     1.279   .     A
C66    C69     1.450   .     S
C66    O93     1.269   .     A
C67    O94     1.282   .     A
C67    O92     1.282   .     A
C68    C552    1.400   1_554 S
C68    H562    1.084   1_554 S
C70    H87     1.083   .     S
C71    H88     1.076   .     S
C71    C542    1.391   1_554 S
C71    C549    1.417   1_554 S
C72    C73     1.423   .     A
C72    C548    1.417   .     S
C72    C551    1.426   .     S
C73    C77     1.410   .     A
C74    C549    1.426   1_554 S
C74    C552    1.424   1_554 S
C75    C76     1.390   .     A
C75    C545    1.400   .     S
C75    C551    1.424   .     S
C76    C77     1.382   .     A
C76    H84     1.084   .     S
C77    H80     1.080   .     S
F78    C113    1.361   .     S
H82    C379    1.088   1_545 S
H83    C221    1.086   .     S
H85    C545    1.084   .     S
H89    C542    1.083   1_554 S
O90    Zn106   1.934   .     S
O90    Zn103   1.957   .     S
O90    Zn104   1.954   .     S
O90    Zn105   1.930   .     S
O91    Zn104   1.932   .     S
O92    Zn106   1.944   .     S
O93    Zn105   1.944   .     S
O94    Zn103   1.932   .     S
O95    Zn103   1.929   .     S
O96    Zn106   1.927   .     S
O97    Zn104   1.929   .     S
O98    Zn105   1.940   .     S
O99    Zn106   1.939   .     S
O100   Zn103   1.927   .     S
O101   Zn104   1.931   .     S
O102   Zn105   1.929   .     S
C107   O150    1.273   .     A
C107   O152    1.271   .     A
C107   C113    1.434   .     S
C108   C122    1.393   .     A
C108   C127    1.411   .     A
C108   H139    1.077   .     S
C109   C121    1.387   .     A
C109   H132    1.084   .     S
C109   C122    1.396   .     A
C110   O151    1.282   .     A
C110   C112    1.456   .     S
C110   O153    1.273   .     A
C111   C120    1.474   .     S
C111   C126    1.418   .     A
C111   C123    1.402   .     A
C112   C7      1.340   1_655 S
C112   H28     1.088   1_655 S
C114   C117    1.451   .     S
C114   C274    1.332   .     S
C114   H294    1.088   .     S
C115   C116    1.435   .     S
C115   C432    1.332   1_545 S
C115   H454    1.086   1_545 S
C116   O154    1.280   .     A
C116   O148    1.280   .     A
C117   O149    1.271   .     A
C117   O155    1.271   .     A
C118   C123    1.387   .     A
C118   C601    1.391   .     S
C118   H619    1.083   .     S
C119   O144    1.279   .     A
C119   C122    1.450   .     S
C119   O146    1.269   .     A
C120   O147    1.282   .     A
C120   O145    1.282   .     A
C121   C605    1.400   1_554 S
C121   H615    1.084   1_554 S
C123   H140    1.083   .     S
C124   H141    1.076   .     S
C124   C595    1.391   1_554 S
C124   C602    1.417   1_554 S
C125   C126    1.423   .     A
C125   C601    1.417   .     S
C125   C604    1.426   .     S
C126   C130    1.410   .     A
C127   C602    1.426   1_554 S
C127   C605    1.424   1_554 S
C128   C129    1.390   .     A
C128   C598    1.400   .     S
C128   C604    1.424   .     S
C129   C130    1.382   .     A
C129   H137    1.084   .     S
C130   H133    1.080   .     S
F131   C7      1.361   1_655 S
H135   C432    1.088   1_545 S
H136   C274    1.086   .     S
H138   C598    1.084   .     S
H142   C595    1.083   1_554 S
O143   Zn159   1.934   .     S
O143   Zn156   1.957   .     S
O143   Zn157   1.954   .     S
O143   Zn158   1.930   .     S
O144   Zn157   1.932   .     S
O145   Zn159   1.944   .     S
O146   Zn158   1.944   .     S
O147   Zn156   1.932   .     S
O148   Zn156   1.929   .     S
O149   Zn159   1.927   .     S
O150   Zn157   1.929   .     S
O151   Zn158   1.940   .     S
O152   Zn159   1.939   .     S
O153   Zn156   1.927   .     S
O154   Zn157   1.931   .     S
O155   Zn158   1.929   .     S
C160   O203    1.273   .     A
C160   O205    1.271   .     A
C160   C166    1.434   .     S
C161   C175    1.393   .     A
C161   C180    1.411   .     A
C161   H192    1.077   .     S
C162   C174    1.387   .     A
C162   H185    1.084   .     S
C162   C175    1.396   .     A
C163   O204    1.282   .     A
C163   C165    1.456   .     S
C163   O206    1.273   .     A
C164   C173    1.474   .     S
C164   C179    1.418   .     A
C164   C176    1.402   .     A
C165   C219    1.340   .     S
C165   H240    1.088   .     S
C166   C271    1.340   1_455 S
C166   F290    1.361   1_455 S
C167   C170    1.451   .     S
C167   C327    1.332   .     S
C167   H347    1.088   .     S
C168   C169    1.435   .     S
C169   O207    1.280   .     A
C169   O201    1.280   .     A
C170   O202    1.271   .     A
C170   O208    1.271   .     A
C171   C176    1.387   .     A
C171   C654    1.391   .     S
C171   H672    1.083   .     S
C172   O197    1.279   .     A
C172   C175    1.450   .     S
C172   O199    1.269   .     A
C173   O200    1.282   .     A
C173   O198    1.282   .     A
C174   C658    1.400   1_554 S
C174   H668    1.084   1_554 S
C176   H193    1.083   .     S
C177   H194    1.076   .     S
C177   C648    1.391   1_554 S
C177   C655    1.417   1_554 S
C178   C179    1.423   .     A
C178   C654    1.417   .     S
C178   C657    1.426   .     S
C179   C183    1.410   .     A
C180   C655    1.426   1_554 S
C180   C658    1.424   1_554 S
C181   C182    1.390   .     A
C181   C651    1.400   .     S
C181   C657    1.424   .     S
C182   C183    1.382   .     A
C182   H190    1.084   .     S
C183   H186    1.080   .     S
F184   C219    1.361   .     S
H187   C271    1.088   1_455 S
H189   C327    1.086   .     S
H191   C651    1.084   .     S
H195   C648    1.083   1_554 S
O196   Zn212   1.934   .     S
O196   Zn209   1.957   .     S
O196   Zn210   1.954   .     S
O196   Zn211   1.930   .     S
O197   Zn210   1.932   .     S
O198   Zn212   1.944   .     S
O199   Zn211   1.944   .     S
O200   Zn209   1.932   .     S
O201   Zn209   1.929   .     S
O202   Zn212   1.927   .     S
O203   Zn210   1.929   .     S
O204   Zn211   1.940   .     S
O205   Zn212   1.939   .     S
O206   Zn209   1.927   .     S
O207   Zn210   1.931   .     S
O208   Zn211   1.929   .     S
C213   O256    1.273   .     A
C213   O258    1.271   .     A
C213   C219    1.434   .     S
C214   C228    1.393   .     A
C214   C233    1.411   .     A
C214   H245    1.077   .     S
C215   C227    1.387   .     A
C215   H238    1.084   .     S
C215   C228    1.396   .     A
C216   O257    1.282   .     A
C216   C218    1.456   .     S
C216   O259    1.273   .     A
C217   C226    1.474   .     S
C217   C232    1.418   .     A
C217   C229    1.402   .     A
C218   C272    1.340   .     S
C218   H293    1.088   .     S
C220   C223    1.451   .     S
C220   C380    1.332   .     S
C220   H400    1.088   .     S
C221   C222    1.435   .     S
C222   O260    1.280   .     A
C222   O254    1.280   .     A
C223   O255    1.271   .     A
C223   O261    1.271   .     A
C224   C229    1.387   .     A
C224   C707    1.391   .     S
C224   H725    1.083   .     S
C225   O250    1.279   .     A
C225   C228    1.450   .     S
C225   O252    1.269   .     A
C226   O253    1.282   .     A
C226   O251    1.282   .     A
C227   C711    1.400   1_554 S
C227   H721    1.084   1_554 S
C229   H246    1.083   .     S
C230   H247    1.076   .     S
C230   C701    1.391   1_554 S
C230   C708    1.417   1_554 S
C231   C232    1.423   .     A
C231   C707    1.417   .     S
C231   C710    1.426   .     S
C232   C236    1.410   .     A
C233   C708    1.426   1_554 S
C233   C711    1.424   1_554 S
C234   C235    1.390   .     A
C234   C704    1.400   .     S
C234   C710    1.424   .     S
C235   C236    1.382   .     A
C235   H243    1.084   .     S
C236   H239    1.080   .     S
F237   C272    1.361   .     S
H242   C380    1.086   .     S
H244   C704    1.084   .     S
H248   C701    1.083   1_554 S
O249   Zn265   1.934   .     S
O249   Zn262   1.957   .     S
O249   Zn263   1.954   .     S
O249   Zn264   1.930   .     S
O250   Zn263   1.932   .     S
O251   Zn265   1.944   .     S
O252   Zn264   1.944   .     S
O253   Zn262   1.932   .     S
O254   Zn262   1.929   .     S
O255   Zn265   1.927   .     S
O256   Zn263   1.929   .     S
O257   Zn264   1.940   .     S
O258   Zn265   1.939   .     S
O259   Zn262   1.927   .     S
O260   Zn263   1.931   .     S
O261   Zn264   1.929   .     S
C266   O309    1.273   .     A
C266   O311    1.271   .     A
C266   C272    1.434   .     S
C267   C281    1.393   .     A
C267   C286    1.411   .     A
C267   H298    1.077   .     S
C268   C280    1.387   .     A
C268   H291    1.084   .     S
C268   C281    1.396   .     A
C269   O310    1.282   .     A
C269   C271    1.456   .     S
C269   O312    1.273   .     A
C270   C279    1.474   .     S
C270   C285    1.418   .     A
C270   C282    1.402   .     A
C271   C166    1.340   1_655 S
C271   H187    1.088   1_655 S
C273   C276    1.451   .     S
C273   C433    1.332   .     S
C273   H453    1.088   .     S
C274   C275    1.435   .     S
C275   O313    1.280   .     A
C275   O307    1.280   .     A
C276   O308    1.271   .     A
C276   O314    1.271   .     A
C277   C282    1.387   .     A
C277   C760    1.391   .     S
C277   H778    1.083   .     S
C278   O303    1.279   .     A
C278   C281    1.450   .     S
C278   O305    1.269   .     A
C279   O306    1.282   .     A
C279   O304    1.282   .     A
C280   C764    1.400   1_554 S
C280   H774    1.084   1_554 S
C282   H299    1.083   .     S
C283   H300    1.076   .     S
C283   C754    1.391   1_554 S
C283   C761    1.417   1_554 S
C284   C285    1.423   .     A
C284   C760    1.417   .     S
C284   C763    1.426   .     S
C285   C289    1.410   .     A
C286   C761    1.426   1_554 S
C286   C764    1.424   1_554 S
C287   C288    1.390   .     A
C287   C757    1.400   .     S
C287   C763    1.424   .     S
C288   C289    1.382   .     A
C288   H296    1.084   .     S
C289   H292    1.080   .     S
F290   C166    1.361   1_655 S
H295   C433    1.086   .     S
H297   C757    1.084   .     S
H301   C754    1.083   1_554 S
O302   Zn318   1.934   .     S
O302   Zn315   1.957   .     S
O302   Zn316   1.954   .     S
O302   Zn317   1.930   .     S
O303   Zn316   1.932   .     S
O304   Zn318   1.944   .     S
O305   Zn317   1.944   .     S
O306   Zn315   1.932   .     S
O307   Zn315   1.929   .     S
O308   Zn318   1.927   .     S
O309   Zn316   1.929   .     S
O310   Zn317   1.940   .     S
O311   Zn318   1.939   .     S
O312   Zn315   1.927   .     S
O313   Zn316   1.931   .     S
O314   Zn317   1.929   .     S
C319   O362    1.273   .     A
C319   O364    1.271   .     A
C319   C325    1.434   .     S
C320   C334    1.393   .     A
C320   C339    1.411   .     A
C320   H351    1.077   .     S
C321   C333    1.387   .     A
C321   H344    1.084   .     S
C321   C334    1.396   .     A
C322   O363    1.282   .     A
C322   C324    1.456   .     S
C322   O365    1.273   .     A
C323   C332    1.474   .     S
C323   C338    1.418   .     A
C323   C335    1.402   .     A
C324   C378    1.340   .     S
C324   H399    1.088   .     S
C325   C430    1.340   1_455 S
C325   F449    1.361   1_455 S
C326   C329    1.451   .     S
C326   C9      1.332   1_565 S
C326   H29     1.088   1_565 S
C327   C328    1.435   .     S
C328   O366    1.280   .     A
C328   O360    1.280   .     A
C329   O361    1.271   .     A
C329   O367    1.271   .     A
C330   C335    1.387   .     A
C330   C813    1.391   .     S
C330   H831    1.083   .     S
C331   O356    1.279   .     A
C331   C334    1.450   .     S
C331   O358    1.269   .     A
C332   O359    1.282   .     A
C332   O357    1.282   .     A
C333   C817    1.400   1_554 S
C333   H827    1.084   1_554 S
C335   H352    1.083   .     S
C336   H353    1.076   .     S
C336   C807    1.391   1_554 S
C336   C814    1.417   1_554 S
C337   C338    1.423   .     A
C337   C813    1.417   .     S
C337   C816    1.426   .     S
C338   C342    1.410   .     A
C339   C814    1.426   1_554 S
C339   C817    1.424   1_554 S
C340   C341    1.390   .     A
C340   C810    1.400   .     S
C340   C816    1.424   .     S
C341   C342    1.382   .     A
C341   H349    1.084   .     S
C342   H345    1.080   .     S
F343   C378    1.361   .     S
H346   C430    1.088   1_455 S
H348   C9      1.086   1_565 S
H350   C810    1.084   .     S
H354   C807    1.083   1_554 S
O355   Zn371   1.934   .     S
O355   Zn368   1.957   .     S
O355   Zn369   1.954   .     S
O355   Zn370   1.930   .     S
O356   Zn369   1.932   .     S
O357   Zn371   1.944   .     S
O358   Zn370   1.944   .     S
O359   Zn368   1.932   .     S
O360   Zn368   1.929   .     S
O361   Zn371   1.927   .     S
O362   Zn369   1.929   .     S
O363   Zn370   1.940   .     S
O364   Zn371   1.939   .     S
O365   Zn368   1.927   .     S
O366   Zn369   1.931   .     S
O367   Zn370   1.929   .     S
C372   O415    1.273   .     A
C372   O417    1.271   .     A
C372   C378    1.434   .     S
C373   C387    1.393   .     A
C373   C392    1.411   .     A
C373   H404    1.077   .     S
C374   C386    1.387   .     A
C374   H397    1.084   .     S
C374   C387    1.396   .     A
C375   O416    1.282   .     A
C375   C377    1.456   .     S
C375   O418    1.273   .     A
C376   C385    1.474   .     S
C376   C391    1.418   .     A
C376   C388    1.402   .     A
C377   C431    1.340   .     S
C377   H452    1.088   .     S
C379   C382    1.451   .     S
C379   C62     1.332   1_565 S
C379   H82     1.088   1_565 S
C380   C381    1.435   .     S
C381   O419    1.280   .     A
C381   O413    1.280   .     A
C382   O414    1.271   .     A
C382   O420    1.271   .     A
C383   C388    1.387   .     A
C383   C866    1.391   .     S
C383   H884    1.083   .     S
C384   O409    1.279   .     A
C384   C387    1.450   .     S
C384   O411    1.269   .     A
C385   O412    1.282   .     A
C385   O410    1.282   .     A
C386   C870    1.400   1_554 S
C386   H880    1.084   1_554 S
C388   H405    1.083   .     S
C389   H406    1.076   .     S
C389   C860    1.391   1_554 S
C389   C867    1.417   1_554 S
C390   C391    1.423   .     A
C390   C866    1.417   .     S
C390   C869    1.426   .     S
C391   C395    1.410   .     A
C392   C867    1.426   1_554 S
C392   C870    1.424   1_554 S
C393   C394    1.390   .     A
C393   C863    1.400   .     S
C393   C869    1.424   .     S
C394   C395    1.382   .     A
C394   H402    1.084   .     S
C395   H398    1.080   .     S
F396   C431    1.361   .     S
H401   C62     1.086   1_565 S
H403   C863    1.084   .     S
H407   C860    1.083   1_554 S
O408   Zn424   1.934   .     S
O408   Zn421   1.957   .     S
O408   Zn422   1.954   .     S
O408   Zn423   1.930   .     S
O409   Zn422   1.932   .     S
O410   Zn424   1.944   .     S
O411   Zn423   1.944   .     S
O412   Zn421   1.932   .     S
O413   Zn421   1.929   .     S
O414   Zn424   1.927   .     S
O415   Zn422   1.929   .     S
O416   Zn423   1.940   .     S
O417   Zn424   1.939   .     S
O418   Zn421   1.927   .     S
O419   Zn422   1.931   .     S
O420   Zn423   1.929   .     S
C425   O468    1.273   .     A
C425   O470    1.271   .     A
C425   C431    1.434   .     S
C426   C440    1.393   .     A
C426   C445    1.411   .     A
C426   H457    1.077   .     S
C427   C439    1.387   .     A
C427   H450    1.084   .     S
C427   C440    1.396   .     A
C428   O469    1.282   .     A
C428   C430    1.456   .     S
C428   O471    1.273   .     A
C429   C438    1.474   .     S
C429   C444    1.418   .     A
C429   C441    1.402   .     A
C430   C325    1.340   1_655 S
C430   H346    1.088   1_655 S
C432   C435    1.451   .     S
C432   C115    1.332   1_565 S
C432   H135    1.088   1_565 S
C433   C434    1.435   .     S
C434   O472    1.280   .     A
C434   O466    1.280   .     A
C435   O467    1.271   .     A
C435   O473    1.271   .     A
C436   C441    1.387   .     A
C436   C919    1.391   .     S
C436   H937    1.083   .     S
C437   O462    1.279   .     A
C437   C440    1.450   .     S
C437   O464    1.269   .     A
C438   O465    1.282   .     A
C438   O463    1.282   .     A
C439   C923    1.400   1_554 S
C439   H933    1.084   1_554 S
C441   H458    1.083   .     S
C442   H459    1.076   .     S
C442   C913    1.391   1_554 S
C442   C920    1.417   1_554 S
C443   C444    1.423   .     A
C443   C919    1.417   .     S
C443   C922    1.426   .     S
C444   C448    1.410   .     A
C445   C920    1.426   1_554 S
C445   C923    1.424   1_554 S
C446   C447    1.390   .     A
C446   C916    1.400   .     S
C446   C922    1.424   .     S
C447   C448    1.382   .     A
C447   H455    1.084   .     S
C448   H451    1.080   .     S
F449   C325    1.361   1_655 S
H454   C115    1.086   1_565 S
H456   C916    1.084   .     S
H460   C913    1.083   1_554 S
O461   Zn477   1.934   .     S
O461   Zn474   1.957   .     S
O461   Zn475   1.954   .     S
O461   Zn476   1.930   .     S
O462   Zn475   1.932   .     S
O463   Zn477   1.944   .     S
O464   Zn476   1.944   .     S
O465   Zn474   1.932   .     S
O466   Zn474   1.929   .     S
O467   Zn477   1.927   .     S
O468   Zn475   1.929   .     S
O469   Zn476   1.940   .     S
O470   Zn477   1.939   .     S
O471   Zn474   1.927   .     S
O472   Zn475   1.931   .     S
O473   Zn476   1.929   .     S
C478   O521    1.273   .     A
C478   O523    1.271   .     A
C478   C484    1.434   .     S
C479   C493    1.393   .     A
C479   C498    1.411   .     A
C479   H510    1.077   .     S
C480   C492    1.387   .     A
C480   H503    1.084   .     S
C480   C493    1.396   .     A
C481   O522    1.282   .     A
C481   C483    1.456   .     S
C481   O524    1.273   .     A
C482   C491    1.474   .     S
C482   C497    1.418   .     A
C482   C494    1.402   .     A
C483   C537    1.340   .     S
C483   H558    1.088   .     S
C484   C589    1.340   1_455 S
C484   F608    1.361   1_455 S
C485   C488    1.451   .     S
C485   C645    1.332   .     S
C485   H665    1.088   .     S
C486   C487    1.435   .     S
C486   C803    1.332   1_545 S
C486   H825    1.086   1_545 S
C487   O525    1.280   .     A
C487   O519    1.280   .     A
C488   O520    1.271   .     A
C488   O526    1.271   .     A
C489   C494    1.387   .     A
C489   C18     1.391   1_556 S
C489   H36     1.083   1_556 S
C490   O515    1.279   .     A
C490   C493    1.450   .     S
C490   O517    1.269   .     A
C491   O518    1.282   .     A
C491   O516    1.282   .     A
C494   H511    1.083   .     S
C495   H512    1.076   .     S
C496   C497    1.423   .     A
C496   C18     1.417   1_556 S
C496   C21     1.426   1_556 S
C497   C501    1.410   .     A
C499   C500    1.390   .     A
C499   C15     1.400   1_556 S
C499   C21     1.424   1_556 S
C500   C501    1.382   .     A
C500   H508    1.084   .     S
C501   H504    1.080   .     S
F502   C537    1.361   .     S
H505   C589    1.088   1_455 S
H506   C803    1.088   1_545 S
H507   C645    1.086   .     S
H509   C15     1.084   1_556 S
O514   Zn530   1.934   .     S
O514   Zn527   1.957   .     S
O514   Zn528   1.954   .     S
O514   Zn529   1.930   .     S
O515   Zn528   1.932   .     S
O516   Zn530   1.944   .     S
O517   Zn529   1.944   .     S
O518   Zn527   1.932   .     S
O519   Zn527   1.929   .     S
O520   Zn530   1.927   .     S
O521   Zn528   1.929   .     S
O522   Zn529   1.940   .     S
O523   Zn530   1.939   .     S
O524   Zn527   1.927   .     S
O525   Zn528   1.931   .     S
O526   Zn529   1.929   .     S
C531   O574    1.273   .     A
C531   O576    1.271   .     A
C531   C537    1.434   .     S
C532   C546    1.393   .     A
C532   C551    1.411   .     A
C532   H563    1.077   .     S
C533   C545    1.387   .     A
C533   H556    1.084   .     S
C533   C546    1.396   .     A
C534   O575    1.282   .     A
C534   C536    1.456   .     S
C534   O577    1.273   .     A
C535   C544    1.474   .     S
C535   C550    1.418   .     A
C535   C547    1.402   .     A
C536   C590    1.340   .     S
C536   H611    1.088   .     S
C538   C541    1.451   .     S
C538   C698    1.332   .     S
C538   H718    1.088   .     S
C539   C540    1.435   .     S
C539   C856    1.332   1_545 S
C539   H878    1.086   1_545 S
C540   O578    1.280   .     A
C540   O572    1.280   .     A
C541   O573    1.271   .     A
C541   O579    1.271   .     A
C542   C547    1.387   .     A
C542   C71     1.391   1_556 S
C542   H89     1.083   1_556 S
C543   O568    1.279   .     A
C543   C546    1.450   .     S
C543   O570    1.269   .     A
C544   O571    1.282   .     A
C544   O569    1.282   .     A
C547   H564    1.083   .     S
C548   H565    1.076   .     S
C549   C550    1.423   .     A
C549   C71     1.417   1_556 S
C549   C74     1.426   1_556 S
C550   C554    1.410   .     A
C552   C553    1.390   .     A
C552   C68     1.400   1_556 S
C552   C74     1.424   1_556 S
C553   C554    1.382   .     A
C553   H561    1.084   .     S
C554   H557    1.080   .     S
F555   C590    1.361   .     S
H559   C856    1.088   1_545 S
H560   C698    1.086   .     S
H562   C68     1.084   1_556 S
O567   Zn583   1.934   .     S
O567   Zn580   1.957   .     S
O567   Zn581   1.954   .     S
O567   Zn582   1.930   .     S
O568   Zn581   1.932   .     S
O569   Zn583   1.944   .     S
O570   Zn582   1.944   .     S
O571   Zn580   1.932   .     S
O572   Zn580   1.929   .     S
O573   Zn583   1.927   .     S
O574   Zn581   1.929   .     S
O575   Zn582   1.940   .     S
O576   Zn583   1.939   .     S
O577   Zn580   1.927   .     S
O578   Zn581   1.931   .     S
O579   Zn582   1.929   .     S
C584   O627    1.273   .     A
C584   O629    1.271   .     A
C584   C590    1.434   .     S
C585   C599    1.393   .     A
C585   C604    1.411   .     A
C585   H616    1.077   .     S
C586   C598    1.387   .     A
C586   H609    1.084   .     S
C586   C599    1.396   .     A
C587   O628    1.282   .     A
C587   C589    1.456   .     S
C587   O630    1.273   .     A
C588   C597    1.474   .     S
C588   C603    1.418   .     A
C588   C600    1.402   .     A
C589   C484    1.340   1_655 S
C589   H505    1.088   1_655 S
C591   C594    1.451   .     S
C591   C751    1.332   .     S
C591   H771    1.088   .     S
C592   C593    1.435   .     S
C592   C909    1.332   1_545 S
C592   H931    1.086   1_545 S
C593   O631    1.280   .     A
C593   O625    1.280   .     A
C594   O626    1.271   .     A
C594   O632    1.271   .     A
C595   C600    1.387   .     A
C595   C124    1.391   1_556 S
C595   H142    1.083   1_556 S
C596   O621    1.279   .     A
C596   C599    1.450   .     S
C596   O623    1.269   .     A
C597   O624    1.282   .     A
C597   O622    1.282   .     A
C600   H617    1.083   .     S
C601   H618    1.076   .     S
C602   C603    1.423   .     A
C602   C124    1.417   1_556 S
C602   C127    1.426   1_556 S
C603   C607    1.410   .     A
C605   C606    1.390   .     A
C605   C121    1.400   1_556 S
C605   C127    1.424   1_556 S
C606   C607    1.382   .     A
C606   H614    1.084   .     S
C607   H610    1.080   .     S
F608   C484    1.361   1_655 S
H612   C909    1.088   1_545 S
H613   C751    1.086   .     S
H615   C121    1.084   1_556 S
O620   Zn636   1.934   .     S
O620   Zn633   1.957   .     S
O620   Zn634   1.954   .     S
O620   Zn635   1.930   .     S
O621   Zn634   1.932   .     S
O622   Zn636   1.944   .     S
O623   Zn635   1.944   .     S
O624   Zn633   1.932   .     S
O625   Zn633   1.929   .     S
O626   Zn636   1.927   .     S
O627   Zn634   1.929   .     S
O628   Zn635   1.940   .     S
O629   Zn636   1.939   .     S
O630   Zn633   1.927   .     S
O631   Zn634   1.931   .     S
O632   Zn635   1.929   .     S
C637   O680    1.273   .     A
C637   O682    1.271   .     A
C637   C643    1.434   .     S
C638   C652    1.393   .     A
C638   C657    1.411   .     A
C638   H669    1.077   .     S
C639   C651    1.387   .     A
C639   H662    1.084   .     S
C639   C652    1.396   .     A
C640   O681    1.282   .     A
C640   C642    1.456   .     S
C640   O683    1.273   .     A
C641   C650    1.474   .     S
C641   C656    1.418   .     A
C641   C653    1.402   .     A
C642   C696    1.340   .     S
C642   H717    1.088   .     S
C643   C748    1.340   1_455 S
C643   F767    1.361   1_455 S
C644   C647    1.451   .     S
C644   C804    1.332   .     S
C644   H824    1.088   .     S
C645   C646    1.435   .     S
C646   O684    1.280   .     A
C646   O678    1.280   .     A
C647   O679    1.271   .     A
C647   O685    1.271   .     A
C648   C653    1.387   .     A
C648   C177    1.391   1_556 S
C648   H195    1.083   1_556 S
C649   O674    1.279   .     A
C649   C652    1.450   .     S
C649   O676    1.269   .     A
C650   O677    1.282   .     A
C650   O675    1.282   .     A
C653   H670    1.083   .     S
C654   H671    1.076   .     S
C655   C656    1.423   .     A
C655   C177    1.417   1_556 S
C655   C180    1.426   1_556 S
C656   C660    1.410   .     A
C658   C659    1.390   .     A
C658   C174    1.400   1_556 S
C658   C180    1.424   1_556 S
C659   C660    1.382   .     A
C659   H667    1.084   .     S
C660   H663    1.080   .     S
F661   C696    1.361   .     S
H664   C748    1.088   1_455 S
H666   C804    1.086   .     S
H668   C174    1.084   1_556 S
O673   Zn689   1.934   .     S
O673   Zn686   1.957   .     S
O673   Zn687   1.954   .     S
O673   Zn688   1.930   .     S
O674   Zn687   1.932   .     S
O675   Zn689   1.944   .     S
O676   Zn688   1.944   .     S
O677   Zn686   1.932   .     S
O678   Zn686   1.929   .     S
O679   Zn689   1.927   .     S
O680   Zn687   1.929   .     S
O681   Zn688   1.940   .     S
O682   Zn689   1.939   .     S
O683   Zn686   1.927   .     S
O684   Zn687   1.931   .     S
O685   Zn688   1.929   .     S
C690   O733    1.273   .     A
C690   O735    1.271   .     A
C690   C696    1.434   .     S
C691   C705    1.393   .     A
C691   C710    1.411   .     A
C691   H722    1.077   .     S
C692   C704    1.387   .     A
C692   H715    1.084   .     S
C692   C705    1.396   .     A
C693   O734    1.282   .     A
C693   C695    1.456   .     S
C693   O736    1.273   .     A
C694   C703    1.474   .     S
C694   C709    1.418   .     A
C694   C706    1.402   .     A
C695   C749    1.340   .     S
C695   H770    1.088   .     S
C697   C700    1.451   .     S
C697   C857    1.332   .     S
C697   H877    1.088   .     S
C698   C699    1.435   .     S
C699   O737    1.280   .     A
C699   O731    1.280   .     A
C700   O732    1.271   .     A
C700   O738    1.271   .     A
C701   C706    1.387   .     A
C701   C230    1.391   1_556 S
C701   H248    1.083   1_556 S
C702   O727    1.279   .     A
C702   C705    1.450   .     S
C702   O729    1.269   .     A
C703   O730    1.282   .     A
C703   O728    1.282   .     A
C706   H723    1.083   .     S
C707   H724    1.076   .     S
C708   C709    1.423   .     A
C708   C230    1.417   1_556 S
C708   C233    1.426   1_556 S
C709   C713    1.410   .     A
C711   C712    1.390   .     A
C711   C227    1.400   1_556 S
C711   C233    1.424   1_556 S
C712   C713    1.382   .     A
C712   H720    1.084   .     S
C713   H716    1.080   .     S
F714   C749    1.361   .     S
H719   C857    1.086   .     S
H721   C227    1.084   1_556 S
O726   Zn742   1.934   .     S
O726   Zn739   1.957   .     S
O726   Zn740   1.954   .     S
O726   Zn741   1.930   .     S
O727   Zn740   1.932   .     S
O728   Zn742   1.944   .     S
O729   Zn741   1.944   .     S
O730   Zn739   1.932   .     S
O731   Zn739   1.929   .     S
O732   Zn742   1.927   .     S
O733   Zn740   1.929   .     S
O734   Zn741   1.940   .     S
O735   Zn742   1.939   .     S
O736   Zn739   1.927   .     S
O737   Zn740   1.931   .     S
O738   Zn741   1.929   .     S
C743   O786    1.273   .     A
C743   O788    1.271   .     A
C743   C749    1.434   .     S
C744   C758    1.393   .     A
C744   C763    1.411   .     A
C744   H775    1.077   .     S
C745   C757    1.387   .     A
C745   H768    1.084   .     S
C745   C758    1.396   .     A
C746   O787    1.282   .     A
C746   C748    1.456   .     S
C746   O789    1.273   .     A
C747   C756    1.474   .     S
C747   C762    1.418   .     A
C747   C759    1.402   .     A
C748   C643    1.340   1_655 S
C748   H664    1.088   1_655 S
C750   C753    1.451   .     S
C750   C910    1.332   .     S
C750   H930    1.088   .     S
C751   C752    1.435   .     S
C752   O790    1.280   .     A
C752   O784    1.280   .     A
C753   O785    1.271   .     A
C753   O791    1.271   .     A
C754   C759    1.387   .     A
C754   C283    1.391   1_556 S
C754   H301    1.083   1_556 S
C755   O780    1.279   .     A
C755   C758    1.450   .     S
C755   O782    1.269   .     A
C756   O783    1.282   .     A
C756   O781    1.282   .     A
C759   H776    1.083   .     S
C760   H777    1.076   .     S
C761   C762    1.423   .     A
C761   C283    1.417   1_556 S
C761   C286    1.426   1_556 S
C762   C766    1.410   .     A
C764   C765    1.390   .     A
C764   C280    1.400   1_556 S
C764   C286    1.424   1_556 S
C765   C766    1.382   .     A
C765   H773    1.084   .     S
C766   H769    1.080   .     S
F767   C643    1.361   1_655 S
H772   C910    1.086   .     S
H774   C280    1.084   1_556 S
O779   Zn795   1.934   .     S
O779   Zn792   1.957   .     S
O779   Zn793   1.954   .     S
O779   Zn794   1.930   .     S
O780   Zn793   1.932   .     S
O781   Zn795   1.944   .     S
O782   Zn794   1.944   .     S
O783   Zn792   1.932   .     S
O784   Zn792   1.929   .     S
O785   Zn795   1.927   .     S
O786   Zn793   1.929   .     S
O787   Zn794   1.940   .     S
O788   Zn795   1.939   .     S
O789   Zn792   1.927   .     S
O790   Zn793   1.931   .     S
O791   Zn794   1.929   .     S
C796   O839    1.273   .     A
C796   O841    1.271   .     A
C796   C802    1.434   .     S
C797   C811    1.393   .     A
C797   C816    1.411   .     A
C797   H828    1.077   .     S
C798   C810    1.387   .     A
C798   H821    1.084   .     S
C798   C811    1.396   .     A
C799   O840    1.282   .     A
C799   C801    1.456   .     S
C799   O842    1.273   .     A
C800   C809    1.474   .     S
C800   C815    1.418   .     A
C800   C812    1.402   .     A
C801   C855    1.340   .     S
C801   H876    1.088   .     S
C802   C907    1.340   1_455 S
C802   F926    1.361   1_455 S
C803   C806    1.451   .     S
C803   C486    1.332   1_565 S
C803   H506    1.088   1_565 S
C804   C805    1.435   .     S
C805   O843    1.280   .     A
C805   O837    1.280   .     A
C806   O838    1.271   .     A
C806   O844    1.271   .     A
C807   C812    1.387   .     A
C807   C336    1.391   1_556 S
C807   H354    1.083   1_556 S
C808   O833    1.279   .     A
C808   C811    1.450   .     S
C808   O835    1.269   .     A
C809   O836    1.282   .     A
C809   O834    1.282   .     A
C812   H829    1.083   .     S
C813   H830    1.076   .     S
C814   C815    1.423   .     A
C814   C336    1.417   1_556 S
C814   C339    1.426   1_556 S
C815   C819    1.410   .     A
C817   C818    1.390   .     A
C817   C333    1.400   1_556 S
C817   C339    1.424   1_556 S
C818   C819    1.382   .     A
C818   H826    1.084   .     S
C819   H822    1.080   .     S
F820   C855    1.361   .     S
H823   C907    1.088   1_455 S
H825   C486    1.086   1_565 S
H827   C333    1.084   1_556 S
O832   Zn848   1.934   .     S
O832   Zn845   1.957   .     S
O832   Zn846   1.954   .     S
O832   Zn847   1.930   .     S
O833   Zn846   1.932   .     S
O834   Zn848   1.944   .     S
O835   Zn847   1.944   .     S
O836   Zn845   1.932   .     S
O837   Zn845   1.929   .     S
O838   Zn848   1.927   .     S
O839   Zn846   1.929   .     S
O840   Zn847   1.940   .     S
O841   Zn848   1.939   .     S
O842   Zn845   1.927   .     S
O843   Zn846   1.931   .     S
O844   Zn847   1.929   .     S
C849   O892    1.273   .     A
C849   O894    1.271   .     A
C849   C855    1.434   .     S
C850   C864    1.393   .     A
C850   C869    1.411   .     A
C850   H881    1.077   .     S
C851   C863    1.387   .     A
C851   H874    1.084   .     S
C851   C864    1.396   .     A
C852   O893    1.282   .     A
C852   C854    1.456   .     S
C852   O895    1.273   .     A
C853   C862    1.474   .     S
C853   C868    1.418   .     A
C853   C865    1.402   .     A
C854   C908    1.340   .     S
C854   H929    1.088   .     S
C856   C859    1.451   .     S
C856   C539    1.332   1_565 S
C856   H559    1.088   1_565 S
C857   C858    1.435   .     S
C858   O896    1.280   .     A
C858   O890    1.280   .     A
C859   O891    1.271   .     A
C859   O897    1.271   .     A
C860   C865    1.387   .     A
C860   C389    1.391   1_556 S
C860   H407    1.083   1_556 S
C861   O886    1.279   .     A
C861   C864    1.450   .     S
C861   O888    1.269   .     A
C862   O889    1.282   .     A
C862   O887    1.282   .     A
C865   H882    1.083   .     S
C866   H883    1.076   .     S
C867   C868    1.423   .     A
C867   C389    1.417   1_556 S
C867   C392    1.426   1_556 S
C868   C872    1.410   .     A
C870   C871    1.390   .     A
C870   C386    1.400   1_556 S
C870   C392    1.424   1_556 S
C871   C872    1.382   .     A
C871   H879    1.084   .     S
C872   H875    1.080   .     S
F873   C908    1.361   .     S
H878   C539    1.086   1_565 S
H880   C386    1.084   1_556 S
O885   Zn901   1.934   .     S
O885   Zn898   1.957   .     S
O885   Zn899   1.954   .     S
O885   Zn900   1.930   .     S
O886   Zn899   1.932   .     S
O887   Zn901   1.944   .     S
O888   Zn900   1.944   .     S
O889   Zn898   1.932   .     S
O890   Zn898   1.929   .     S
O891   Zn901   1.927   .     S
O892   Zn899   1.929   .     S
O893   Zn900   1.940   .     S
O894   Zn901   1.939   .     S
O895   Zn898   1.927   .     S
O896   Zn899   1.931   .     S
O897   Zn900   1.929   .     S
C902   O945    1.273   .     A
C902   O947    1.271   .     A
C902   C908    1.434   .     S
C903   C917    1.393   .     A
C903   C922    1.411   .     A
C903   H934    1.077   .     S
C904   C916    1.387   .     A
C904   H927    1.084   .     S
C904   C917    1.396   .     A
C905   O946    1.282   .     A
C905   C907    1.456   .     S
C905   O948    1.273   .     A
C906   C915    1.474   .     S
C906   C921    1.418   .     A
C906   C918    1.402   .     A
C907   C802    1.340   1_655 S
C907   H823    1.088   1_655 S
C909   C912    1.451   .     S
C909   C592    1.332   1_565 S
C909   H612    1.088   1_565 S
C910   C911    1.435   .     S
C911   O949    1.280   .     A
C911   O943    1.280   .     A
C912   O944    1.271   .     A
C912   O950    1.271   .     A
C913   C918    1.387   .     A
C913   C442    1.391   1_556 S
C913   H460    1.083   1_556 S
C914   O939    1.279   .     A
C914   C917    1.450   .     S
C914   O941    1.269   .     A
C915   O942    1.282   .     A
C915   O940    1.282   .     A
C918   H935    1.083   .     S
C919   H936    1.076   .     S
C920   C921    1.423   .     A
C920   C442    1.417   1_556 S
C920   C445    1.426   1_556 S
C921   C925    1.410   .     A
C923   C924    1.390   .     A
C923   C439    1.400   1_556 S
C923   C445    1.424   1_556 S
C924   C925    1.382   .     A
C924   H932    1.084   .     S
C925   H928    1.080   .     S
F926   C802    1.361   1_655 S
H931   C592    1.086   1_565 S
H933   C439    1.084   1_556 S
O938   Zn954   1.934   .     S
O938   Zn951   1.957   .     S
O938   Zn952   1.954   .     S
O938   Zn953   1.930   .     S
O939   Zn952   1.932   .     S
O940   Zn954   1.944   .     S
O941   Zn953   1.944   .     S
O942   Zn951   1.932   .     S
O943   Zn951   1.929   .     S
O944   Zn954   1.927   .     S
O945   Zn952   1.929   .     S
O946   Zn953   1.940   .     S
O947   Zn954   1.939   .     S
O948   Zn951   1.927   .     S
O949   Zn952   1.931   .     S
O950   Zn953   1.929   .     S
