data_str_m1_o5_o17_pcu_sym.61
_audit_creation_date              2020-01-03
_audit_creation_method            'Materials Studio'
_symmetry_space_group_name_H-M    'P1'
_symmetry_Int_Tables_number       1
_symmetry_cell_setting            triclinic
loop_
_symmetry_equiv_pos_as_xyz
  x,y,z
_cell_length_a                    31.7768
_cell_length_b                    31.7768
_cell_length_c                    34.5002
_cell_angle_alpha                 89.9994
_cell_angle_beta                  89.9994
_cell_angle_gamma                 90.0707
loop_
_atom_site_label
_atom_site_type_symbol
_atom_site_fract_x
_atom_site_fract_y
_atom_site_fract_z
_atom_site_U_iso_or_equiv
_atom_site_adp_type
_atom_site_occupancy
C1     C     0.25000   0.00000   0.35593   0.00000  Uiso   1.00
C2     C     0.33002   0.41998   0.75000   0.00000  Uiso   1.00
C3     C     0.42425   0.23422   0.02091   0.00000  Uiso   1.00
C4     C     0.26578   0.07575   0.97909   0.00000  Uiso   1.00
C5     C     0.23146   0.42482   0.02003   0.00000  Uiso   1.00
C6     C     0.42482   0.23137   0.97998   0.00000  Uiso   1.00
C7     C     0.07575   0.26571   0.02090   0.00000  Uiso   1.00
C8     C     0.48110   0.32592   0.39687   0.00000  Uiso   1.00
C9     C     0.45212   0.18782   0.60257   0.00000  Uiso   1.00
C10    C     0.18781   0.45212   0.39741   0.00000  Uiso   1.00
C11    C     0.32593   0.48110   0.60313   0.00000  Uiso   1.00
C12    C     0.01890   0.17407   0.39687   0.00000  Uiso   1.00
C13    C     0.41998   0.16999   0.25000   0.00000  Uiso   1.00
C14    C     0.04788   0.31219   0.60259   0.00000  Uiso   1.00
C15    C     0.31218   0.04788   0.39743   0.00000  Uiso   1.00
C16    C     0.17408   0.01890   0.60313   0.00000  Uiso   1.00
C17    C     0.23126   0.07597   0.89687   0.00000  Uiso   1.00
C18    C     0.20199   0.43792   0.10257   0.00000  Uiso   1.00
C19    C     0.43791   0.20198   0.89741   0.00000  Uiso   1.00
C20    C     0.07597   0.23126   0.10314   0.00000  Uiso   1.00
C21    C     0.26874   0.42403   0.89687   0.00000  Uiso   1.00
C22    C     0.29802   0.06209   0.10259   0.00000  Uiso   1.00
C23    C     0.06208   0.29801   0.89744   0.00000  Uiso   1.00
C24    C     0.08001   0.33001   0.75000   0.00000  Uiso   1.00
C25    C     0.42403   0.26874   0.10313   0.00000  Uiso   1.00
C26    C     0.47099   0.13602   0.45734   0.00000  Uiso   1.00
C27    C     0.02308   0.36566   0.54140   0.00000  Uiso   1.00
C28    C     0.36566   0.02297   0.45858   0.00000  Uiso   1.00
C29    C     0.13600   0.47099   0.54267   0.00000  Uiso   1.00
C30    C     0.02901   0.36400   0.45733   0.00000  Uiso   1.00
C31    C     0.47703   0.13434   0.54142   0.00000  Uiso   1.00
C32    C     0.13434   0.47692   0.45860   0.00000  Uiso   1.00
C33    C     0.36398   0.02901   0.54266   0.00000  Uiso   1.00
C34    C     0.22076   0.38607   0.95734   0.00000  Uiso   1.00
C35    C     0.33002   0.41998   0.25000   0.00000  Uiso   1.00
C36    C     0.27340   0.11561   0.04139   0.00000  Uiso   1.00
C37    C     0.11561   0.27323   0.95859   0.00000  Uiso   1.00
C38    C     0.38608   0.22069   0.04269   0.00000  Uiso   1.00
C39    C     0.27931   0.11392   0.95731   0.00000  Uiso   1.00
C40    C     0.22677   0.38439   0.04141   0.00000  Uiso   1.00
C41    C     0.38439   0.22660   0.95861   0.00000  Uiso   1.00
C42    C     0.11393   0.27924   0.04266   0.00000  Uiso   1.00
C43    C     0.16998   0.08002   0.75000   0.00000  Uiso   1.00
C44    C     0.08001   0.33002   0.25000   0.00000  Uiso   1.00
C45    C     0.41999   0.16999   0.75000   0.00000  Uiso   1.00
C46    C     0.16998   0.41998   0.75000   0.00000  Uiso   1.00
C47    C     0.33001   0.08001   0.25000   0.00000  Uiso   1.00
C48    C     0.41998   0.33002   0.75000   0.00000  Uiso   1.00
C49    C     0.25000   0.00000   0.64422   0.00000  Uiso   1.00
C50    C     0.08002   0.16998   0.25000   0.00000  Uiso   1.00
C51    C     0.33001   0.08002   0.75000   0.00000  Uiso   1.00
C52    C     0.16999   0.41999   0.25000   0.00000  Uiso   1.00
C53    C     0.08002   0.16998   0.75000   0.00000  Uiso   1.00
C54    C     0.41998   0.33002   0.25000   0.00000  Uiso   1.00
C55    C     0.13834   0.38834   0.25000   0.00000  Uiso   1.00
C56    C     0.36167   0.11167   0.75000   0.00000  Uiso   1.00
C57    C     0.11167   0.13833   0.25000   0.00000  Uiso   1.00
C58    C     0.38833   0.36167   0.75000   0.00000  Uiso   1.00
C59    C     0.36166   0.11166   0.25000   0.00000  Uiso   1.00
C60    C    -0.00000   0.25000   0.35578   0.00000  Uiso   1.00
C61    C     0.13833   0.38833   0.75000   0.00000  Uiso   1.00
C62    C     0.38833   0.36167   0.25000   0.00000  Uiso   1.00
C63    C     0.11167   0.13833   0.75000   0.00000  Uiso   1.00
C64    C     0.13833   0.11167   0.75000   0.00000  Uiso   1.00
C65    C     0.36167   0.38833   0.25000   0.00000  Uiso   1.00
C66    C     0.11166   0.36166   0.75000   0.00000  Uiso   1.00
C67    C     0.38833   0.13833   0.25000   0.00000  Uiso   1.00
C68    C     0.36167   0.38833   0.75000   0.00000  Uiso   1.00
C69    C     0.13833   0.11167   0.25000   0.00000  Uiso   1.00
C70    C     0.38834   0.13834   0.75000   0.00000  Uiso   1.00
C71    C     0.00000   0.25000   0.64407   0.00000  Uiso   1.00
C72    C     0.11167   0.36167   0.25000   0.00000  Uiso   1.00
C73    C     0.49641   0.28818   0.41823   0.00000  Uiso   1.00
C74    C     0.48079   0.21674   0.58120   0.00000  Uiso   1.00
C75    C     0.21673   0.48078   0.41880   0.00000  Uiso   1.00
C76    C     0.28817   0.49640   0.58177   0.00000  Uiso   1.00
C77    C     0.00360   0.21183   0.41823   0.00000  Uiso   1.00
C78    C     0.01922   0.28327   0.58121   0.00000  Uiso   1.00
C79    C     0.28326   0.01921   0.41880   0.00000  Uiso   1.00
C80    C     0.21182   0.00359   0.58177   0.00000  Uiso   1.00
C81    C     0.24650   0.03818   0.91823   0.00000  Uiso   1.00
C82    C    -0.00000   0.25000   0.85594   0.00000  Uiso   1.00
C83    C     0.23072   0.46678   0.08120   0.00000  Uiso   1.00
C84    C     0.46677   0.23070   0.91880   0.00000  Uiso   1.00
C85    C     0.03818   0.24648   0.08177   0.00000  Uiso   1.00
C86    C     0.25352   0.46182   0.91823   0.00000  Uiso   1.00
C87    C     0.26930   0.03323   0.08120   0.00000  Uiso   1.00
C88    C     0.03322   0.26928   0.91880   0.00000  Uiso   1.00
C89    C     0.46182   0.25350   0.08177   0.00000  Uiso   1.00
C90    C     0.00000   0.25000   0.39808   0.00000  Uiso   1.00
C91    C     0.00000   0.25000   0.60151   0.00000  Uiso   1.00
C92    C     0.25000  -0.00000   0.39849   0.00000  Uiso   1.00
C93    C    -0.00000   0.25000   0.14422   0.00000  Uiso   1.00
C94    C     0.25000  -0.00000   0.60192   0.00000  Uiso   1.00
C95    C     0.25000   0.00000   0.89808   0.00000  Uiso   1.00
C96    C     0.25000   0.00001   0.10151   0.00000  Uiso   1.00
C97    C     0.49999   0.25000   0.89849   0.00000  Uiso   1.00
C98    C    -0.00000   0.25000   0.10192   0.00000  Uiso   1.00
C99    C     0.49569   0.21149   0.45875   0.00000  Uiso   1.00
C100   C     0.01243   0.28678   0.54061   0.00000  Uiso   1.00
C101   C     0.28677   0.01240   0.45939   0.00000  Uiso   1.00
C102   C     0.21149   0.49567   0.54125   0.00000  Uiso   1.00
C103   C     0.00433   0.28851   0.45875   0.00000  Uiso   1.00
C104   C     0.25000   0.00000   0.85578   0.00000  Uiso   1.00
C105   C     0.48760   0.21323   0.54061   0.00000  Uiso   1.00
C106   C     0.21322   0.48757   0.45940   0.00000  Uiso   1.00
C107   C     0.28851   0.00431   0.54125   0.00000  Uiso   1.00
C108   C     0.24561   0.46150   0.95875   0.00000  Uiso   1.00
C109   C     0.26252   0.03675   0.04060   0.00000  Uiso   1.00
C110   C     0.03674   0.26247   0.95940   0.00000  Uiso   1.00
C111   C     0.46150   0.24557   0.04125   0.00000  Uiso   1.00
C112   C     0.25443   0.03850   0.95875   0.00000  Uiso   1.00
C113   C     0.23753   0.46326   0.04060   0.00000  Uiso   1.00
C114   C     0.46325   0.23748   0.95940   0.00000  Uiso   1.00
C115   C     0.25000   0.00000   0.14406   0.00000  Uiso   1.00
C116   C     0.03850   0.25439   0.04125   0.00000  Uiso   1.00
C117   C     0.00001   0.25000   0.47928   0.00000  Uiso   1.00
C118   C     0.00001   0.25000   0.52012   0.00000  Uiso   1.00
C119   C     0.25000   0.49999   0.47988   0.00000  Uiso   1.00
C120   C     0.25000   0.49999   0.52072   0.00000  Uiso   1.00
C121   C     0.25003   0.00000   0.97928   0.00000  Uiso   1.00
C122   C     0.25003   0.00000   0.02012   0.00000  Uiso   1.00
C123   C    -0.00000   0.24997   0.97988   0.00000  Uiso   1.00
C124   C    -0.00000   0.24997   0.02072   0.00000  Uiso   1.00
C125   C     0.48444   0.17422   0.47911   0.00000  Uiso   1.00
C126   C     0.16998   0.08002   0.25000   0.00000  Uiso   1.00
C127   C     0.01843   0.32522   0.52003   0.00000  Uiso   1.00
C128   C     0.32522   0.01838   0.47997   0.00000  Uiso   1.00
C129   C     0.17422   0.48442   0.52090   0.00000  Uiso   1.00
C130   C     0.01558   0.32578   0.47910   0.00000  Uiso   1.00
C131   C     0.48162   0.17478   0.52003   0.00000  Uiso   1.00
C132   C     0.17478   0.48157   0.47998   0.00000  Uiso   1.00
C133   C     0.32578   0.01556   0.52089   0.00000  Uiso   1.00
C134   C     0.23429   0.42425   0.97910   0.00000  Uiso   1.00
C135   C     0.26863   0.07518   0.02002   0.00000  Uiso   1.00
C136   C     0.07518   0.26854   0.97997   0.00000  Uiso   1.00
H137   H     0.49113   0.33188   0.36731   0.00000  Uiso   1.00
H138   H     0.21074   0.42565   0.13078   0.00000  Uiso   1.00
H139   H     0.42559   0.21078   0.86922   0.00000  Uiso   1.00
H140   H     0.08189   0.24130   0.13270   0.00000  Uiso   1.00
H141   H     0.25870   0.41811   0.86730   0.00000  Uiso   1.00
H142   H     0.28922   0.07441   0.13078   0.00000  Uiso   1.00
H143   H     0.07435   0.28926   0.86922   0.00000  Uiso   1.00
H144   H     0.41811   0.25873   0.13270   0.00000  Uiso   1.00
H145   H     0.44909   0.13913   0.43337   0.00000  Uiso   1.00
H146   H     0.00146   0.37308   0.56477   0.00000  Uiso   1.00
H147   H     0.37304   0.00134   0.43521   0.00000  Uiso   1.00
H148   H     0.46090   0.17558   0.63080   0.00000  Uiso   1.00
H149   H     0.13910   0.44911   0.56666   0.00000  Uiso   1.00
H150   H     0.05089   0.36090   0.43334   0.00000  Uiso   1.00
H151   H     0.49866   0.12696   0.56479   0.00000  Uiso   1.00
H152   H     0.12692   0.49854   0.43523   0.00000  Uiso   1.00
H153   H     0.36087   0.05091   0.56663   0.00000  Uiso   1.00
H154   H     0.19886   0.38922   0.93337   0.00000  Uiso   1.00
H155   H     0.25180   0.12311   0.06475   0.00000  Uiso   1.00
H156   H     0.12305   0.25162   0.93521   0.00000  Uiso   1.00
H157   H     0.38923   0.19883   0.06668   0.00000  Uiso   1.00
H158   H     0.30117   0.11077   0.93332   0.00000  Uiso   1.00
H159   H     0.17554   0.46093   0.36920   0.00000  Uiso   1.00
H160   H     0.24838   0.37695   0.06479   0.00000  Uiso   1.00
H161   H     0.37689   0.24820   0.93525   0.00000  Uiso   1.00
H162   H     0.11078   0.30114   0.06664   0.00000  Uiso   1.00
H163   H     0.33188   0.49114   0.63270   0.00000  Uiso   1.00
H164   H     0.00886   0.16812   0.36731   0.00000  Uiso   1.00
H165   H     0.03907   0.32446   0.63080   0.00000  Uiso   1.00
H166   H     0.32442   0.03910   0.36920   0.00000  Uiso   1.00
H167   H     0.16812   0.00887   0.63270   0.00000  Uiso   1.00
H168   H     0.24127   0.08189   0.86730   0.00000  Uiso   1.00
O169   O     0.25000   0.00000   0.25000   0.00000  Uiso   1.00
O170   O     0.25000   0.46539   0.66251   0.00000  Uiso   1.00
O171   O     0.46538   0.25000   0.33749   0.00000  Uiso   1.00
O172   O     0.03461   0.25000   0.66251   0.00000  Uiso   1.00
O173   O    -0.00000   0.21539   0.83749   0.00000  Uiso   1.00
O174   O     0.00000   0.28461   0.16251   0.00000  Uiso   1.00
O175   O     0.28461   0.00000   0.83749   0.00000  Uiso   1.00
O176   O     0.21538   0.00000   0.16251   0.00000  Uiso   1.00
O177   O    -0.00000   0.28462   0.83749   0.00000  Uiso   1.00
O178   O     0.00000   0.21538   0.16251   0.00000  Uiso   1.00
O179   O     0.21538   0.00000   0.83749   0.00000  Uiso   1.00
O180   O     0.25000   0.00000   0.75000   0.00000  Uiso   1.00
O181   O     0.28461   0.00000   0.16251   0.00000  Uiso   1.00
O182   O     0.20126   0.08332   0.27298   0.00000  Uiso   1.00
O183   O     0.29873   0.41668   0.72702   0.00000  Uiso   1.00
O184   O     0.41668   0.20127   0.27298   0.00000  Uiso   1.00
O185   O     0.08332   0.29874   0.72702   0.00000  Uiso   1.00
O186   O     0.29873   0.41668   0.27298   0.00000  Uiso   1.00
O187   O     0.20126   0.08332   0.72702   0.00000  Uiso   1.00
O188   O     0.08332   0.29874   0.27298   0.00000  Uiso   1.00
O189   O     0.41668   0.20127   0.72702   0.00000  Uiso   1.00
O190   O     0.20126   0.41668   0.72702   0.00000  Uiso   1.00
O191   O    -0.00000   0.25000   0.25000   0.00000  Uiso   1.00
O192   O     0.29873   0.08332   0.27298   0.00000  Uiso   1.00
O193   O     0.41668   0.29874   0.72702   0.00000  Uiso   1.00
O194   O     0.08332   0.20127   0.27298   0.00000  Uiso   1.00
O195   O     0.29873   0.08332   0.72702   0.00000  Uiso   1.00
O196   O     0.20126   0.41668   0.27298   0.00000  Uiso   1.00
O197   O     0.08332   0.20127   0.72702   0.00000  Uiso   1.00
O198   O     0.41668   0.29874   0.27298   0.00000  Uiso   1.00
O199   O     0.45126   0.33332   0.77298   0.00000  Uiso   1.00
O200   O     0.04873   0.16668   0.22702   0.00000  Uiso   1.00
O201   O     0.16668   0.45127   0.77298   0.00000  Uiso   1.00
O202   O     0.00000   0.25000   0.75000   0.00000  Uiso   1.00
O203   O     0.33332   0.04874   0.22702   0.00000  Uiso   1.00
O204   O     0.04873   0.16668   0.77298   0.00000  Uiso   1.00
O205   O     0.45126   0.33332   0.22702   0.00000  Uiso   1.00
O206   O     0.33332   0.04874   0.77298   0.00000  Uiso   1.00
O207   O     0.16668   0.45127   0.22702   0.00000  Uiso   1.00
O208   O     0.45126   0.16668   0.22702   0.00000  Uiso   1.00
O209   O     0.04873   0.33332   0.77298   0.00000  Uiso   1.00
O210   O     0.16668   0.04874   0.22702   0.00000  Uiso   1.00
O211   O     0.33332   0.45127   0.77298   0.00000  Uiso   1.00
O212   O     0.04873   0.33332   0.22702   0.00000  Uiso   1.00
O213   O     0.25000   0.46539   0.33749   0.00000  Uiso   1.00
O214   O     0.45126   0.16668   0.77298   0.00000  Uiso   1.00
O215   O     0.33332   0.45127   0.22702   0.00000  Uiso   1.00
O216   O     0.16668   0.04874   0.77298   0.00000  Uiso   1.00
O217   O     0.45541   0.34957   0.41162   0.00000  Uiso   1.00
O218   O     0.41768   0.17876   0.58925   0.00000  Uiso   1.00
O219   O     0.17880   0.41765   0.41070   0.00000  Uiso   1.00
O220   O     0.34958   0.45542   0.58838   0.00000  Uiso   1.00
O221   O     0.04458   0.15042   0.41162   0.00000  Uiso   1.00
O222   O     0.08235   0.32120   0.58930   0.00000  Uiso   1.00
O223   O     0.32124   0.08232   0.41075   0.00000  Uiso   1.00
O224   O     0.25000   0.03462   0.66251   0.00000  Uiso   1.00
O225   O     0.15043   0.04459   0.58838   0.00000  Uiso   1.00
O226   O     0.20565   0.09968   0.91165   0.00000  Uiso   1.00
O227   O     0.16752   0.42895   0.08924   0.00000  Uiso   1.00
O228   O     0.42900   0.16747   0.91068   0.00000  Uiso   1.00
O229   O     0.09967   0.20563   0.08838   0.00000  Uiso   1.00
O230   O     0.29437   0.40033   0.91162   0.00000  Uiso   1.00
O231   O     0.33253   0.07100   0.08932   0.00000  Uiso   1.00
O232   O     0.07105   0.33248   0.91076   0.00000  Uiso   1.00
O233   O     0.40032   0.29435   0.08836   0.00000  Uiso   1.00
O234   O     0.48579   0.10145   0.46459   0.00000  Uiso   1.00
O235   O     0.03461   0.25000   0.33749   0.00000  Uiso   1.00
O236   O     0.05211   0.38973   0.53447   0.00000  Uiso   1.00
O237   O     0.38977   0.05197   0.46549   0.00000  Uiso   1.00
O238   O     0.10145   0.48580   0.53541   0.00000  Uiso   1.00
O239   O     0.01420   0.39855   0.46459   0.00000  Uiso   1.00
O240   O     0.44803   0.11023   0.53451   0.00000  Uiso   1.00
O241   O     0.11027   0.44789   0.46553   0.00000  Uiso   1.00
O242   O     0.39855   0.01421   0.53541   0.00000  Uiso   1.00
O243   O     0.23549   0.35148   0.96459   0.00000  Uiso   1.00
O244   O     0.30251   0.13959   0.03446   0.00000  Uiso   1.00
O245   O     0.13966   0.30228   0.96551   0.00000  Uiso   1.00
O246   O     0.46538   0.25000   0.66251   0.00000  Uiso   1.00
O247   O     0.35147   0.23539   0.03541   0.00000  Uiso   1.00
O248   O     0.26461   0.14853   0.96459   0.00000  Uiso   1.00
O249   O     0.19772   0.36034   0.03449   0.00000  Uiso   1.00
O250   O     0.36041   0.19749   0.96554   0.00000  Uiso   1.00
O251   O     0.14852   0.26451   0.03541   0.00000  Uiso   1.00
O252   O     0.25000   0.03462   0.33749   0.00000  Uiso   1.00
Zn253  Zn    0.20052   0.00000   0.21730   0.00000  Uiso   1.00
Zn254  Zn    0.04947   0.25000   0.28270   0.00000  Uiso   1.00
Zn255  Zn    0.25000   0.45053   0.71730   0.00000  Uiso   1.00
Zn256  Zn    0.25000   0.04948   0.28270   0.00000  Uiso   1.00
Zn257  Zn    0.04947   0.25000   0.71730   0.00000  Uiso   1.00
Zn258  Zn    0.45052   0.25000   0.28270   0.00000  Uiso   1.00
Zn259  Zn    0.25000   0.04948   0.71730   0.00000  Uiso   1.00
Zn260  Zn    0.25000   0.45053   0.28270   0.00000  Uiso   1.00
Zn261  Zn    0.29947   0.00000   0.78270   0.00000  Uiso   1.00
Zn262  Zn   -0.00000   0.20053   0.21730   0.00000  Uiso   1.00
Zn263  Zn   -0.00000   0.29948   0.78270   0.00000  Uiso   1.00
Zn264  Zn    0.29947   0.00000   0.21730   0.00000  Uiso   1.00
Zn265  Zn    0.20052   0.00000   0.78270   0.00000  Uiso   1.00
Zn266  Zn   -0.00000   0.29948   0.21730   0.00000  Uiso   1.00
Zn267  Zn   -0.00000   0.20053   0.78270   0.00000  Uiso   1.00
Zn268  Zn    0.45052   0.25000   0.71730   0.00000  Uiso   1.00
C269   C     0.75000   0.00000   0.35593   0.00000  Uiso   1.00
C270   C     0.83002   0.41998   0.75000   0.00000  Uiso   1.00
C271   C     0.92425   0.23422   0.02091   0.00000  Uiso   1.00
C272   C     0.76578   0.07575   0.97909   0.00000  Uiso   1.00
C273   C     0.73146   0.42482   0.02003   0.00000  Uiso   1.00
C274   C     0.92482   0.23137   0.97998   0.00000  Uiso   1.00
C275   C     0.57575   0.26571   0.02090   0.00000  Uiso   1.00
C276   C     0.98110   0.32592   0.39687   0.00000  Uiso   1.00
C277   C     0.95212   0.18782   0.60257   0.00000  Uiso   1.00
C278   C     0.68781   0.45212   0.39741   0.00000  Uiso   1.00
C279   C     0.82593   0.48110   0.60313   0.00000  Uiso   1.00
C280   C     0.51890   0.17407   0.39687   0.00000  Uiso   1.00
C281   C     0.91998   0.16999   0.25000   0.00000  Uiso   1.00
C282   C     0.54788   0.31219   0.60259   0.00000  Uiso   1.00
C283   C     0.81218   0.04788   0.39743   0.00000  Uiso   1.00
C284   C     0.67408   0.01890   0.60313   0.00000  Uiso   1.00
C285   C     0.73126   0.07597   0.89687   0.00000  Uiso   1.00
C286   C     0.70199   0.43792   0.10257   0.00000  Uiso   1.00
C287   C     0.93791   0.20198   0.89741   0.00000  Uiso   1.00
C288   C     0.57597   0.23126   0.10314   0.00000  Uiso   1.00
C289   C     0.76874   0.42403   0.89687   0.00000  Uiso   1.00
C290   C     0.79802   0.06209   0.10259   0.00000  Uiso   1.00
C291   C     0.56208   0.29801   0.89744   0.00000  Uiso   1.00
C292   C     0.58001   0.33001   0.75000   0.00000  Uiso   1.00
C293   C     0.92403   0.26874   0.10313   0.00000  Uiso   1.00
C294   C     0.97099   0.13602   0.45734   0.00000  Uiso   1.00
C295   C     0.52308   0.36566   0.54140   0.00000  Uiso   1.00
C296   C     0.86566   0.02297   0.45858   0.00000  Uiso   1.00
C297   C     0.63600   0.47099   0.54267   0.00000  Uiso   1.00
C298   C     0.52901   0.36400   0.45733   0.00000  Uiso   1.00
C299   C     0.97703   0.13434   0.54142   0.00000  Uiso   1.00
C300   C     0.63434   0.47692   0.45860   0.00000  Uiso   1.00
C301   C     0.86398   0.02901   0.54266   0.00000  Uiso   1.00
C302   C     0.72076   0.38607   0.95734   0.00000  Uiso   1.00
C303   C     0.83002   0.41998   0.25000   0.00000  Uiso   1.00
C304   C     0.77340   0.11561   0.04139   0.00000  Uiso   1.00
C305   C     0.61561   0.27323   0.95859   0.00000  Uiso   1.00
C306   C     0.88608   0.22069   0.04269   0.00000  Uiso   1.00
C307   C     0.77931   0.11392   0.95731   0.00000  Uiso   1.00
C308   C     0.72677   0.38439   0.04141   0.00000  Uiso   1.00
C309   C     0.88439   0.22660   0.95861   0.00000  Uiso   1.00
C310   C     0.61393   0.27924   0.04266   0.00000  Uiso   1.00
C311   C     0.66998   0.08002   0.75000   0.00000  Uiso   1.00
C312   C     0.58001   0.33002   0.25000   0.00000  Uiso   1.00
C313   C     0.91999   0.16999   0.75000   0.00000  Uiso   1.00
C314   C     0.66998   0.41998   0.75000   0.00000  Uiso   1.00
C315   C     0.83001   0.08001   0.25000   0.00000  Uiso   1.00
C316   C     0.91998   0.33002   0.75000   0.00000  Uiso   1.00
C317   C     0.75000   0.00000   0.64422   0.00000  Uiso   1.00
C318   C     0.58002   0.16998   0.25000   0.00000  Uiso   1.00
C319   C     0.83001   0.08002   0.75000   0.00000  Uiso   1.00
C320   C     0.66999   0.41999   0.25000   0.00000  Uiso   1.00
C321   C     0.58002   0.16998   0.75000   0.00000  Uiso   1.00
C322   C     0.91998   0.33002   0.25000   0.00000  Uiso   1.00
C323   C     0.63834   0.38834   0.25000   0.00000  Uiso   1.00
C324   C     0.86167   0.11167   0.75000   0.00000  Uiso   1.00
C325   C     0.61167   0.13833   0.25000   0.00000  Uiso   1.00
C326   C     0.88833   0.36167   0.75000   0.00000  Uiso   1.00
C327   C     0.86166   0.11166   0.25000   0.00000  Uiso   1.00
C328   C     0.50000   0.25000   0.35578   0.00000  Uiso   1.00
C329   C     0.63833   0.38833   0.75000   0.00000  Uiso   1.00
C330   C     0.88833   0.36167   0.25000   0.00000  Uiso   1.00
C331   C     0.61167   0.13833   0.75000   0.00000  Uiso   1.00
C332   C     0.63833   0.11167   0.75000   0.00000  Uiso   1.00
C333   C     0.86167   0.38833   0.25000   0.00000  Uiso   1.00
C334   C     0.61166   0.36166   0.75000   0.00000  Uiso   1.00
C335   C     0.88833   0.13833   0.25000   0.00000  Uiso   1.00
C336   C     0.86167   0.38833   0.75000   0.00000  Uiso   1.00
C337   C     0.63833   0.11167   0.25000   0.00000  Uiso   1.00
C338   C     0.88834   0.13834   0.75000   0.00000  Uiso   1.00
C339   C     0.50000   0.25000   0.64407   0.00000  Uiso   1.00
C340   C     0.61167   0.36167   0.25000   0.00000  Uiso   1.00
C341   C     0.99641   0.28818   0.41823   0.00000  Uiso   1.00
C342   C     0.98079   0.21674   0.58120   0.00000  Uiso   1.00
C343   C     0.71673   0.48078   0.41880   0.00000  Uiso   1.00
C344   C     0.78817   0.49640   0.58177   0.00000  Uiso   1.00
C345   C     0.50360   0.21183   0.41823   0.00000  Uiso   1.00
C346   C     0.51922   0.28327   0.58121   0.00000  Uiso   1.00
C347   C     0.78326   0.01921   0.41880   0.00000  Uiso   1.00
C348   C     0.71182   0.00359   0.58177   0.00000  Uiso   1.00
C349   C     0.74650   0.03818   0.91823   0.00000  Uiso   1.00
C350   C     0.50000   0.25000   0.85594   0.00000  Uiso   1.00
C351   C     0.73072   0.46678   0.08120   0.00000  Uiso   1.00
C352   C     0.96677   0.23070   0.91880   0.00000  Uiso   1.00
C353   C     0.53818   0.24648   0.08177   0.00000  Uiso   1.00
C354   C     0.75352   0.46182   0.91823   0.00000  Uiso   1.00
C355   C     0.76930   0.03323   0.08120   0.00000  Uiso   1.00
C356   C     0.53322   0.26928   0.91880   0.00000  Uiso   1.00
C357   C     0.96182   0.25350   0.08177   0.00000  Uiso   1.00
C358   C     0.50000   0.25000   0.39808   0.00000  Uiso   1.00
C359   C     0.50000   0.25000   0.60151   0.00000  Uiso   1.00
C360   C     0.75000  -0.00000   0.39849   0.00000  Uiso   1.00
C361   C     0.50000   0.25000   0.14422   0.00000  Uiso   1.00
C362   C     0.75000  -0.00000   0.60192   0.00000  Uiso   1.00
C363   C     0.75000   0.00000   0.89808   0.00000  Uiso   1.00
C364   C     0.75000   0.00001   0.10151   0.00000  Uiso   1.00
C365   C     0.99999   0.25000   0.89849   0.00000  Uiso   1.00
C366   C     0.50000   0.25000   0.10192   0.00000  Uiso   1.00
C367   C     0.99569   0.21149   0.45875   0.00000  Uiso   1.00
C368   C     0.51243   0.28678   0.54061   0.00000  Uiso   1.00
C369   C     0.78677   0.01240   0.45939   0.00000  Uiso   1.00
C370   C     0.71149   0.49567   0.54125   0.00000  Uiso   1.00
C371   C     0.50433   0.28851   0.45875   0.00000  Uiso   1.00
C372   C     0.75000   0.00000   0.85578   0.00000  Uiso   1.00
C373   C     0.98760   0.21323   0.54061   0.00000  Uiso   1.00
C374   C     0.71322   0.48757   0.45940   0.00000  Uiso   1.00
C375   C     0.78851   0.00431   0.54125   0.00000  Uiso   1.00
C376   C     0.74561   0.46150   0.95875   0.00000  Uiso   1.00
C377   C     0.76252   0.03675   0.04060   0.00000  Uiso   1.00
C378   C     0.53674   0.26247   0.95940   0.00000  Uiso   1.00
C379   C     0.96150   0.24557   0.04125   0.00000  Uiso   1.00
C380   C     0.75443   0.03850   0.95875   0.00000  Uiso   1.00
C381   C     0.73753   0.46326   0.04060   0.00000  Uiso   1.00
C382   C     0.96325   0.23748   0.95940   0.00000  Uiso   1.00
C383   C     0.75000   0.00000   0.14406   0.00000  Uiso   1.00
C384   C     0.53850   0.25439   0.04125   0.00000  Uiso   1.00
C385   C     0.50001   0.25000   0.47928   0.00000  Uiso   1.00
C386   C     0.50001   0.25000   0.52012   0.00000  Uiso   1.00
C387   C     0.75000   0.49999   0.47988   0.00000  Uiso   1.00
C388   C     0.75000   0.49999   0.52072   0.00000  Uiso   1.00
C389   C     0.75003   0.00000   0.97928   0.00000  Uiso   1.00
C390   C     0.75003   0.00000   0.02012   0.00000  Uiso   1.00
C391   C     0.50000   0.24997   0.97988   0.00000  Uiso   1.00
C392   C     0.50000   0.24997   0.02072   0.00000  Uiso   1.00
C393   C     0.98444   0.17422   0.47911   0.00000  Uiso   1.00
C394   C     0.66998   0.08002   0.25000   0.00000  Uiso   1.00
C395   C     0.51843   0.32522   0.52003   0.00000  Uiso   1.00
C396   C     0.82522   0.01838   0.47997   0.00000  Uiso   1.00
C397   C     0.67422   0.48442   0.52090   0.00000  Uiso   1.00
C398   C     0.51558   0.32578   0.47910   0.00000  Uiso   1.00
C399   C     0.98162   0.17478   0.52003   0.00000  Uiso   1.00
C400   C     0.67478   0.48157   0.47998   0.00000  Uiso   1.00
C401   C     0.82578   0.01556   0.52089   0.00000  Uiso   1.00
C402   C     0.73429   0.42425   0.97910   0.00000  Uiso   1.00
C403   C     0.76863   0.07518   0.02002   0.00000  Uiso   1.00
C404   C     0.57518   0.26854   0.97997   0.00000  Uiso   1.00
H405   H     0.99113   0.33188   0.36731   0.00000  Uiso   1.00
H406   H     0.71074   0.42565   0.13078   0.00000  Uiso   1.00
H407   H     0.92559   0.21078   0.86922   0.00000  Uiso   1.00
H408   H     0.58189   0.24130   0.13270   0.00000  Uiso   1.00
H409   H     0.75870   0.41811   0.86730   0.00000  Uiso   1.00
H410   H     0.78922   0.07441   0.13078   0.00000  Uiso   1.00
H411   H     0.57435   0.28926   0.86922   0.00000  Uiso   1.00
H412   H     0.91811   0.25873   0.13270   0.00000  Uiso   1.00
H413   H     0.94909   0.13913   0.43337   0.00000  Uiso   1.00
H414   H     0.50146   0.37308   0.56477   0.00000  Uiso   1.00
H415   H     0.87304   0.00134   0.43521   0.00000  Uiso   1.00
H416   H     0.96090   0.17558   0.63080   0.00000  Uiso   1.00
H417   H     0.63910   0.44911   0.56666   0.00000  Uiso   1.00
H418   H     0.55089   0.36090   0.43334   0.00000  Uiso   1.00
H419   H     0.99866   0.12696   0.56479   0.00000  Uiso   1.00
H420   H     0.62692   0.49854   0.43523   0.00000  Uiso   1.00
H421   H     0.86087   0.05091   0.56663   0.00000  Uiso   1.00
H422   H     0.69886   0.38922   0.93337   0.00000  Uiso   1.00
H423   H     0.75180   0.12311   0.06475   0.00000  Uiso   1.00
H424   H     0.62305   0.25162   0.93521   0.00000  Uiso   1.00
H425   H     0.88923   0.19883   0.06668   0.00000  Uiso   1.00
H426   H     0.80117   0.11077   0.93332   0.00000  Uiso   1.00
H427   H     0.67554   0.46093   0.36920   0.00000  Uiso   1.00
H428   H     0.74838   0.37695   0.06479   0.00000  Uiso   1.00
H429   H     0.87689   0.24820   0.93525   0.00000  Uiso   1.00
H430   H     0.61078   0.30114   0.06664   0.00000  Uiso   1.00
H431   H     0.83188   0.49114   0.63270   0.00000  Uiso   1.00
H432   H     0.50886   0.16812   0.36731   0.00000  Uiso   1.00
H433   H     0.53907   0.32446   0.63080   0.00000  Uiso   1.00
H434   H     0.82442   0.03910   0.36920   0.00000  Uiso   1.00
H435   H     0.66812   0.00887   0.63270   0.00000  Uiso   1.00
H436   H     0.74127   0.08189   0.86730   0.00000  Uiso   1.00
O437   O     0.75000   0.00000   0.25000   0.00000  Uiso   1.00
O438   O     0.75000   0.46539   0.66251   0.00000  Uiso   1.00
O439   O     0.96538   0.25000   0.33749   0.00000  Uiso   1.00
O440   O     0.53461   0.25000   0.66251   0.00000  Uiso   1.00
O441   O     0.50000   0.21539   0.83749   0.00000  Uiso   1.00
O442   O     0.50000   0.28461   0.16251   0.00000  Uiso   1.00
O443   O     0.78461   0.00000   0.83749   0.00000  Uiso   1.00
O444   O     0.71538   0.00000   0.16251   0.00000  Uiso   1.00
O445   O     0.50000   0.28462   0.83749   0.00000  Uiso   1.00
O446   O     0.50000   0.21538   0.16251   0.00000  Uiso   1.00
O447   O     0.71538   0.00000   0.83749   0.00000  Uiso   1.00
O448   O     0.75000   0.00000   0.75000   0.00000  Uiso   1.00
O449   O     0.78461   0.00000   0.16251   0.00000  Uiso   1.00
O450   O     0.70126   0.08332   0.27298   0.00000  Uiso   1.00
O451   O     0.79873   0.41668   0.72702   0.00000  Uiso   1.00
O452   O     0.91668   0.20127   0.27298   0.00000  Uiso   1.00
O453   O     0.58332   0.29874   0.72702   0.00000  Uiso   1.00
O454   O     0.79873   0.41668   0.27298   0.00000  Uiso   1.00
O455   O     0.70126   0.08332   0.72702   0.00000  Uiso   1.00
O456   O     0.58332   0.29874   0.27298   0.00000  Uiso   1.00
O457   O     0.91668   0.20127   0.72702   0.00000  Uiso   1.00
O458   O     0.70126   0.41668   0.72702   0.00000  Uiso   1.00
O459   O     0.50000   0.25000   0.25000   0.00000  Uiso   1.00
O460   O     0.79873   0.08332   0.27298   0.00000  Uiso   1.00
O461   O     0.91668   0.29874   0.72702   0.00000  Uiso   1.00
O462   O     0.58332   0.20127   0.27298   0.00000  Uiso   1.00
O463   O     0.79873   0.08332   0.72702   0.00000  Uiso   1.00
O464   O     0.70126   0.41668   0.27298   0.00000  Uiso   1.00
O465   O     0.58332   0.20127   0.72702   0.00000  Uiso   1.00
O466   O     0.91668   0.29874   0.27298   0.00000  Uiso   1.00
O467   O     0.95126   0.33332   0.77298   0.00000  Uiso   1.00
O468   O     0.54873   0.16668   0.22702   0.00000  Uiso   1.00
O469   O     0.66668   0.45127   0.77298   0.00000  Uiso   1.00
O470   O     0.50000   0.25000   0.75000   0.00000  Uiso   1.00
O471   O     0.83332   0.04874   0.22702   0.00000  Uiso   1.00
O472   O     0.54873   0.16668   0.77298   0.00000  Uiso   1.00
O473   O     0.95126   0.33332   0.22702   0.00000  Uiso   1.00
O474   O     0.83332   0.04874   0.77298   0.00000  Uiso   1.00
O475   O     0.66668   0.45127   0.22702   0.00000  Uiso   1.00
O476   O     0.95126   0.16668   0.22702   0.00000  Uiso   1.00
O477   O     0.54873   0.33332   0.77298   0.00000  Uiso   1.00
O478   O     0.66668   0.04874   0.22702   0.00000  Uiso   1.00
O479   O     0.83332   0.45127   0.77298   0.00000  Uiso   1.00
O480   O     0.54873   0.33332   0.22702   0.00000  Uiso   1.00
O481   O     0.75000   0.46539   0.33749   0.00000  Uiso   1.00
O482   O     0.95126   0.16668   0.77298   0.00000  Uiso   1.00
O483   O     0.83332   0.45127   0.22702   0.00000  Uiso   1.00
O484   O     0.66668   0.04874   0.77298   0.00000  Uiso   1.00
O485   O     0.95541   0.34957   0.41162   0.00000  Uiso   1.00
O486   O     0.91768   0.17876   0.58925   0.00000  Uiso   1.00
O487   O     0.67880   0.41765   0.41070   0.00000  Uiso   1.00
O488   O     0.84958   0.45542   0.58838   0.00000  Uiso   1.00
O489   O     0.54458   0.15042   0.41162   0.00000  Uiso   1.00
O490   O     0.58235   0.32120   0.58930   0.00000  Uiso   1.00
O491   O     0.82124   0.08232   0.41075   0.00000  Uiso   1.00
O492   O     0.75000   0.03462   0.66251   0.00000  Uiso   1.00
O493   O     0.65043   0.04459   0.58838   0.00000  Uiso   1.00
O494   O     0.70565   0.09968   0.91165   0.00000  Uiso   1.00
O495   O     0.66752   0.42895   0.08924   0.00000  Uiso   1.00
O496   O     0.92900   0.16747   0.91068   0.00000  Uiso   1.00
O497   O     0.59967   0.20563   0.08838   0.00000  Uiso   1.00
O498   O     0.79437   0.40033   0.91162   0.00000  Uiso   1.00
O499   O     0.83253   0.07100   0.08932   0.00000  Uiso   1.00
O500   O     0.57105   0.33248   0.91076   0.00000  Uiso   1.00
O501   O     0.90032   0.29435   0.08836   0.00000  Uiso   1.00
O502   O     0.98579   0.10145   0.46459   0.00000  Uiso   1.00
O503   O     0.53461   0.25000   0.33749   0.00000  Uiso   1.00
O504   O     0.55211   0.38973   0.53447   0.00000  Uiso   1.00
O505   O     0.88977   0.05197   0.46549   0.00000  Uiso   1.00
O506   O     0.60145   0.48580   0.53541   0.00000  Uiso   1.00
O507   O     0.51420   0.39855   0.46459   0.00000  Uiso   1.00
O508   O     0.94803   0.11023   0.53451   0.00000  Uiso   1.00
O509   O     0.61027   0.44789   0.46553   0.00000  Uiso   1.00
O510   O     0.89855   0.01421   0.53541   0.00000  Uiso   1.00
O511   O     0.73549   0.35148   0.96459   0.00000  Uiso   1.00
O512   O     0.80251   0.13959   0.03446   0.00000  Uiso   1.00
O513   O     0.63966   0.30228   0.96551   0.00000  Uiso   1.00
O514   O     0.96538   0.25000   0.66251   0.00000  Uiso   1.00
O515   O     0.85147   0.23539   0.03541   0.00000  Uiso   1.00
O516   O     0.76461   0.14853   0.96459   0.00000  Uiso   1.00
O517   O     0.69772   0.36034   0.03449   0.00000  Uiso   1.00
O518   O     0.86041   0.19749   0.96554   0.00000  Uiso   1.00
O519   O     0.64852   0.26451   0.03541   0.00000  Uiso   1.00
O520   O     0.75000   0.03462   0.33749   0.00000  Uiso   1.00
Zn521  Zn    0.70052   0.00000   0.21730   0.00000  Uiso   1.00
Zn522  Zn    0.54947   0.25000   0.28270   0.00000  Uiso   1.00
Zn523  Zn    0.75000   0.45053   0.71730   0.00000  Uiso   1.00
Zn524  Zn    0.75000   0.04948   0.28270   0.00000  Uiso   1.00
Zn525  Zn    0.54947   0.25000   0.71730   0.00000  Uiso   1.00
Zn526  Zn    0.95052   0.25000   0.28270   0.00000  Uiso   1.00
Zn527  Zn    0.75000   0.04948   0.71730   0.00000  Uiso   1.00
Zn528  Zn    0.75000   0.45053   0.28270   0.00000  Uiso   1.00
Zn529  Zn    0.79947   0.00000   0.78270   0.00000  Uiso   1.00
Zn530  Zn    0.50000   0.20053   0.21730   0.00000  Uiso   1.00
Zn531  Zn    0.50000   0.29948   0.78270   0.00000  Uiso   1.00
Zn532  Zn    0.79947   0.00000   0.21730   0.00000  Uiso   1.00
Zn533  Zn    0.70052   0.00000   0.78270   0.00000  Uiso   1.00
Zn534  Zn    0.50000   0.29948   0.21730   0.00000  Uiso   1.00
Zn535  Zn    0.50000   0.20053   0.78270   0.00000  Uiso   1.00
Zn536  Zn    0.95052   0.25000   0.71730   0.00000  Uiso   1.00
C537   C     0.25000   0.50000   0.35593   0.00000  Uiso   1.00
C538   C     0.33002   0.91998   0.75000   0.00000  Uiso   1.00
C539   C     0.42425   0.73422   0.02091   0.00000  Uiso   1.00
C540   C     0.26578   0.57575   0.97909   0.00000  Uiso   1.00
C541   C     0.23146   0.92482   0.02003   0.00000  Uiso   1.00
C542   C     0.42482   0.73137   0.97998   0.00000  Uiso   1.00
C543   C     0.07575   0.76571   0.02090   0.00000  Uiso   1.00
C544   C     0.48110   0.82592   0.39687   0.00000  Uiso   1.00
C545   C     0.45212   0.68782   0.60257   0.00000  Uiso   1.00
C546   C     0.18781   0.95212   0.39741   0.00000  Uiso   1.00
C547   C     0.32593   0.98110   0.60313   0.00000  Uiso   1.00
C548   C     0.01890   0.67407   0.39687   0.00000  Uiso   1.00
C549   C     0.41998   0.66999   0.25000   0.00000  Uiso   1.00
C550   C     0.04788   0.81219   0.60259   0.00000  Uiso   1.00
C551   C     0.31218   0.54788   0.39743   0.00000  Uiso   1.00
C552   C     0.17408   0.51890   0.60313   0.00000  Uiso   1.00
C553   C     0.23126   0.57597   0.89687   0.00000  Uiso   1.00
C554   C     0.20199   0.93792   0.10257   0.00000  Uiso   1.00
C555   C     0.43791   0.70198   0.89741   0.00000  Uiso   1.00
C556   C     0.07597   0.73126   0.10314   0.00000  Uiso   1.00
C557   C     0.26874   0.92403   0.89687   0.00000  Uiso   1.00
C558   C     0.29802   0.56209   0.10259   0.00000  Uiso   1.00
C559   C     0.06208   0.79801   0.89744   0.00000  Uiso   1.00
C560   C     0.08001   0.83001   0.75000   0.00000  Uiso   1.00
C561   C     0.42403   0.76874   0.10313   0.00000  Uiso   1.00
C562   C     0.47099   0.63602   0.45734   0.00000  Uiso   1.00
C563   C     0.02308   0.86566   0.54140   0.00000  Uiso   1.00
C564   C     0.36566   0.52297   0.45858   0.00000  Uiso   1.00
C565   C     0.13600   0.97099   0.54267   0.00000  Uiso   1.00
C566   C     0.02901   0.86400   0.45733   0.00000  Uiso   1.00
C567   C     0.47703   0.63434   0.54142   0.00000  Uiso   1.00
C568   C     0.13434   0.97692   0.45860   0.00000  Uiso   1.00
C569   C     0.36398   0.52901   0.54266   0.00000  Uiso   1.00
C570   C     0.22076   0.88607   0.95734   0.00000  Uiso   1.00
C571   C     0.33002   0.91998   0.25000   0.00000  Uiso   1.00
C572   C     0.27340   0.61561   0.04139   0.00000  Uiso   1.00
C573   C     0.11561   0.77323   0.95859   0.00000  Uiso   1.00
C574   C     0.38608   0.72069   0.04269   0.00000  Uiso   1.00
C575   C     0.27931   0.61392   0.95731   0.00000  Uiso   1.00
C576   C     0.22677   0.88439   0.04141   0.00000  Uiso   1.00
C577   C     0.38439   0.72660   0.95861   0.00000  Uiso   1.00
C578   C     0.11393   0.77924   0.04266   0.00000  Uiso   1.00
C579   C     0.16998   0.58002   0.75000   0.00000  Uiso   1.00
C580   C     0.08001   0.83002   0.25000   0.00000  Uiso   1.00
C581   C     0.41999   0.66999   0.75000   0.00000  Uiso   1.00
C582   C     0.16998   0.91998   0.75000   0.00000  Uiso   1.00
C583   C     0.33001   0.58001   0.25000   0.00000  Uiso   1.00
C584   C     0.41998   0.83002   0.75000   0.00000  Uiso   1.00
C585   C     0.25000   0.50000   0.64422   0.00000  Uiso   1.00
C586   C     0.08002   0.66998   0.25000   0.00000  Uiso   1.00
C587   C     0.33001   0.58002   0.75000   0.00000  Uiso   1.00
C588   C     0.16999   0.91999   0.25000   0.00000  Uiso   1.00
C589   C     0.08002   0.66998   0.75000   0.00000  Uiso   1.00
C590   C     0.41998   0.83002   0.25000   0.00000  Uiso   1.00
C591   C     0.13834   0.88834   0.25000   0.00000  Uiso   1.00
C592   C     0.36167   0.61167   0.75000   0.00000  Uiso   1.00
C593   C     0.11167   0.63833   0.25000   0.00000  Uiso   1.00
C594   C     0.38833   0.86167   0.75000   0.00000  Uiso   1.00
C595   C     0.36166   0.61166   0.25000   0.00000  Uiso   1.00
C596   C    -0.00000   0.75000   0.35578   0.00000  Uiso   1.00
C597   C     0.13833   0.88833   0.75000   0.00000  Uiso   1.00
C598   C     0.38833   0.86167   0.25000   0.00000  Uiso   1.00
C599   C     0.11167   0.63833   0.75000   0.00000  Uiso   1.00
C600   C     0.13833   0.61167   0.75000   0.00000  Uiso   1.00
C601   C     0.36167   0.88833   0.25000   0.00000  Uiso   1.00
C602   C     0.11166   0.86166   0.75000   0.00000  Uiso   1.00
C603   C     0.38833   0.63833   0.25000   0.00000  Uiso   1.00
C604   C     0.36167   0.88833   0.75000   0.00000  Uiso   1.00
C605   C     0.13833   0.61167   0.25000   0.00000  Uiso   1.00
C606   C     0.38834   0.63834   0.75000   0.00000  Uiso   1.00
C607   C     0.00000   0.75000   0.64407   0.00000  Uiso   1.00
C608   C     0.11167   0.86167   0.25000   0.00000  Uiso   1.00
C609   C     0.49641   0.78818   0.41823   0.00000  Uiso   1.00
C610   C     0.48079   0.71674   0.58120   0.00000  Uiso   1.00
C611   C     0.21673   0.98078   0.41880   0.00000  Uiso   1.00
C612   C     0.28817   0.99640   0.58177   0.00000  Uiso   1.00
C613   C     0.00360   0.71183   0.41823   0.00000  Uiso   1.00
C614   C     0.01922   0.78327   0.58121   0.00000  Uiso   1.00
C615   C     0.28326   0.51921   0.41880   0.00000  Uiso   1.00
C616   C     0.21182   0.50359   0.58177   0.00000  Uiso   1.00
C617   C     0.24650   0.53818   0.91823   0.00000  Uiso   1.00
C618   C    -0.00000   0.75000   0.85594   0.00000  Uiso   1.00
C619   C     0.23072   0.96678   0.08120   0.00000  Uiso   1.00
C620   C     0.46677   0.73070   0.91880   0.00000  Uiso   1.00
C621   C     0.03818   0.74648   0.08177   0.00000  Uiso   1.00
C622   C     0.25352   0.96182   0.91823   0.00000  Uiso   1.00
C623   C     0.26930   0.53323   0.08120   0.00000  Uiso   1.00
C624   C     0.03322   0.76928   0.91880   0.00000  Uiso   1.00
C625   C     0.46182   0.75350   0.08177   0.00000  Uiso   1.00
C626   C     0.00000   0.75000   0.39808   0.00000  Uiso   1.00
C627   C     0.00000   0.75000   0.60151   0.00000  Uiso   1.00
C628   C     0.25000   0.50000   0.39849   0.00000  Uiso   1.00
C629   C    -0.00000   0.75000   0.14422   0.00000  Uiso   1.00
C630   C     0.25000   0.50000   0.60192   0.00000  Uiso   1.00
C631   C     0.25000   0.50000   0.89808   0.00000  Uiso   1.00
C632   C     0.25000   0.50001   0.10151   0.00000  Uiso   1.00
C633   C     0.49999   0.75000   0.89849   0.00000  Uiso   1.00
C634   C    -0.00000   0.75000   0.10192   0.00000  Uiso   1.00
C635   C     0.49569   0.71149   0.45875   0.00000  Uiso   1.00
C636   C     0.01243   0.78678   0.54061   0.00000  Uiso   1.00
C637   C     0.28677   0.51240   0.45939   0.00000  Uiso   1.00
C638   C     0.21149   0.99567   0.54125   0.00000  Uiso   1.00
C639   C     0.00433   0.78851   0.45875   0.00000  Uiso   1.00
C640   C     0.25000   0.50000   0.85578   0.00000  Uiso   1.00
C641   C     0.48760   0.71323   0.54061   0.00000  Uiso   1.00
C642   C     0.21322   0.98757   0.45940   0.00000  Uiso   1.00
C643   C     0.28851   0.50431   0.54125   0.00000  Uiso   1.00
C644   C     0.24561   0.96150   0.95875   0.00000  Uiso   1.00
C645   C     0.26252   0.53675   0.04060   0.00000  Uiso   1.00
C646   C     0.03674   0.76247   0.95940   0.00000  Uiso   1.00
C647   C     0.46150   0.74557   0.04125   0.00000  Uiso   1.00
C648   C     0.25443   0.53850   0.95875   0.00000  Uiso   1.00
C649   C     0.23753   0.96326   0.04060   0.00000  Uiso   1.00
C650   C     0.46325   0.73748   0.95940   0.00000  Uiso   1.00
C651   C     0.25000   0.50000   0.14406   0.00000  Uiso   1.00
C652   C     0.03850   0.75439   0.04125   0.00000  Uiso   1.00
C653   C     0.00001   0.75000   0.47928   0.00000  Uiso   1.00
C654   C     0.00001   0.75000   0.52012   0.00000  Uiso   1.00
C655   C     0.25000   0.99999   0.47988   0.00000  Uiso   1.00
C656   C     0.25000   0.99999   0.52072   0.00000  Uiso   1.00
C657   C     0.25003   0.50000   0.97928   0.00000  Uiso   1.00
C658   C     0.25003   0.50000   0.02012   0.00000  Uiso   1.00
C659   C    -0.00000   0.74997   0.97988   0.00000  Uiso   1.00
C660   C    -0.00000   0.74997   0.02072   0.00000  Uiso   1.00
C661   C     0.48444   0.67422   0.47911   0.00000  Uiso   1.00
C662   C     0.16998   0.58002   0.25000   0.00000  Uiso   1.00
C663   C     0.01843   0.82522   0.52003   0.00000  Uiso   1.00
C664   C     0.32522   0.51838   0.47997   0.00000  Uiso   1.00
C665   C     0.17422   0.98442   0.52090   0.00000  Uiso   1.00
C666   C     0.01558   0.82578   0.47910   0.00000  Uiso   1.00
C667   C     0.48162   0.67478   0.52003   0.00000  Uiso   1.00
C668   C     0.17478   0.98157   0.47998   0.00000  Uiso   1.00
C669   C     0.32578   0.51556   0.52089   0.00000  Uiso   1.00
C670   C     0.23429   0.92425   0.97910   0.00000  Uiso   1.00
C671   C     0.26863   0.57518   0.02002   0.00000  Uiso   1.00
C672   C     0.07518   0.76854   0.97997   0.00000  Uiso   1.00
H673   H     0.49113   0.83188   0.36731   0.00000  Uiso   1.00
H674   H     0.21074   0.92565   0.13078   0.00000  Uiso   1.00
H675   H     0.42559   0.71078   0.86922   0.00000  Uiso   1.00
H676   H     0.08189   0.74130   0.13270   0.00000  Uiso   1.00
H677   H     0.25870   0.91811   0.86730   0.00000  Uiso   1.00
H678   H     0.28922   0.57441   0.13078   0.00000  Uiso   1.00
H679   H     0.07435   0.78926   0.86922   0.00000  Uiso   1.00
H680   H     0.41811   0.75873   0.13270   0.00000  Uiso   1.00
H681   H     0.44909   0.63913   0.43337   0.00000  Uiso   1.00
H682   H     0.00146   0.87308   0.56477   0.00000  Uiso   1.00
H683   H     0.37304   0.50134   0.43521   0.00000  Uiso   1.00
H684   H     0.46090   0.67558   0.63080   0.00000  Uiso   1.00
H685   H     0.13910   0.94911   0.56666   0.00000  Uiso   1.00
H686   H     0.05089   0.86090   0.43334   0.00000  Uiso   1.00
H687   H     0.49866   0.62696   0.56479   0.00000  Uiso   1.00
H688   H     0.12692   0.99854   0.43523   0.00000  Uiso   1.00
H689   H     0.36087   0.55091   0.56663   0.00000  Uiso   1.00
H690   H     0.19886   0.88922   0.93337   0.00000  Uiso   1.00
H691   H     0.25180   0.62311   0.06475   0.00000  Uiso   1.00
H692   H     0.12305   0.75162   0.93521   0.00000  Uiso   1.00
H693   H     0.38923   0.69883   0.06668   0.00000  Uiso   1.00
H694   H     0.30117   0.61077   0.93332   0.00000  Uiso   1.00
H695   H     0.17554   0.96093   0.36920   0.00000  Uiso   1.00
H696   H     0.24838   0.87695   0.06479   0.00000  Uiso   1.00
H697   H     0.37689   0.74820   0.93525   0.00000  Uiso   1.00
H698   H     0.11078   0.80114   0.06664   0.00000  Uiso   1.00
H699   H     0.33188   0.99114   0.63270   0.00000  Uiso   1.00
H700   H     0.00886   0.66812   0.36731   0.00000  Uiso   1.00
H701   H     0.03907   0.82446   0.63080   0.00000  Uiso   1.00
H702   H     0.32442   0.53910   0.36920   0.00000  Uiso   1.00
H703   H     0.16812   0.50887   0.63270   0.00000  Uiso   1.00
H704   H     0.24127   0.58189   0.86730   0.00000  Uiso   1.00
O705   O     0.25000   0.50000   0.25000   0.00000  Uiso   1.00
O706   O     0.25000   0.96539   0.66251   0.00000  Uiso   1.00
O707   O     0.46538   0.75000   0.33749   0.00000  Uiso   1.00
O708   O     0.03461   0.75000   0.66251   0.00000  Uiso   1.00
O709   O    -0.00000   0.71539   0.83749   0.00000  Uiso   1.00
O710   O     0.00000   0.78461   0.16251   0.00000  Uiso   1.00
O711   O     0.28461   0.50000   0.83749   0.00000  Uiso   1.00
O712   O     0.21538   0.50000   0.16251   0.00000  Uiso   1.00
O713   O    -0.00000   0.78462   0.83749   0.00000  Uiso   1.00
O714   O     0.00000   0.71538   0.16251   0.00000  Uiso   1.00
O715   O     0.21538   0.50000   0.83749   0.00000  Uiso   1.00
O716   O     0.25000   0.50000   0.75000   0.00000  Uiso   1.00
O717   O     0.28461   0.50000   0.16251   0.00000  Uiso   1.00
O718   O     0.20126   0.58332   0.27298   0.00000  Uiso   1.00
O719   O     0.29873   0.91668   0.72702   0.00000  Uiso   1.00
O720   O     0.41668   0.70127   0.27298   0.00000  Uiso   1.00
O721   O     0.08332   0.79874   0.72702   0.00000  Uiso   1.00
O722   O     0.29873   0.91668   0.27298   0.00000  Uiso   1.00
O723   O     0.20126   0.58332   0.72702   0.00000  Uiso   1.00
O724   O     0.08332   0.79874   0.27298   0.00000  Uiso   1.00
O725   O     0.41668   0.70127   0.72702   0.00000  Uiso   1.00
O726   O     0.20126   0.91668   0.72702   0.00000  Uiso   1.00
O727   O    -0.00000   0.75000   0.25000   0.00000  Uiso   1.00
O728   O     0.29873   0.58332   0.27298   0.00000  Uiso   1.00
O729   O     0.41668   0.79874   0.72702   0.00000  Uiso   1.00
O730   O     0.08332   0.70127   0.27298   0.00000  Uiso   1.00
O731   O     0.29873   0.58332   0.72702   0.00000  Uiso   1.00
O732   O     0.20126   0.91668   0.27298   0.00000  Uiso   1.00
O733   O     0.08332   0.70127   0.72702   0.00000  Uiso   1.00
O734   O     0.41668   0.79874   0.27298   0.00000  Uiso   1.00
O735   O     0.45126   0.83332   0.77298   0.00000  Uiso   1.00
O736   O     0.04873   0.66668   0.22702   0.00000  Uiso   1.00
O737   O     0.16668   0.95127   0.77298   0.00000  Uiso   1.00
O738   O     0.00000   0.75000   0.75000   0.00000  Uiso   1.00
O739   O     0.33332   0.54874   0.22702   0.00000  Uiso   1.00
O740   O     0.04873   0.66668   0.77298   0.00000  Uiso   1.00
O741   O     0.45126   0.83332   0.22702   0.00000  Uiso   1.00
O742   O     0.33332   0.54874   0.77298   0.00000  Uiso   1.00
O743   O     0.16668   0.95127   0.22702   0.00000  Uiso   1.00
O744   O     0.45126   0.66668   0.22702   0.00000  Uiso   1.00
O745   O     0.04873   0.83332   0.77298   0.00000  Uiso   1.00
O746   O     0.16668   0.54874   0.22702   0.00000  Uiso   1.00
O747   O     0.33332   0.95127   0.77298   0.00000  Uiso   1.00
O748   O     0.04873   0.83332   0.22702   0.00000  Uiso   1.00
O749   O     0.25000   0.96539   0.33749   0.00000  Uiso   1.00
O750   O     0.45126   0.66668   0.77298   0.00000  Uiso   1.00
O751   O     0.33332   0.95127   0.22702   0.00000  Uiso   1.00
O752   O     0.16668   0.54874   0.77298   0.00000  Uiso   1.00
O753   O     0.45541   0.84957   0.41162   0.00000  Uiso   1.00
O754   O     0.41768   0.67876   0.58925   0.00000  Uiso   1.00
O755   O     0.17880   0.91765   0.41070   0.00000  Uiso   1.00
O756   O     0.34958   0.95542   0.58838   0.00000  Uiso   1.00
O757   O     0.04458   0.65042   0.41162   0.00000  Uiso   1.00
O758   O     0.08235   0.82120   0.58930   0.00000  Uiso   1.00
O759   O     0.32124   0.58232   0.41075   0.00000  Uiso   1.00
O760   O     0.25000   0.53462   0.66251   0.00000  Uiso   1.00
O761   O     0.15043   0.54459   0.58838   0.00000  Uiso   1.00
O762   O     0.20565   0.59968   0.91165   0.00000  Uiso   1.00
O763   O     0.16752   0.92895   0.08924   0.00000  Uiso   1.00
O764   O     0.42900   0.66747   0.91068   0.00000  Uiso   1.00
O765   O     0.09967   0.70563   0.08838   0.00000  Uiso   1.00
O766   O     0.29437   0.90033   0.91162   0.00000  Uiso   1.00
O767   O     0.33253   0.57100   0.08932   0.00000  Uiso   1.00
O768   O     0.07105   0.83248   0.91076   0.00000  Uiso   1.00
O769   O     0.40032   0.79435   0.08836   0.00000  Uiso   1.00
O770   O     0.48579   0.60145   0.46459   0.00000  Uiso   1.00
O771   O     0.03461   0.75000   0.33749   0.00000  Uiso   1.00
O772   O     0.05211   0.88973   0.53447   0.00000  Uiso   1.00
O773   O     0.38977   0.55197   0.46549   0.00000  Uiso   1.00
O774   O     0.10145   0.98580   0.53541   0.00000  Uiso   1.00
O775   O     0.01420   0.89855   0.46459   0.00000  Uiso   1.00
O776   O     0.44803   0.61023   0.53451   0.00000  Uiso   1.00
O777   O     0.11027   0.94789   0.46553   0.00000  Uiso   1.00
O778   O     0.39855   0.51421   0.53541   0.00000  Uiso   1.00
O779   O     0.23549   0.85148   0.96459   0.00000  Uiso   1.00
O780   O     0.30251   0.63959   0.03446   0.00000  Uiso   1.00
O781   O     0.13966   0.80228   0.96551   0.00000  Uiso   1.00
O782   O     0.46538   0.75000   0.66251   0.00000  Uiso   1.00
O783   O     0.35147   0.73539   0.03541   0.00000  Uiso   1.00
O784   O     0.26461   0.64853   0.96459   0.00000  Uiso   1.00
O785   O     0.19772   0.86034   0.03449   0.00000  Uiso   1.00
O786   O     0.36041   0.69749   0.96554   0.00000  Uiso   1.00
O787   O     0.14852   0.76451   0.03541   0.00000  Uiso   1.00
O788   O     0.25000   0.53462   0.33749   0.00000  Uiso   1.00
Zn789  Zn    0.20052   0.50000   0.21730   0.00000  Uiso   1.00
Zn790  Zn    0.04947   0.75000   0.28270   0.00000  Uiso   1.00
Zn791  Zn    0.25000   0.95053   0.71730   0.00000  Uiso   1.00
Zn792  Zn    0.25000   0.54948   0.28270   0.00000  Uiso   1.00
Zn793  Zn    0.04947   0.75000   0.71730   0.00000  Uiso   1.00
Zn794  Zn    0.45052   0.75000   0.28270   0.00000  Uiso   1.00
Zn795  Zn    0.25000   0.54948   0.71730   0.00000  Uiso   1.00
Zn796  Zn    0.25000   0.95053   0.28270   0.00000  Uiso   1.00
Zn797  Zn    0.29947   0.50000   0.78270   0.00000  Uiso   1.00
Zn798  Zn   -0.00000   0.70053   0.21730   0.00000  Uiso   1.00
Zn799  Zn   -0.00000   0.79948   0.78270   0.00000  Uiso   1.00
Zn800  Zn    0.29947   0.50000   0.21730   0.00000  Uiso   1.00
Zn801  Zn    0.20052   0.50000   0.78270   0.00000  Uiso   1.00
Zn802  Zn   -0.00000   0.79948   0.21730   0.00000  Uiso   1.00
Zn803  Zn   -0.00000   0.70053   0.78270   0.00000  Uiso   1.00
Zn804  Zn    0.45052   0.75000   0.71730   0.00000  Uiso   1.00
C805   C     0.75000   0.50000   0.35593   0.00000  Uiso   1.00
C806   C     0.83002   0.91998   0.75000   0.00000  Uiso   1.00
C807   C     0.92425   0.73422   0.02091   0.00000  Uiso   1.00
C808   C     0.76578   0.57575   0.97909   0.00000  Uiso   1.00
C809   C     0.73146   0.92482   0.02003   0.00000  Uiso   1.00
C810   C     0.92482   0.73137   0.97998   0.00000  Uiso   1.00
C811   C     0.57575   0.76571   0.02090   0.00000  Uiso   1.00
C812   C     0.98110   0.82592   0.39687   0.00000  Uiso   1.00
C813   C     0.95212   0.68782   0.60257   0.00000  Uiso   1.00
C814   C     0.68781   0.95212   0.39741   0.00000  Uiso   1.00
C815   C     0.82593   0.98110   0.60313   0.00000  Uiso   1.00
C816   C     0.51890   0.67407   0.39687   0.00000  Uiso   1.00
C817   C     0.91998   0.66999   0.25000   0.00000  Uiso   1.00
C818   C     0.54788   0.81219   0.60259   0.00000  Uiso   1.00
C819   C     0.81218   0.54788   0.39743   0.00000  Uiso   1.00
C820   C     0.67408   0.51890   0.60313   0.00000  Uiso   1.00
C821   C     0.73126   0.57597   0.89687   0.00000  Uiso   1.00
C822   C     0.70199   0.93792   0.10257   0.00000  Uiso   1.00
C823   C     0.93791   0.70198   0.89741   0.00000  Uiso   1.00
C824   C     0.57597   0.73126   0.10314   0.00000  Uiso   1.00
C825   C     0.76874   0.92403   0.89687   0.00000  Uiso   1.00
C826   C     0.79802   0.56209   0.10259   0.00000  Uiso   1.00
C827   C     0.56208   0.79801   0.89744   0.00000  Uiso   1.00
C828   C     0.58001   0.83001   0.75000   0.00000  Uiso   1.00
C829   C     0.92403   0.76874   0.10313   0.00000  Uiso   1.00
C830   C     0.97099   0.63602   0.45734   0.00000  Uiso   1.00
C831   C     0.52308   0.86566   0.54140   0.00000  Uiso   1.00
C832   C     0.86566   0.52297   0.45858   0.00000  Uiso   1.00
C833   C     0.63600   0.97099   0.54267   0.00000  Uiso   1.00
C834   C     0.52901   0.86400   0.45733   0.00000  Uiso   1.00
C835   C     0.97703   0.63434   0.54142   0.00000  Uiso   1.00
C836   C     0.63434   0.97692   0.45860   0.00000  Uiso   1.00
C837   C     0.86398   0.52901   0.54266   0.00000  Uiso   1.00
C838   C     0.72076   0.88607   0.95734   0.00000  Uiso   1.00
C839   C     0.83002   0.91998   0.25000   0.00000  Uiso   1.00
C840   C     0.77340   0.61561   0.04139   0.00000  Uiso   1.00
C841   C     0.61561   0.77323   0.95859   0.00000  Uiso   1.00
C842   C     0.88608   0.72069   0.04269   0.00000  Uiso   1.00
C843   C     0.77931   0.61392   0.95731   0.00000  Uiso   1.00
C844   C     0.72677   0.88439   0.04141   0.00000  Uiso   1.00
C845   C     0.88439   0.72660   0.95861   0.00000  Uiso   1.00
C846   C     0.61393   0.77924   0.04266   0.00000  Uiso   1.00
C847   C     0.66998   0.58002   0.75000   0.00000  Uiso   1.00
C848   C     0.58001   0.83002   0.25000   0.00000  Uiso   1.00
C849   C     0.91999   0.66999   0.75000   0.00000  Uiso   1.00
C850   C     0.66998   0.91998   0.75000   0.00000  Uiso   1.00
C851   C     0.83001   0.58001   0.25000   0.00000  Uiso   1.00
C852   C     0.91998   0.83002   0.75000   0.00000  Uiso   1.00
C853   C     0.75000   0.50000   0.64422   0.00000  Uiso   1.00
C854   C     0.58002   0.66998   0.25000   0.00000  Uiso   1.00
C855   C     0.83001   0.58002   0.75000   0.00000  Uiso   1.00
C856   C     0.66999   0.91999   0.25000   0.00000  Uiso   1.00
C857   C     0.58002   0.66998   0.75000   0.00000  Uiso   1.00
C858   C     0.91998   0.83002   0.25000   0.00000  Uiso   1.00
C859   C     0.63834   0.88834   0.25000   0.00000  Uiso   1.00
C860   C     0.86167   0.61167   0.75000   0.00000  Uiso   1.00
C861   C     0.61167   0.63833   0.25000   0.00000  Uiso   1.00
C862   C     0.88833   0.86167   0.75000   0.00000  Uiso   1.00
C863   C     0.86166   0.61166   0.25000   0.00000  Uiso   1.00
C864   C     0.50000   0.75000   0.35578   0.00000  Uiso   1.00
C865   C     0.63833   0.88833   0.75000   0.00000  Uiso   1.00
C866   C     0.88833   0.86167   0.25000   0.00000  Uiso   1.00
C867   C     0.61167   0.63833   0.75000   0.00000  Uiso   1.00
C868   C     0.63833   0.61167   0.75000   0.00000  Uiso   1.00
C869   C     0.86167   0.88833   0.25000   0.00000  Uiso   1.00
C870   C     0.61166   0.86166   0.75000   0.00000  Uiso   1.00
C871   C     0.88833   0.63833   0.25000   0.00000  Uiso   1.00
C872   C     0.86167   0.88833   0.75000   0.00000  Uiso   1.00
C873   C     0.63833   0.61167   0.25000   0.00000  Uiso   1.00
C874   C     0.88834   0.63834   0.75000   0.00000  Uiso   1.00
C875   C     0.50000   0.75000   0.64407   0.00000  Uiso   1.00
C876   C     0.61167   0.86167   0.25000   0.00000  Uiso   1.00
C877   C     0.99641   0.78818   0.41823   0.00000  Uiso   1.00
C878   C     0.98079   0.71674   0.58120   0.00000  Uiso   1.00
C879   C     0.71673   0.98078   0.41880   0.00000  Uiso   1.00
C880   C     0.78817   0.99640   0.58177   0.00000  Uiso   1.00
C881   C     0.50360   0.71183   0.41823   0.00000  Uiso   1.00
C882   C     0.51922   0.78327   0.58121   0.00000  Uiso   1.00
C883   C     0.78326   0.51921   0.41880   0.00000  Uiso   1.00
C884   C     0.71182   0.50359   0.58177   0.00000  Uiso   1.00
C885   C     0.74650   0.53818   0.91823   0.00000  Uiso   1.00
C886   C     0.50000   0.75000   0.85594   0.00000  Uiso   1.00
C887   C     0.73072   0.96678   0.08120   0.00000  Uiso   1.00
C888   C     0.96677   0.73070   0.91880   0.00000  Uiso   1.00
C889   C     0.53818   0.74648   0.08177   0.00000  Uiso   1.00
C890   C     0.75352   0.96182   0.91823   0.00000  Uiso   1.00
C891   C     0.76930   0.53323   0.08120   0.00000  Uiso   1.00
C892   C     0.53322   0.76928   0.91880   0.00000  Uiso   1.00
C893   C     0.96182   0.75350   0.08177   0.00000  Uiso   1.00
C894   C     0.50000   0.75000   0.39808   0.00000  Uiso   1.00
C895   C     0.50000   0.75000   0.60151   0.00000  Uiso   1.00
C896   C     0.75000   0.50000   0.39849   0.00000  Uiso   1.00
C897   C     0.50000   0.75000   0.14422   0.00000  Uiso   1.00
C898   C     0.75000   0.50000   0.60192   0.00000  Uiso   1.00
C899   C     0.75000   0.50000   0.89808   0.00000  Uiso   1.00
C900   C     0.75000   0.50001   0.10151   0.00000  Uiso   1.00
C901   C     0.99999   0.75000   0.89849   0.00000  Uiso   1.00
C902   C     0.50000   0.75000   0.10192   0.00000  Uiso   1.00
C903   C     0.99569   0.71149   0.45875   0.00000  Uiso   1.00
C904   C     0.51243   0.78678   0.54061   0.00000  Uiso   1.00
C905   C     0.78677   0.51240   0.45939   0.00000  Uiso   1.00
C906   C     0.71149   0.99567   0.54125   0.00000  Uiso   1.00
C907   C     0.50433   0.78851   0.45875   0.00000  Uiso   1.00
C908   C     0.75000   0.50000   0.85578   0.00000  Uiso   1.00
C909   C     0.98760   0.71323   0.54061   0.00000  Uiso   1.00
C910   C     0.71322   0.98757   0.45940   0.00000  Uiso   1.00
C911   C     0.78851   0.50431   0.54125   0.00000  Uiso   1.00
C912   C     0.74561   0.96150   0.95875   0.00000  Uiso   1.00
C913   C     0.76252   0.53675   0.04060   0.00000  Uiso   1.00
C914   C     0.53674   0.76247   0.95940   0.00000  Uiso   1.00
C915   C     0.96150   0.74557   0.04125   0.00000  Uiso   1.00
C916   C     0.75443   0.53850   0.95875   0.00000  Uiso   1.00
C917   C     0.73753   0.96326   0.04060   0.00000  Uiso   1.00
C918   C     0.96325   0.73748   0.95940   0.00000  Uiso   1.00
C919   C     0.75000   0.50000   0.14406   0.00000  Uiso   1.00
C920   C     0.53850   0.75439   0.04125   0.00000  Uiso   1.00
C921   C     0.50001   0.75000   0.47928   0.00000  Uiso   1.00
C922   C     0.50001   0.75000   0.52012   0.00000  Uiso   1.00
C923   C     0.75000   0.99999   0.47988   0.00000  Uiso   1.00
C924   C     0.75000   0.99999   0.52072   0.00000  Uiso   1.00
C925   C     0.75003   0.50000   0.97928   0.00000  Uiso   1.00
C926   C     0.75003   0.50000   0.02012   0.00000  Uiso   1.00
C927   C     0.50000   0.74997   0.97988   0.00000  Uiso   1.00
C928   C     0.50000   0.74997   0.02072   0.00000  Uiso   1.00
C929   C     0.98444   0.67422   0.47911   0.00000  Uiso   1.00
C930   C     0.66998   0.58002   0.25000   0.00000  Uiso   1.00
C931   C     0.51843   0.82522   0.52003   0.00000  Uiso   1.00
C932   C     0.82522   0.51838   0.47997   0.00000  Uiso   1.00
C933   C     0.67422   0.98442   0.52090   0.00000  Uiso   1.00
C934   C     0.51558   0.82578   0.47910   0.00000  Uiso   1.00
C935   C     0.98162   0.67478   0.52003   0.00000  Uiso   1.00
C936   C     0.67478   0.98157   0.47998   0.00000  Uiso   1.00
C937   C     0.82578   0.51556   0.52089   0.00000  Uiso   1.00
C938   C     0.73429   0.92425   0.97910   0.00000  Uiso   1.00
C939   C     0.76863   0.57518   0.02002   0.00000  Uiso   1.00
C940   C     0.57518   0.76854   0.97997   0.00000  Uiso   1.00
H941   H     0.99113   0.83188   0.36731   0.00000  Uiso   1.00
H942   H     0.71074   0.92565   0.13078   0.00000  Uiso   1.00
H943   H     0.92559   0.71078   0.86922   0.00000  Uiso   1.00
H944   H     0.58189   0.74130   0.13270   0.00000  Uiso   1.00
H945   H     0.75870   0.91811   0.86730   0.00000  Uiso   1.00
H946   H     0.78922   0.57441   0.13078   0.00000  Uiso   1.00
H947   H     0.57435   0.78926   0.86922   0.00000  Uiso   1.00
H948   H     0.91811   0.75873   0.13270   0.00000  Uiso   1.00
H949   H     0.94909   0.63913   0.43337   0.00000  Uiso   1.00
H950   H     0.50146   0.87308   0.56477   0.00000  Uiso   1.00
H951   H     0.87304   0.50134   0.43521   0.00000  Uiso   1.00
H952   H     0.96090   0.67558   0.63080   0.00000  Uiso   1.00
H953   H     0.63910   0.94911   0.56666   0.00000  Uiso   1.00
H954   H     0.55089   0.86090   0.43334   0.00000  Uiso   1.00
H955   H     0.99866   0.62696   0.56479   0.00000  Uiso   1.00
H956   H     0.62692   0.99854   0.43523   0.00000  Uiso   1.00
H957   H     0.86087   0.55091   0.56663   0.00000  Uiso   1.00
H958   H     0.69886   0.88922   0.93337   0.00000  Uiso   1.00
H959   H     0.75180   0.62311   0.06475   0.00000  Uiso   1.00
H960   H     0.62305   0.75162   0.93521   0.00000  Uiso   1.00
H961   H     0.88923   0.69883   0.06668   0.00000  Uiso   1.00
H962   H     0.80117   0.61077   0.93332   0.00000  Uiso   1.00
H963   H     0.67554   0.96093   0.36920   0.00000  Uiso   1.00
H964   H     0.74838   0.87695   0.06479   0.00000  Uiso   1.00
H965   H     0.87689   0.74820   0.93525   0.00000  Uiso   1.00
H966   H     0.61078   0.80114   0.06664   0.00000  Uiso   1.00
H967   H     0.83188   0.99114   0.63270   0.00000  Uiso   1.00
H968   H     0.50886   0.66812   0.36731   0.00000  Uiso   1.00
H969   H     0.53907   0.82446   0.63080   0.00000  Uiso   1.00
H970   H     0.82442   0.53910   0.36920   0.00000  Uiso   1.00
H971   H     0.66812   0.50887   0.63270   0.00000  Uiso   1.00
H972   H     0.74127   0.58189   0.86730   0.00000  Uiso   1.00
O973   O     0.75000   0.50000   0.25000   0.00000  Uiso   1.00
O974   O     0.75000   0.96539   0.66251   0.00000  Uiso   1.00
O975   O     0.96538   0.75000   0.33749   0.00000  Uiso   1.00
O976   O     0.53461   0.75000   0.66251   0.00000  Uiso   1.00
O977   O     0.50000   0.71539   0.83749   0.00000  Uiso   1.00
O978   O     0.50000   0.78461   0.16251   0.00000  Uiso   1.00
O979   O     0.78461   0.50000   0.83749   0.00000  Uiso   1.00
O980   O     0.71538   0.50000   0.16251   0.00000  Uiso   1.00
O981   O     0.50000   0.78462   0.83749   0.00000  Uiso   1.00
O982   O     0.50000   0.71538   0.16251   0.00000  Uiso   1.00
O983   O     0.71538   0.50000   0.83749   0.00000  Uiso   1.00
O984   O     0.75000   0.50000   0.75000   0.00000  Uiso   1.00
O985   O     0.78461   0.50000   0.16251   0.00000  Uiso   1.00
O986   O     0.70126   0.58332   0.27298   0.00000  Uiso   1.00
O987   O     0.79873   0.91668   0.72702   0.00000  Uiso   1.00
O988   O     0.91668   0.70127   0.27298   0.00000  Uiso   1.00
O989   O     0.58332   0.79874   0.72702   0.00000  Uiso   1.00
O990   O     0.79873   0.91668   0.27298   0.00000  Uiso   1.00
O991   O     0.70126   0.58332   0.72702   0.00000  Uiso   1.00
O992   O     0.58332   0.79874   0.27298   0.00000  Uiso   1.00
O993   O     0.91668   0.70127   0.72702   0.00000  Uiso   1.00
O994   O     0.70126   0.91668   0.72702   0.00000  Uiso   1.00
O995   O     0.50000   0.75000   0.25000   0.00000  Uiso   1.00
O996   O     0.79873   0.58332   0.27298   0.00000  Uiso   1.00
O997   O     0.91668   0.79874   0.72702   0.00000  Uiso   1.00
O998   O     0.58332   0.70127   0.27298   0.00000  Uiso   1.00
O999   O     0.79873   0.58332   0.72702   0.00000  Uiso   1.00
O1000  O     0.70126   0.91668   0.27298   0.00000  Uiso   1.00
O1001  O     0.58332   0.70127   0.72702   0.00000  Uiso   1.00
O1002  O     0.91668   0.79874   0.27298   0.00000  Uiso   1.00
O1003  O     0.95126   0.83332   0.77298   0.00000  Uiso   1.00
O1004  O     0.54873   0.66668   0.22702   0.00000  Uiso   1.00
O1005  O     0.66668   0.95127   0.77298   0.00000  Uiso   1.00
O1006  O     0.50000   0.75000   0.75000   0.00000  Uiso   1.00
O1007  O     0.83332   0.54874   0.22702   0.00000  Uiso   1.00
O1008  O     0.54873   0.66668   0.77298   0.00000  Uiso   1.00
O1009  O     0.95126   0.83332   0.22702   0.00000  Uiso   1.00
O1010  O     0.83332   0.54874   0.77298   0.00000  Uiso   1.00
O1011  O     0.66668   0.95127   0.22702   0.00000  Uiso   1.00
O1012  O     0.95126   0.66668   0.22702   0.00000  Uiso   1.00
O1013  O     0.54873   0.83332   0.77298   0.00000  Uiso   1.00
O1014  O     0.66668   0.54874   0.22702   0.00000  Uiso   1.00
O1015  O     0.83332   0.95127   0.77298   0.00000  Uiso   1.00
O1016  O     0.54873   0.83332   0.22702   0.00000  Uiso   1.00
O1017  O     0.75000   0.96539   0.33749   0.00000  Uiso   1.00
O1018  O     0.95126   0.66668   0.77298   0.00000  Uiso   1.00
O1019  O     0.83332   0.95127   0.22702   0.00000  Uiso   1.00
O1020  O     0.66668   0.54874   0.77298   0.00000  Uiso   1.00
O1021  O     0.95541   0.84957   0.41162   0.00000  Uiso   1.00
O1022  O     0.91768   0.67876   0.58925   0.00000  Uiso   1.00
O1023  O     0.67880   0.91765   0.41070   0.00000  Uiso   1.00
O1024  O     0.84958   0.95542   0.58838   0.00000  Uiso   1.00
O1025  O     0.54458   0.65042   0.41162   0.00000  Uiso   1.00
O1026  O     0.58235   0.82120   0.58930   0.00000  Uiso   1.00
O1027  O     0.82124   0.58232   0.41075   0.00000  Uiso   1.00
O1028  O     0.75000   0.53462   0.66251   0.00000  Uiso   1.00
O1029  O     0.65043   0.54459   0.58838   0.00000  Uiso   1.00
O1030  O     0.70565   0.59968   0.91165   0.00000  Uiso   1.00
O1031  O     0.66752   0.92895   0.08924   0.00000  Uiso   1.00
O1032  O     0.92900   0.66747   0.91068   0.00000  Uiso   1.00
O1033  O     0.59967   0.70563   0.08838   0.00000  Uiso   1.00
O1034  O     0.79437   0.90033   0.91162   0.00000  Uiso   1.00
O1035  O     0.83253   0.57100   0.08932   0.00000  Uiso   1.00
O1036  O     0.57105   0.83248   0.91076   0.00000  Uiso   1.00
O1037  O     0.90032   0.79435   0.08836   0.00000  Uiso   1.00
O1038  O     0.98579   0.60145   0.46459   0.00000  Uiso   1.00
O1039  O     0.53461   0.75000   0.33749   0.00000  Uiso   1.00
O1040  O     0.55211   0.88973   0.53447   0.00000  Uiso   1.00
O1041  O     0.88977   0.55197   0.46549   0.00000  Uiso   1.00
O1042  O     0.60145   0.98580   0.53541   0.00000  Uiso   1.00
O1043  O     0.51420   0.89855   0.46459   0.00000  Uiso   1.00
O1044  O     0.94803   0.61023   0.53451   0.00000  Uiso   1.00
O1045  O     0.61027   0.94789   0.46553   0.00000  Uiso   1.00
O1046  O     0.89855   0.51421   0.53541   0.00000  Uiso   1.00
O1047  O     0.73549   0.85148   0.96459   0.00000  Uiso   1.00
O1048  O     0.80251   0.63959   0.03446   0.00000  Uiso   1.00
O1049  O     0.63966   0.80228   0.96551   0.00000  Uiso   1.00
O1050  O     0.96538   0.75000   0.66251   0.00000  Uiso   1.00
O1051  O     0.85147   0.73539   0.03541   0.00000  Uiso   1.00
O1052  O     0.76461   0.64853   0.96459   0.00000  Uiso   1.00
O1053  O     0.69772   0.86034   0.03449   0.00000  Uiso   1.00
O1054  O     0.86041   0.69749   0.96554   0.00000  Uiso   1.00
O1055  O     0.64852   0.76451   0.03541   0.00000  Uiso   1.00
O1056  O     0.75000   0.53462   0.33749   0.00000  Uiso   1.00
Zn1057 Zn    0.70052   0.50000   0.21730   0.00000  Uiso   1.00
Zn1058 Zn    0.54947   0.75000   0.28270   0.00000  Uiso   1.00
Zn1059 Zn    0.75000   0.95053   0.71730   0.00000  Uiso   1.00
Zn1060 Zn    0.75000   0.54948   0.28270   0.00000  Uiso   1.00
Zn1061 Zn    0.54947   0.75000   0.71730   0.00000  Uiso   1.00
Zn1062 Zn    0.95052   0.75000   0.28270   0.00000  Uiso   1.00
Zn1063 Zn    0.75000   0.54948   0.71730   0.00000  Uiso   1.00
Zn1064 Zn    0.75000   0.95053   0.28270   0.00000  Uiso   1.00
Zn1065 Zn    0.79947   0.50000   0.78270   0.00000  Uiso   1.00
Zn1066 Zn    0.50000   0.70053   0.21730   0.00000  Uiso   1.00
Zn1067 Zn    0.50000   0.79948   0.78270   0.00000  Uiso   1.00
Zn1068 Zn    0.79947   0.50000   0.21730   0.00000  Uiso   1.00
Zn1069 Zn    0.70052   0.50000   0.78270   0.00000  Uiso   1.00
Zn1070 Zn    0.50000   0.79948   0.21730   0.00000  Uiso   1.00
Zn1071 Zn    0.50000   0.70053   0.78270   0.00000  Uiso   1.00
Zn1072 Zn    0.95052   0.75000   0.71730   0.00000  Uiso   1.00
loop_
_geom_bond_atom_site_label_1
_geom_bond_atom_site_label_2
_geom_bond_distance
_geom_bond_site_symmetry_2
_ccdc_geom_bond_type
C1     C92     1.468   .     S
C1     O749    1.271   1_545 A
C1     O252    1.271   .     S
C2     O211    1.276   .     A
C2     C68     1.423   .     S
C2     O183    1.276   .     A
C3     C38     1.490   .     S
C3     C111    1.422   .     A
C3     C6      1.415   1_554 S
C4     C39     1.490   .     S
C4     C112    1.422   .     A
C4     C135    1.415   1_556 S
C5     C113    1.425   .     A
C5     C40     1.489   .     S
C5     C134    1.415   1_554 S
C6     C114    1.426   .     A
C6     C41     1.489   .     S
C6     C3      1.415   1_556 S
C7     C42     1.490   .     S
C7     C116    1.422   .     A
C7     C136    1.415   1_554 S
C8     O217    1.221   .     D
C8     C73     1.490   .     S
C8     H137    1.085   .     S
C9     O218    1.221   .     D
C9     C74     1.489   .     S
C9     H148    1.085   .     S
C10    C75     1.489   .     S
C10    O219    1.221   .     D
C10    H159    1.085   .     S
C11    C76     1.490   .     S
C11    H163    1.085   .     S
C11    O220    1.221   .     D
C12    O221    1.221   .     D
C12    C77     1.490   .     S
C12    H164    1.085   .     S
C13    O208    1.276   .     A
C13    C67     1.421   .     S
C13    O184    1.276   .     A
C14    O222    1.221   .     D
C14    H165    1.085   .     S
C14    C78     1.489   .     S
C15    C79     1.489   .     S
C15    H166    1.085   .     S
C15    O223    1.221   .     D
C16    H167    1.085   .     S
C16    O225    1.221   .     D
C16    C80     1.490   .     S
C17    O226    1.221   .     D
C17    H168    1.085   .     S
C17    C81     1.490   .     S
C18    C83     1.489   .     S
C18    H138    1.085   .     S
C18    O227    1.221   .     D
C19    O228    1.221   .     D
C19    H139    1.085   .     S
C19    C84     1.489   .     S
C20    C85     1.490   .     S
C20    O229    1.221   .     D
C20    H140    1.085   .     S
C21    C86     1.490   .     S
C21    O230    1.221   .     D
C21    H141    1.085   .     S
C22    O231    1.221   .     D
C22    H142    1.085   .     S
C22    C87     1.489   .     S
C23    H143    1.085   .     S
C23    C88     1.489   .     S
C23    O232    1.221   .     D
C24    C66     1.421   .     S
C24    O185    1.276   .     A
C24    O209    1.276   .     A
C25    H144    1.085   .     S
C25    O233    1.221   .     D
C25    C89     1.490   .     S
C26    O234    1.221   .     D
C26    C125    1.490   .     S
C26    H145    1.085   .     S
C27    H146    1.085   .     S
C27    C127    1.489   .     S
C27    O236    1.221   .     D
C28    H147    1.085   .     S
C28    O237    1.221   .     D
C28    C128    1.489   .     S
C29    C129    1.490   .     S
C29    H149    1.086   .     S
C29    O238    1.221   .     D
C30    O239    1.221   .     D
C30    C130    1.490   .     S
C30    H150    1.086   .     S
C31    O240    1.221   .     D
C31    C131    1.489   .     S
C31    H151    1.085   .     S
C32    O241    1.221   .     D
C32    H152    1.085   .     S
C32    C132    1.489   .     S
C33    H153    1.085   .     S
C33    O242    1.221   .     D
C33    C133    1.490   .     S
C34    H154    1.085   .     S
C34    O243    1.221   .     D
C34    C134    1.490   .     S
C35    C65     1.423   .     S
C35    O215    1.276   .     A
C35    O186    1.276   .     A
C36    O244    1.221   .     D
C36    C135    1.489   .     S
C36    H155    1.085   .     S
C37    O245    1.221   .     D
C37    H156    1.085   .     S
C37    C136    1.489   .     S
C38    H157    1.085   .     S
C38    O247    1.221   .     D
C39    H158    1.085   .     S
C39    O248    1.221   .     D
C40    O249    1.221   .     D
C40    H160    1.085   .     S
C41    H161    1.085   .     S
C41    O250    1.221   .     D
C42    O251    1.221   .     D
C42    H162    1.085   .     S
C43    O216    1.276   .     A
C43    C64     1.423   .     S
C43    O187    1.276   .     A
C44    O188    1.276   .     A
C44    C72     1.421   .     S
C44    O212    1.276   .     A
C45    O214    1.276   .     A
C45    O189    1.276   .     A
C45    C70     1.421   .     S
C46    O201    1.276   .     A
C46    O190    1.276   .     A
C46    C61     1.421   .     S
C47    O192    1.276   .     A
C47    O203    1.276   .     A
C47    C59     1.421   .     S
C48    O193    1.276   .     A
C48    O199    1.276   .     A
C48    C58     1.423   .     S
C49    O224    1.268   .     A
C49    C94     1.459   .     S
C49    O706    1.268   1_545 S
C50    O194    1.276   .     A
C50    C57     1.423   .     S
C50    O200    1.276   .     A
C51    O206    1.276   .     A
C51    C56     1.421   .     S
C51    O195    1.276   .     A
C52    O196    1.276   .     A
C52    O207    1.276   .     A
C52    C55     1.421   .     S
C53    O197    1.276   .     A
C53    O204    1.276   .     A
C53    C63     1.423   .     S
C54    O205    1.276   .     A
C54    C62     1.423   .     S
C54    O198    1.276   .     A
C55    C72     1.198   .     T
C56    C70     1.198   .     T
C57    C69     1.199   .     T
C58    C68     1.199   .     T
C59    C67     1.198   .     T
C60    O439    1.268   1_455 A
C60    C90     1.459   .     S
C60    O235    1.268   .     S
C61    C66     1.198   .     T
C62    C65     1.199   .     T
C63    C64     1.199   .     T
C69    C126    1.423   .     S
C71    C91     1.468   .     S
C71    O172    1.271   .     A
C71    O514    1.271   1_455 S
C73    C358    1.403   .     S
C73    C371    1.420   .     S
C74    C105    1.422   .     A
C74    C359    1.407   .     S
C75    C106    1.422   .     A
C75    C628    1.407   .     A
C76    C630    1.403   .     A
C76    C643    1.420   .     S
C77    C90     1.403   .     A
C77    C367    1.420   1_455 S
C78    C91     1.407   .     A
C78    C100    1.422   .     A
C79    C101    1.422   .     A
C79    C92     1.407   .     S
C80    C94     1.403   .     S
C80    C638    1.420   1_545 S
C81    C95     1.403   .     A
C81    C112    1.420   .     A
C82    O173    1.271   .     A
C82    O177    1.271   .     A
C82    C365    1.468   1_455 S
C83    C113    1.422   .     A
C83    C632    1.407   .     S
C84    C97     1.407   .     A
C84    C114    1.422   .     A
C85    C116    1.420   .     A
C85    C98     1.403   .     S
C86    C108    1.420   .     A
C86    C631    1.403   .     S
C87    C96     1.407   .     A
C87    C109    1.422   .     A
C88    C110    1.422   .     A
C88    C365    1.407   1_455 S
C89    C111    1.420   .     A
C89    C366    1.403   .     A
C90    C341    1.403   1_455 S
C91    C342    1.407   1_455 S
C92    C611    1.407   1_545 A
C93    C98     1.459   .     S
C93    O174    1.268   .     S
C93    O178    1.268   .     S
C94    C612    1.403   1_545 A
C95    C104    1.459   .     S
C95    C622    1.403   1_545 S
C96    C115    1.468   .     S
C96    C619    1.407   1_545 S
C97    C350    1.468   .     S
C97    C356    1.407   .     S
C98    C357    1.403   1_455 A
C99    C125    1.422   .     A
C99    C345    1.420   .     S
C99    C385    1.420   .     S
C100   C127    1.425   .     A
C100   C118    1.421   .     A
C101   C128    1.425   .     A
C101   C655    1.421   1_545 S
C102   C129    1.422   .     A
C102   C120    1.420   .     A
C102   C616    1.420   .     S
C103   C117    1.420   .     A
C103   C130    1.422   .     A
C103   C341    1.420   1_455 S
C104   O179    1.268   .     A
C104   O175    1.268   .     A
C105   C131    1.425   .     A
C105   C386    1.421   .     S
C106   C132    1.425   .     A
C106   C119    1.421   .     A
C107   C133    1.422   .     A
C107   C612    1.420   1_545 S
C107   C656    1.420   1_545 S
C108   C134    1.422   .     A
C108   C657    1.420   .     S
C109   C135    1.426   .     A
C109   C122    1.421   .     A
C110   C136    1.425   .     A
C110   C123    1.421   .     S
C111   C392    1.420   .     A
C112   C121    1.420   .     A
C113   C658    1.421   .     S
C114   C391    1.421   .     A
C115   O181    1.271   .     A
C115   O176    1.271   .     A
C116   C124    1.420   .     S
C117   C118    1.409   .     A
C117   C367    1.420   1_455 S
C118   C373    1.421   1_455 S
C119   C120    1.409   .     A
C119   C637    1.421   .     S
C120   C643    1.420   .     S
C121   C644    1.420   1_545 S
C121   C122    1.409   1_556 S
C122   C649    1.421   1_545 S
C122   C121    1.409   1_554 S
C123   C382    1.421   1_455 A
C123   C124    1.409   1_556 S
C124   C379    1.420   1_455 A
C124   C123    1.409   1_554 S
C125   C131    1.415   .     A
C126   O210    1.276   .     A
C126   O182    1.276   .     A
C127   C130    1.415   .     A
C128   C133    1.415   .     A
C129   C132    1.415   .     A
C134   C5      1.415   1_556 S
C135   C4      1.415   1_554 S
C136   C7      1.415   1_556 S
O169   Zn253   1.935   .     S
O169   Zn264   1.935   .     S
O169   Zn256   1.935   .     S
O169   Zn796   1.935   1_545 S
O170   Zn255   1.948   .     S
O170   C585    1.268   .     S
O171   C328    1.268   .     A
O171   Zn258   1.948   .     S
O172   Zn257   1.948   .     S
O173   Zn267   1.948   .     S
O174   Zn266   1.948   .     S
O175   Zn261   1.948   .     S
O176   Zn253   1.948   .     S
O177   Zn263   1.948   .     S
O178   Zn262   1.948   .     S
O179   Zn265   1.948   .     S
O180   Zn265   1.935   .     S
O180   Zn259   1.935   .     S
O180   Zn261   1.935   .     S
O180   Zn791   1.935   1_545 S
O181   Zn264   1.948   .     S
O182   Zn256   1.916   .     S
O183   Zn255   1.916   .     S
O184   Zn258   1.914   .     S
O185   Zn257   1.914   .     S
O186   Zn260   1.916   .     S
O187   Zn259   1.916   .     S
O188   Zn254   1.914   .     S
O189   Zn268   1.914   .     S
O190   Zn255   1.914   .     S
O191   Zn526   1.935   1_455 S
O191   Zn262   1.935   .     S
O191   Zn266   1.935   .     S
O191   Zn254   1.935   .     S
O192   Zn256   1.914   .     S
O193   Zn268   1.916   .     S
O194   Zn254   1.916   .     S
O195   Zn259   1.914   .     S
O196   Zn260   1.914   .     S
O197   Zn257   1.916   .     S
O198   Zn258   1.916   .     S
O199   Zn531   1.916   .     S
O200   Zn262   1.916   .     S
O201   Zn801   1.914   .     S
O202   Zn257   1.935   .     S
O202   Zn263   1.935   .     S
O202   Zn267   1.935   .     S
O202   Zn536   1.935   1_455 S
O203   Zn264   1.914   .     S
O204   Zn267   1.916   .     S
O205   Zn534   1.916   .     S
O206   Zn261   1.914   .     S
O207   Zn789   1.914   .     S
O208   Zn530   1.914   .     S
O209   Zn263   1.914   .     S
O210   Zn253   1.916   .     S
O211   Zn797   1.916   .     S
O212   Zn266   1.914   .     S
O213   Zn260   1.948   .     S
O213   C537    1.271   .     A
O214   Zn535   1.914   .     S
O215   Zn800   1.916   .     S
O216   Zn265   1.916   .     S
O224   Zn259   1.948   .     S
O235   Zn254   1.948   .     S
O246   Zn268   1.948   .     S
O246   C339    1.271   .     S
O252   Zn256   1.948   .     S
Zn253  O743    1.914   1_545 S
Zn255  O716    1.935   .     S
Zn258  O459    1.935   .     S
Zn260  O705    1.935   .     S
Zn261  O747    1.916   1_545 S
Zn262  O476    1.914   1_455 S
Zn263  O467    1.916   1_455 S
Zn264  O751    1.916   1_545 S
Zn265  O737    1.914   1_545 S
Zn266  O473    1.916   1_455 S
Zn267  O482    1.914   1_455 S
Zn268  O470    1.935   .     S
C269   C360    1.468   .     S
C269   O1017   1.271   1_545 A
C269   O520    1.271   .     S
C270   O479    1.276   .     A
C270   C336    1.423   .     S
C270   O451    1.276   .     A
C271   C306    1.490   .     S
C271   C379    1.422   .     A
C271   C274    1.415   1_554 S
C272   C307    1.490   .     S
C272   C380    1.422   .     A
C272   C403    1.415   1_556 S
C273   C381    1.425   .     A
C273   C308    1.489   .     S
C273   C402    1.415   1_554 S
C274   C382    1.426   .     A
C274   C309    1.489   .     S
C274   C271    1.415   1_556 S
C275   C310    1.490   .     S
C275   C384    1.422   .     A
C275   C404    1.415   1_554 S
C276   O485    1.221   .     D
C276   C341    1.490   .     S
C276   H405    1.085   .     S
C277   O486    1.221   .     D
C277   C342    1.489   .     S
C277   H416    1.085   .     S
C278   C343    1.489   .     S
C278   O487    1.221   .     D
C278   H427    1.085   .     S
C279   C344    1.490   .     S
C279   H431    1.085   .     S
C279   O488    1.221   .     D
C280   O489    1.221   .     D
C280   C345    1.490   .     S
C280   H432    1.085   .     S
C281   O476    1.276   .     A
C281   C335    1.421   .     S
C281   O452    1.276   .     A
C282   O490    1.221   .     D
C282   H433    1.085   .     S
C282   C346    1.489   .     S
C283   C347    1.489   .     S
C283   H434    1.085   .     S
C283   O491    1.221   .     D
C284   H435    1.085   .     S
C284   O493    1.221   .     D
C284   C348    1.490   .     S
C285   O494    1.221   .     D
C285   H436    1.085   .     S
C285   C349    1.490   .     S
C286   C351    1.489   .     S
C286   H406    1.085   .     S
C286   O495    1.221   .     D
C287   O496    1.221   .     D
C287   H407    1.085   .     S
C287   C352    1.489   .     S
C288   C353    1.490   .     S
C288   O497    1.221   .     D
C288   H408    1.085   .     S
C289   C354    1.490   .     S
C289   O498    1.221   .     D
C289   H409    1.085   .     S
C290   O499    1.221   .     D
C290   H410    1.085   .     S
C290   C355    1.489   .     S
C291   H411    1.085   .     S
C291   C356    1.489   .     S
C291   O500    1.221   .     D
C292   C334    1.421   .     S
C292   O453    1.276   .     A
C292   O477    1.276   .     A
C293   H412    1.085   .     S
C293   O501    1.221   .     D
C293   C357    1.490   .     S
C294   O502    1.221   .     D
C294   C393    1.490   .     S
C294   H413    1.085   .     S
C295   H414    1.085   .     S
C295   C395    1.489   .     S
C295   O504    1.221   .     D
C296   H415    1.085   .     S
C296   O505    1.221   .     D
C296   C396    1.489   .     S
C297   C397    1.490   .     S
C297   H417    1.086   .     S
C297   O506    1.221   .     D
C298   O507    1.221   .     D
C298   C398    1.490   .     S
C298   H418    1.086   .     S
C299   O508    1.221   .     D
C299   C399    1.489   .     S
C299   H419    1.085   .     S
C300   O509    1.221   .     D
C300   H420    1.085   .     S
C300   C400    1.489   .     S
C301   H421    1.085   .     S
C301   O510    1.221   .     D
C301   C401    1.490   .     S
C302   H422    1.085   .     S
C302   O511    1.221   .     D
C302   C402    1.490   .     S
C303   C333    1.423   .     S
C303   O483    1.276   .     A
C303   O454    1.276   .     A
C304   O512    1.221   .     D
C304   C403    1.489   .     S
C304   H423    1.085   .     S
C305   O513    1.221   .     D
C305   H424    1.085   .     S
C305   C404    1.489   .     S
C306   H425    1.085   .     S
C306   O515    1.221   .     D
C307   H426    1.085   .     S
C307   O516    1.221   .     D
C308   O517    1.221   .     D
C308   H428    1.085   .     S
C309   H429    1.085   .     S
C309   O518    1.221   .     D
C310   O519    1.221   .     D
C310   H430    1.085   .     S
C311   O484    1.276   .     A
C311   C332    1.423   .     S
C311   O455    1.276   .     A
C312   O456    1.276   .     A
C312   C340    1.421   .     S
C312   O480    1.276   .     A
C313   O482    1.276   .     A
C313   O457    1.276   .     A
C313   C338    1.421   .     S
C314   O469    1.276   .     A
C314   O458    1.276   .     A
C314   C329    1.421   .     S
C315   O460    1.276   .     A
C315   O471    1.276   .     A
C315   C327    1.421   .     S
C316   O461    1.276   .     A
C316   O467    1.276   .     A
C316   C326    1.423   .     S
C317   O492    1.268   .     A
C317   C362    1.459   .     S
C317   O974    1.268   1_545 S
C318   O462    1.276   .     A
C318   C325    1.423   .     S
C318   O468    1.276   .     A
C319   O474    1.276   .     A
C319   C324    1.421   .     S
C319   O463    1.276   .     A
C320   O464    1.276   .     A
C320   O475    1.276   .     A
C320   C323    1.421   .     S
C321   O465    1.276   .     A
C321   O472    1.276   .     A
C321   C331    1.423   .     S
C322   O473    1.276   .     A
C322   C330    1.423   .     S
C322   O466    1.276   .     A
C323   C340    1.198   .     T
C324   C338    1.198   .     T
C325   C337    1.199   .     T
C326   C336    1.199   .     T
C327   C335    1.198   .     T
C328   C358    1.459   .     S
C328   O503    1.268   .     S
C329   C334    1.198   .     T
C330   C333    1.199   .     T
C331   C332    1.199   .     T
C337   C394    1.423   .     S
C339   C359    1.468   .     S
C339   O440    1.271   .     A
C341   C90     1.403   1_655 S
C341   C103    1.420   1_655 S
C342   C373    1.422   .     A
C342   C91     1.407   1_655 S
C343   C374    1.422   .     A
C343   C896    1.407   .     A
C344   C898    1.403   .     A
C344   C911    1.420   .     S
C345   C358    1.403   .     A
C346   C359    1.407   .     A
C346   C368    1.422   .     A
C347   C369    1.422   .     A
C347   C360    1.407   .     S
C348   C362    1.403   .     S
C348   C906    1.420   1_545 S
C349   C363    1.403   .     A
C349   C380    1.420   .     A
C350   O441    1.271   .     A
C350   O445    1.271   .     A
C351   C381    1.422   .     A
C351   C900    1.407   .     S
C352   C365    1.407   .     A
C352   C382    1.422   .     A
C353   C384    1.420   .     A
C353   C366    1.403   .     S
C354   C376    1.420   .     A
C354   C899    1.403   .     S
C355   C364    1.407   .     A
C355   C377    1.422   .     A
C356   C378    1.422   .     A
C357   C379    1.420   .     A
C357   C98     1.403   1_655 A
C360   C879    1.407   1_545 A
C361   C366    1.459   .     S
C361   O442    1.268   .     S
C361   O446    1.268   .     S
C362   C880    1.403   1_545 A
C363   C372    1.459   .     S
C363   C890    1.403   1_545 S
C364   C383    1.468   .     S
C364   C887    1.407   1_545 S
C365   C82     1.468   1_655 S
C365   C88     1.407   1_655 S
C367   C393    1.422   .     A
C367   C77     1.420   1_655 S
C367   C117    1.420   1_655 S
C368   C395    1.425   .     A
C368   C386    1.421   .     A
C369   C396    1.425   .     A
C369   C923    1.421   1_545 S
C370   C397    1.422   .     A
C370   C388    1.420   .     A
C370   C884    1.420   .     S
C371   C385    1.420   .     A
C371   C398    1.422   .     A
C372   O447    1.268   .     A
C372   O443    1.268   .     A
C373   C399    1.425   .     A
C373   C118    1.421   1_655 S
C374   C400    1.425   .     A
C374   C387    1.421   .     A
C375   C401    1.422   .     A
C375   C880    1.420   1_545 S
C375   C924    1.420   1_545 S
C376   C402    1.422   .     A
C376   C925    1.420   .     S
C377   C403    1.426   .     A
C377   C390    1.421   .     A
C378   C404    1.425   .     A
C378   C391    1.421   .     S
C379   C124    1.420   1_655 A
C380   C389    1.420   .     A
C381   C926    1.421   .     S
C382   C123    1.421   1_655 A
C383   O449    1.271   .     A
C383   O444    1.271   .     A
C384   C392    1.420   .     S
C385   C386    1.409   .     A
C387   C388    1.409   .     A
C387   C905    1.421   .     S
C388   C911    1.420   .     S
C389   C912    1.420   1_545 S
C389   C390    1.409   1_556 S
C390   C917    1.421   1_545 S
C390   C389    1.409   1_554 S
C391   C392    1.409   1_556 S
C392   C391    1.409   1_554 S
C393   C399    1.415   .     A
C394   O478    1.276   .     A
C394   O450    1.276   .     A
C395   C398    1.415   .     A
C396   C401    1.415   .     A
C397   C400    1.415   .     A
C402   C273    1.415   1_556 S
C403   C272    1.415   1_554 S
C404   C275    1.415   1_556 S
O437   Zn521   1.935   .     S
O437   Zn532   1.935   .     S
O437   Zn524   1.935   .     S
O437   Zn1064  1.935   1_545 S
O438   Zn523   1.948   .     S
O438   C853    1.268   .     S
O439   C60     1.268   1_655 A
O439   Zn526   1.948   .     S
O440   Zn525   1.948   .     S
O441   Zn535   1.948   .     S
O442   Zn534   1.948   .     S
O443   Zn529   1.948   .     S
O444   Zn521   1.948   .     S
O445   Zn531   1.948   .     S
O446   Zn530   1.948   .     S
O447   Zn533   1.948   .     S
O448   Zn533   1.935   .     S
O448   Zn527   1.935   .     S
O448   Zn529   1.935   .     S
O448   Zn1059  1.935   1_545 S
O449   Zn532   1.948   .     S
O450   Zn524   1.916   .     S
O451   Zn523   1.916   .     S
O452   Zn526   1.914   .     S
O453   Zn525   1.914   .     S
O454   Zn528   1.916   .     S
O455   Zn527   1.916   .     S
O456   Zn522   1.914   .     S
O457   Zn536   1.914   .     S
O458   Zn523   1.914   .     S
O459   Zn530   1.935   .     S
O459   Zn534   1.935   .     S
O459   Zn522   1.935   .     S
O460   Zn524   1.914   .     S
O461   Zn536   1.916   .     S
O462   Zn522   1.916   .     S
O463   Zn527   1.914   .     S
O464   Zn528   1.914   .     S
O465   Zn525   1.916   .     S
O466   Zn526   1.916   .     S
O467   Zn263   1.916   1_655 S
O468   Zn530   1.916   .     S
O469   Zn1069  1.914   .     S
O470   Zn525   1.935   .     S
O470   Zn531   1.935   .     S
O470   Zn535   1.935   .     S
O471   Zn532   1.914   .     S
O472   Zn535   1.916   .     S
O473   Zn266   1.916   1_655 S
O474   Zn529   1.914   .     S
O475   Zn1057  1.914   .     S
O476   Zn262   1.914   1_655 S
O477   Zn531   1.914   .     S
O478   Zn521   1.916   .     S
O479   Zn1065  1.916   .     S
O480   Zn534   1.914   .     S
O481   Zn528   1.948   .     S
O481   C805    1.271   .     A
O482   Zn267   1.914   1_655 S
O483   Zn1068  1.916   .     S
O484   Zn533   1.916   .     S
O492   Zn527   1.948   .     S
O503   Zn522   1.948   .     S
O514   Zn536   1.948   .     S
O514   C71     1.271   1_655 S
O520   Zn524   1.948   .     S
Zn521  O1011   1.914   1_545 S
Zn523  O984    1.935   .     S
Zn526  O191    1.935   1_655 S
Zn528  O973    1.935   .     S
Zn529  O1015   1.916   1_545 S
Zn532  O1019   1.916   1_545 S
Zn533  O1005   1.914   1_545 S
Zn536  O202    1.935   1_655 S
C537   C628    1.468   .     S
C537   O788    1.271   .     S
C538   O747    1.276   .     A
C538   C604    1.423   .     S
C538   O719    1.276   .     A
C539   C574    1.490   .     S
C539   C647    1.422   .     A
C539   C542    1.415   1_554 S
C540   C575    1.490   .     S
C540   C648    1.422   .     A
C540   C671    1.415   1_556 S
C541   C649    1.425   .     A
C541   C576    1.489   .     S
C541   C670    1.415   1_554 S
C542   C650    1.426   .     A
C542   C577    1.489   .     S
C542   C539    1.415   1_556 S
C543   C578    1.490   .     S
C543   C652    1.422   .     A
C543   C672    1.415   1_554 S
C544   O753    1.221   .     D
C544   C609    1.490   .     S
C544   H673    1.085   .     S
C545   O754    1.221   .     D
C545   C610    1.489   .     S
C545   H684    1.085   .     S
C546   C611    1.489   .     S
C546   O755    1.221   .     D
C546   H695    1.085   .     S
C547   C612    1.490   .     S
C547   H699    1.085   .     S
C547   O756    1.221   .     D
C548   O757    1.221   .     D
C548   C613    1.490   .     S
C548   H700    1.085   .     S
C549   O744    1.276   .     A
C549   C603    1.421   .     S
C549   O720    1.276   .     A
C550   O758    1.221   .     D
C550   H701    1.085   .     S
C550   C614    1.489   .     S
C551   C615    1.489   .     S
C551   H702    1.085   .     S
C551   O759    1.221   .     D
C552   H703    1.085   .     S
C552   O761    1.221   .     D
C552   C616    1.490   .     S
C553   O762    1.221   .     D
C553   H704    1.085   .     S
C553   C617    1.490   .     S
C554   C619    1.489   .     S
C554   H674    1.085   .     S
C554   O763    1.221   .     D
C555   O764    1.221   .     D
C555   H675    1.085   .     S
C555   C620    1.489   .     S
C556   C621    1.490   .     S
C556   O765    1.221   .     D
C556   H676    1.085   .     S
C557   C622    1.490   .     S
C557   O766    1.221   .     D
C557   H677    1.085   .     S
C558   O767    1.221   .     D
C558   H678    1.085   .     S
C558   C623    1.489   .     S
C559   H679    1.085   .     S
C559   C624    1.489   .     S
C559   O768    1.221   .     D
C560   C602    1.421   .     S
C560   O721    1.276   .     A
C560   O745    1.276   .     A
C561   H680    1.085   .     S
C561   O769    1.221   .     D
C561   C625    1.490   .     S
C562   O770    1.221   .     D
C562   C661    1.490   .     S
C562   H681    1.085   .     S
C563   H682    1.085   .     S
C563   C663    1.489   .     S
C563   O772    1.221   .     D
C564   H683    1.085   .     S
C564   O773    1.221   .     D
C564   C664    1.489   .     S
C565   C665    1.490   .     S
C565   H685    1.086   .     S
C565   O774    1.221   .     D
C566   O775    1.221   .     D
C566   C666    1.490   .     S
C566   H686    1.086   .     S
C567   O776    1.221   .     D
C567   C667    1.489   .     S
C567   H687    1.085   .     S
C568   O777    1.221   .     D
C568   H688    1.085   .     S
C568   C668    1.489   .     S
C569   H689    1.085   .     S
C569   O778    1.221   .     D
C569   C669    1.490   .     S
C570   H690    1.085   .     S
C570   O779    1.221   .     D
C570   C670    1.490   .     S
C571   C601    1.423   .     S
C571   O751    1.276   .     A
C571   O722    1.276   .     A
C572   O780    1.221   .     D
C572   C671    1.489   .     S
C572   H691    1.085   .     S
C573   O781    1.221   .     D
C573   H692    1.085   .     S
C573   C672    1.489   .     S
C574   H693    1.085   .     S
C574   O783    1.221   .     D
C575   H694    1.085   .     S
C575   O784    1.221   .     D
C576   O785    1.221   .     D
C576   H696    1.085   .     S
C577   H697    1.085   .     S
C577   O786    1.221   .     D
C578   O787    1.221   .     D
C578   H698    1.085   .     S
C579   O752    1.276   .     A
C579   C600    1.423   .     S
C579   O723    1.276   .     A
C580   O724    1.276   .     A
C580   C608    1.421   .     S
C580   O748    1.276   .     A
C581   O750    1.276   .     A
C581   O725    1.276   .     A
C581   C606    1.421   .     S
C582   O737    1.276   .     A
C582   O726    1.276   .     A
C582   C597    1.421   .     S
C583   O728    1.276   .     A
C583   O739    1.276   .     A
C583   C595    1.421   .     S
C584   O729    1.276   .     A
C584   O735    1.276   .     A
C584   C594    1.423   .     S
C585   O760    1.268   .     A
C585   C630    1.459   .     S
C586   O730    1.276   .     A
C586   C593    1.423   .     S
C586   O736    1.276   .     A
C587   O742    1.276   .     A
C587   C592    1.421   .     S
C587   O731    1.276   .     A
C588   O732    1.276   .     A
C588   O743    1.276   .     A
C588   C591    1.421   .     S
C589   O733    1.276   .     A
C589   O740    1.276   .     A
C589   C599    1.423   .     S
C590   O741    1.276   .     A
C590   C598    1.423   .     S
C590   O734    1.276   .     A
C591   C608    1.198   .     T
C592   C606    1.198   .     T
C593   C605    1.199   .     T
C594   C604    1.199   .     T
C595   C603    1.198   .     T
C596   O975    1.268   1_455 A
C596   C626    1.459   .     S
C596   O771    1.268   .     S
C597   C602    1.198   .     T
C598   C601    1.199   .     T
C599   C600    1.199   .     T
C605   C662    1.423   .     S
C607   C627    1.468   .     S
C607   O708    1.271   .     A
C607   O1050   1.271   1_455 S
C609   C894    1.403   .     S
C609   C907    1.420   .     S
C610   C641    1.422   .     A
C610   C895    1.407   .     S
C611   C642    1.422   .     A
C611   C92     1.407   1_565 A
C612   C94     1.403   1_565 A
C612   C107    1.420   1_565 S
C613   C626    1.403   .     A
C613   C903    1.420   1_455 S
C614   C627    1.407   .     A
C614   C636    1.422   .     A
C615   C637    1.422   .     A
C615   C628    1.407   .     S
C616   C630    1.403   .     S
C617   C631    1.403   .     A
C617   C648    1.420   .     A
C618   O709    1.271   .     A
C618   O713    1.271   .     A
C618   C901    1.468   1_455 S
C619   C649    1.422   .     A
C619   C96     1.407   1_565 S
C620   C633    1.407   .     A
C620   C650    1.422   .     A
C621   C652    1.420   .     A
C621   C634    1.403   .     S
C622   C644    1.420   .     A
C622   C95     1.403   1_565 S
C623   C632    1.407   .     A
C623   C645    1.422   .     A
C624   C646    1.422   .     A
C624   C901    1.407   1_455 S
C625   C647    1.420   .     A
C625   C902    1.403   .     A
C626   C877    1.403   1_455 S
C627   C878    1.407   1_455 S
C629   C634    1.459   .     S
C629   O710    1.268   .     S
C629   O714    1.268   .     S
C631   C640    1.459   .     S
C632   C651    1.468   .     S
C633   C886    1.468   .     S
C633   C892    1.407   .     S
C634   C893    1.403   1_455 A
C635   C661    1.422   .     A
C635   C881    1.420   .     S
C635   C921    1.420   .     S
C636   C663    1.425   .     A
C636   C654    1.421   .     A
C637   C664    1.425   .     A
C638   C665    1.422   .     A
C638   C656    1.420   .     A
C638   C80     1.420   1_565 S
C639   C653    1.420   .     A
C639   C666    1.422   .     A
C639   C877    1.420   1_455 S
C640   O715    1.268   .     A
C640   O711    1.268   .     A
C641   C667    1.425   .     A
C641   C922    1.421   .     S
C642   C668    1.425   .     A
C642   C655    1.421   .     A
C643   C669    1.422   .     A
C644   C670    1.422   .     A
C644   C121    1.420   1_565 S
C645   C671    1.426   .     A
C645   C658    1.421   .     A
C646   C672    1.425   .     A
C646   C659    1.421   .     S
C647   C928    1.420   .     A
C648   C657    1.420   .     A
C649   C122    1.421   1_565 S
C650   C927    1.421   .     A
C651   O717    1.271   .     A
C651   O712    1.271   .     A
C652   C660    1.420   .     S
C653   C654    1.409   .     A
C653   C903    1.420   1_455 S
C654   C909    1.421   1_455 S
C655   C656    1.409   .     A
C655   C101    1.421   1_565 S
C656   C107    1.420   1_565 S
C657   C658    1.409   1_556 S
C658   C657    1.409   1_554 S
C659   C918    1.421   1_455 A
C659   C660    1.409   1_556 S
C660   C915    1.420   1_455 A
C660   C659    1.409   1_554 S
C661   C667    1.415   .     A
C662   O746    1.276   .     A
C662   O718    1.276   .     A
C663   C666    1.415   .     A
C664   C669    1.415   .     A
C665   C668    1.415   .     A
C670   C541    1.415   1_556 S
C671   C540    1.415   1_554 S
C672   C543    1.415   1_556 S
O705   Zn789   1.935   .     S
O705   Zn800   1.935   .     S
O705   Zn792   1.935   .     S
O706   Zn791   1.948   .     S
O706   C49     1.268   1_565 S
O707   C864    1.268   .     A
O707   Zn794   1.948   .     S
O708   Zn793   1.948   .     S
O709   Zn803   1.948   .     S
O710   Zn802   1.948   .     S
O711   Zn797   1.948   .     S
O712   Zn789   1.948   .     S
O713   Zn799   1.948   .     S
O714   Zn798   1.948   .     S
O715   Zn801   1.948   .     S
O716   Zn801   1.935   .     S
O716   Zn795   1.935   .     S
O716   Zn797   1.935   .     S
O717   Zn800   1.948   .     S
O718   Zn792   1.916   .     S
O719   Zn791   1.916   .     S
O720   Zn794   1.914   .     S
O721   Zn793   1.914   .     S
O722   Zn796   1.916   .     S
O723   Zn795   1.916   .     S
O724   Zn790   1.914   .     S
O725   Zn804   1.914   .     S
O726   Zn791   1.914   .     S
O727   Zn1062  1.935   1_455 S
O727   Zn798   1.935   .     S
O727   Zn802   1.935   .     S
O727   Zn790   1.935   .     S
O728   Zn792   1.914   .     S
O729   Zn804   1.916   .     S
O730   Zn790   1.916   .     S
O731   Zn795   1.914   .     S
O732   Zn796   1.914   .     S
O733   Zn793   1.916   .     S
O734   Zn794   1.916   .     S
O735   Zn1067  1.916   .     S
O736   Zn798   1.916   .     S
O737   Zn265   1.914   1_565 S
O738   Zn793   1.935   .     S
O738   Zn799   1.935   .     S
O738   Zn803   1.935   .     S
O738   Zn1072  1.935   1_455 S
O739   Zn800   1.914   .     S
O740   Zn803   1.916   .     S
O741   Zn1070  1.916   .     S
O742   Zn797   1.914   .     S
O743   Zn253   1.914   1_565 S
O744   Zn1066  1.914   .     S
O745   Zn799   1.914   .     S
O746   Zn789   1.916   .     S
O747   Zn261   1.916   1_565 S
O748   Zn802   1.914   .     S
O749   Zn796   1.948   .     S
O749   C1      1.271   1_565 A
O750   Zn1071  1.914   .     S
O751   Zn264   1.916   1_565 S
O752   Zn801   1.916   .     S
O760   Zn795   1.948   .     S
O771   Zn790   1.948   .     S
O782   Zn804   1.948   .     S
O782   C875    1.271   .     S
O788   Zn792   1.948   .     S
Zn791  O180    1.935   1_565 S
Zn794  O995    1.935   .     S
Zn796  O169    1.935   1_565 S
Zn798  O1012   1.914   1_455 S
Zn799  O1003   1.916   1_455 S
Zn802  O1009   1.916   1_455 S
Zn803  O1018   1.914   1_455 S
Zn804  O1006   1.935   .     S
C805   C896    1.468   .     S
C805   O1056   1.271   .     S
C806   O1015   1.276   .     A
C806   C872    1.423   .     S
C806   O987    1.276   .     A
C807   C842    1.490   .     S
C807   C915    1.422   .     A
C807   C810    1.415   1_554 S
C808   C843    1.490   .     S
C808   C916    1.422   .     A
C808   C939    1.415   1_556 S
C809   C917    1.425   .     A
C809   C844    1.489   .     S
C809   C938    1.415   1_554 S
C810   C918    1.426   .     A
C810   C845    1.489   .     S
C810   C807    1.415   1_556 S
C811   C846    1.490   .     S
C811   C920    1.422   .     A
C811   C940    1.415   1_554 S
C812   O1021   1.221   .     D
C812   C877    1.490   .     S
C812   H941    1.085   .     S
C813   O1022   1.221   .     D
C813   C878    1.489   .     S
C813   H952    1.085   .     S
C814   C879    1.489   .     S
C814   O1023   1.221   .     D
C814   H963    1.085   .     S
C815   C880    1.490   .     S
C815   H967    1.085   .     S
C815   O1024   1.221   .     D
C816   O1025   1.221   .     D
C816   C881    1.490   .     S
C816   H968    1.085   .     S
C817   O1012   1.276   .     A
C817   C871    1.421   .     S
C817   O988    1.276   .     A
C818   O1026   1.221   .     D
C818   H969    1.085   .     S
C818   C882    1.489   .     S
C819   C883    1.489   .     S
C819   H970    1.085   .     S
C819   O1027   1.221   .     D
C820   H971    1.085   .     S
C820   O1029   1.221   .     D
C820   C884    1.490   .     S
C821   O1030   1.221   .     D
C821   H972    1.085   .     S
C821   C885    1.490   .     S
C822   C887    1.489   .     S
C822   H942    1.085   .     S
C822   O1031   1.221   .     D
C823   O1032   1.221   .     D
C823   H943    1.085   .     S
C823   C888    1.489   .     S
C824   C889    1.490   .     S
C824   O1033   1.221   .     D
C824   H944    1.085   .     S
C825   C890    1.490   .     S
C825   O1034   1.221   .     D
C825   H945    1.085   .     S
C826   O1035   1.221   .     D
C826   H946    1.085   .     S
C826   C891    1.489   .     S
C827   H947    1.085   .     S
C827   C892    1.489   .     S
C827   O1036   1.221   .     D
C828   C870    1.421   .     S
C828   O989    1.276   .     A
C828   O1013   1.276   .     A
C829   H948    1.085   .     S
C829   O1037   1.221   .     D
C829   C893    1.490   .     S
C830   O1038   1.221   .     D
C830   C929    1.490   .     S
C830   H949    1.085   .     S
C831   H950    1.085   .     S
C831   C931    1.489   .     S
C831   O1040   1.221   .     D
C832   H951    1.085   .     S
C832   O1041   1.221   .     D
C832   C932    1.489   .     S
C833   C933    1.490   .     S
C833   H953    1.086   .     S
C833   O1042   1.221   .     D
C834   O1043   1.221   .     D
C834   C934    1.490   .     S
C834   H954    1.086   .     S
C835   O1044   1.221   .     D
C835   C935    1.489   .     S
C835   H955    1.085   .     S
C836   O1045   1.221   .     D
C836   H956    1.085   .     S
C836   C936    1.489   .     S
C837   H957    1.085   .     S
C837   O1046   1.221   .     D
C837   C937    1.490   .     S
C838   H958    1.085   .     S
C838   O1047   1.221   .     D
C838   C938    1.490   .     S
C839   C869    1.423   .     S
C839   O1019   1.276   .     A
C839   O990    1.276   .     A
C840   O1048   1.221   .     D
C840   C939    1.489   .     S
C840   H959    1.085   .     S
C841   O1049   1.221   .     D
C841   H960    1.085   .     S
C841   C940    1.489   .     S
C842   H961    1.085   .     S
C842   O1051   1.221   .     D
C843   H962    1.085   .     S
C843   O1052   1.221   .     D
C844   O1053   1.221   .     D
C844   H964    1.085   .     S
C845   H965    1.085   .     S
C845   O1054   1.221   .     D
C846   O1055   1.221   .     D
C846   H966    1.085   .     S
C847   O1020   1.276   .     A
C847   C868    1.423   .     S
C847   O991    1.276   .     A
C848   O992    1.276   .     A
C848   C876    1.421   .     S
C848   O1016   1.276   .     A
C849   O1018   1.276   .     A
C849   O993    1.276   .     A
C849   C874    1.421   .     S
C850   O1005   1.276   .     A
C850   O994    1.276   .     A
C850   C865    1.421   .     S
C851   O996    1.276   .     A
C851   O1007   1.276   .     A
C851   C863    1.421   .     S
C852   O997    1.276   .     A
C852   O1003   1.276   .     A
C852   C862    1.423   .     S
C853   O1028   1.268   .     A
C853   C898    1.459   .     S
C854   O998    1.276   .     A
C854   C861    1.423   .     S
C854   O1004   1.276   .     A
C855   O1010   1.276   .     A
C855   C860    1.421   .     S
C855   O999    1.276   .     A
C856   O1000   1.276   .     A
C856   O1011   1.276   .     A
C856   C859    1.421   .     S
C857   O1001   1.276   .     A
C857   O1008   1.276   .     A
C857   C867    1.423   .     S
C858   O1009   1.276   .     A
C858   C866    1.423   .     S
C858   O1002   1.276   .     A
C859   C876    1.198   .     T
C860   C874    1.198   .     T
C861   C873    1.199   .     T
C862   C872    1.199   .     T
C863   C871    1.198   .     T
C864   C894    1.459   .     S
C864   O1039   1.268   .     S
C865   C870    1.198   .     T
C866   C869    1.199   .     T
C867   C868    1.199   .     T
C873   C930    1.423   .     S
C875   C895    1.468   .     S
C875   O976    1.271   .     A
C877   C626    1.403   1_655 S
C877   C639    1.420   1_655 S
C878   C909    1.422   .     A
C878   C627    1.407   1_655 S
C879   C910    1.422   .     A
C879   C360    1.407   1_565 A
C880   C362    1.403   1_565 A
C880   C375    1.420   1_565 S
C881   C894    1.403   .     A
C882   C895    1.407   .     A
C882   C904    1.422   .     A
C883   C905    1.422   .     A
C883   C896    1.407   .     S
C884   C898    1.403   .     S
C885   C899    1.403   .     A
C885   C916    1.420   .     A
C886   O977    1.271   .     A
C886   O981    1.271   .     A
C887   C917    1.422   .     A
C887   C364    1.407   1_565 S
C888   C901    1.407   .     A
C888   C918    1.422   .     A
C889   C920    1.420   .     A
C889   C902    1.403   .     S
C890   C912    1.420   .     A
C890   C363    1.403   1_565 S
C891   C900    1.407   .     A
C891   C913    1.422   .     A
C892   C914    1.422   .     A
C893   C915    1.420   .     A
C893   C634    1.403   1_655 A
C897   C902    1.459   .     S
C897   O978    1.268   .     S
C897   O982    1.268   .     S
C899   C908    1.459   .     S
C900   C919    1.468   .     S
C901   C618    1.468   1_655 S
C901   C624    1.407   1_655 S
C903   C929    1.422   .     A
C903   C613    1.420   1_655 S
C903   C653    1.420   1_655 S
C904   C931    1.425   .     A
C904   C922    1.421   .     A
C905   C932    1.425   .     A
C906   C933    1.422   .     A
C906   C924    1.420   .     A
C906   C348    1.420   1_565 S
C907   C921    1.420   .     A
C907   C934    1.422   .     A
C908   O983    1.268   .     A
C908   O979    1.268   .     A
C909   C935    1.425   .     A
C909   C654    1.421   1_655 S
C910   C936    1.425   .     A
C910   C923    1.421   .     A
C911   C937    1.422   .     A
C912   C938    1.422   .     A
C912   C389    1.420   1_565 S
C913   C939    1.426   .     A
C913   C926    1.421   .     A
C914   C940    1.425   .     A
C914   C927    1.421   .     S
C915   C660    1.420   1_655 A
C916   C925    1.420   .     A
C917   C390    1.421   1_565 S
C918   C659    1.421   1_655 A
C919   O985    1.271   .     A
C919   O980    1.271   .     A
C920   C928    1.420   .     S
C921   C922    1.409   .     A
C923   C924    1.409   .     A
C923   C369    1.421   1_565 S
C924   C375    1.420   1_565 S
C925   C926    1.409   1_556 S
C926   C925    1.409   1_554 S
C927   C928    1.409   1_556 S
C928   C927    1.409   1_554 S
C929   C935    1.415   .     A
C930   O1014   1.276   .     A
C930   O986    1.276   .     A
C931   C934    1.415   .     A
C932   C937    1.415   .     A
C933   C936    1.415   .     A
C938   C809    1.415   1_556 S
C939   C808    1.415   1_554 S
C940   C811    1.415   1_556 S
O973   Zn1057  1.935   .     S
O973   Zn1068  1.935   .     S
O973   Zn1060  1.935   .     S
O974   Zn1059  1.948   .     S
O974   C317    1.268   1_565 S
O975   C596    1.268   1_655 A
O975   Zn1062  1.948   .     S
O976   Zn1061  1.948   .     S
O977   Zn1071  1.948   .     S
O978   Zn1070  1.948   .     S
O979   Zn1065  1.948   .     S
O980   Zn1057  1.948   .     S
O981   Zn1067  1.948   .     S
O982   Zn1066  1.948   .     S
O983   Zn1069  1.948   .     S
O984   Zn1069  1.935   .     S
O984   Zn1063  1.935   .     S
O984   Zn1065  1.935   .     S
O985   Zn1068  1.948   .     S
O986   Zn1060  1.916   .     S
O987   Zn1059  1.916   .     S
O988   Zn1062  1.914   .     S
O989   Zn1061  1.914   .     S
O990   Zn1064  1.916   .     S
O991   Zn1063  1.916   .     S
O992   Zn1058  1.914   .     S
O993   Zn1072  1.914   .     S
O994   Zn1059  1.914   .     S
O995   Zn1066  1.935   .     S
O995   Zn1070  1.935   .     S
O995   Zn1058  1.935   .     S
O996   Zn1060  1.914   .     S
O997   Zn1072  1.916   .     S
O998   Zn1058  1.916   .     S
O999   Zn1063  1.914   .     S
O1000  Zn1064  1.914   .     S
O1001  Zn1061  1.916   .     S
O1002  Zn1062  1.916   .     S
O1003  Zn799   1.916   1_655 S
O1004  Zn1066  1.916   .     S
O1005  Zn533   1.914   1_565 S
O1006  Zn1061  1.935   .     S
O1006  Zn1067  1.935   .     S
O1006  Zn1071  1.935   .     S
O1007  Zn1068  1.914   .     S
O1008  Zn1071  1.916   .     S
O1009  Zn802   1.916   1_655 S
O1010  Zn1065  1.914   .     S
O1011  Zn521   1.914   1_565 S
O1012  Zn798   1.914   1_655 S
O1013  Zn1067  1.914   .     S
O1014  Zn1057  1.916   .     S
O1015  Zn529   1.916   1_565 S
O1016  Zn1070  1.914   .     S
O1017  Zn1064  1.948   .     S
O1017  C269    1.271   1_565 A
O1018  Zn803   1.914   1_655 S
O1019  Zn532   1.916   1_565 S
O1020  Zn1069  1.916   .     S
O1028  Zn1063  1.948   .     S
O1039  Zn1058  1.948   .     S
O1050  Zn1072  1.948   .     S
O1050  C607    1.271   1_655 S
O1056  Zn1060  1.948   .     S
Zn1059 O448    1.935   1_565 S
Zn1062 O727    1.935   1_655 S
Zn1064 O437    1.935   1_565 S
Zn1072 O738    1.935   1_655 S
