data_str_m2_o10_o16_pcu_sym.58
_audit_creation_date              2020-01-03
_audit_creation_method            'Materials Studio'
_symmetry_space_group_name_H-M    'P1'
_symmetry_Int_Tables_number       1
_symmetry_cell_setting            triclinic
loop_
_symmetry_equiv_pos_as_xyz
  x,y,z
_cell_length_a                    22.2647
_cell_length_b                    26.1568
_cell_length_c                    26.8131
_cell_angle_alpha                 94.0438
_cell_angle_beta                  77.4437
_cell_angle_gamma                 102.9675
loop_
_atom_site_label
_atom_site_type_symbol
_atom_site_fract_x
_atom_site_fract_y
_atom_site_fract_z
_atom_site_U_iso_or_equiv
_atom_site_adp_type
_atom_site_occupancy
Br1    Br    0.08037   0.30998   0.20253   0.00000  Uiso   1.00
C2     C     0.18186   0.26666   0.25027   0.00000  Uiso   1.00
C3     C     0.11249   0.16516   0.40334   0.00000  Uiso   1.00
C4     C     0.18846   0.32232   0.25195   0.00000  Uiso   1.00
C5     C     0.13320   0.16606   0.34724   0.00000  Uiso   1.00
C6     C     0.14659   0.01151   0.23779   0.00000  Uiso   1.00
C7     C     0.15256   0.06682   0.24602   0.00000  Uiso   1.00
C8     C     0.20054   0.17040   0.15295   0.00000  Uiso   1.00
C9     C     0.29301   0.22579   0.02685   0.00000  Uiso   1.00
C10    C     0.22077   0.17906   0.09795   0.00000  Uiso   1.00
C11    C     0.05088   0.13891   0.42427   0.00000  Uiso   1.00
C12    C     0.03280   0.12882   0.47611   0.00000  Uiso   1.00
C13    C     0.13921   0.16921   0.48782   0.00000  Uiso   1.00
C14    C     0.07639   0.14270   0.00749   0.00000  Uiso   1.00
C15    C     0.15540   0.18457   0.43605   0.00000  Uiso   1.00
C16    C     0.18632   0.18154   0.01788   0.00000  Uiso   1.00
C17    C     0.24636   0.21303   0.49748   0.00000  Uiso   1.00
C18    C     0.25870   0.23260   0.44850   0.00000  Uiso   1.00
C19    C     0.21370   0.21931   0.41854   0.00000  Uiso   1.00
C20    C     0.17571   0.16342   0.06768   0.00000  Uiso   1.00
C21    C     0.28016   0.20914   0.07703   0.00000  Uiso   1.00
Cu22   Cu    0.10710   0.16105   0.24436   0.00000  Uiso   1.00
Cu23   Cu    0.22623   0.17228   0.25565   0.00000  Uiso   1.00
H24    H     0.31548   0.22165   0.10004   0.00000  Uiso   1.00
H25    H     0.22486   0.23784   0.38194   0.00000  Uiso   1.00
H26    H     0.22720   0.01205   0.26797   0.00000  Uiso   1.00
H27    H     0.00369   0.20586   0.28960   0.00000  Uiso   1.00
H28    H     0.32963   0.12747   0.21041   0.00000  Uiso   1.00
H29    H     0.30342   0.25844   0.43322   0.00000  Uiso   1.00
H30    H     0.00558   0.24980   0.01140   0.00000  Uiso   1.00
H31    H     0.13204   0.13772   0.08450   0.00000  Uiso   1.00
H32    H     0.01699   0.12470   0.40027   0.00000  Uiso   1.00
H33    H     0.05883   0.13323   0.04719   0.00000  Uiso   1.00
H34    H     0.31831   0.10878   0.49191   0.00000  Uiso   1.00
N35    N     0.31574   0.18074   0.26416   0.00000  Uiso   1.00
N36    N     0.01759   0.15259   0.23584   0.00000  Uiso   1.00
O37    O     0.12797   0.23807   0.24633   0.00000  Uiso   1.00
O38    O     0.22858   0.24755   0.25587   0.00000  Uiso   1.00
O39    O     0.09181   0.15960   0.31840   0.00000  Uiso   1.00
O40    O     0.19242   0.16908   0.32793   0.00000  Uiso   1.00
O41    O     0.10476   0.08578   0.24414   0.00000  Uiso   1.00
O42    O     0.20536   0.09526   0.25367   0.00000  Uiso   1.00
O43    O     0.14092   0.16425   0.17207   0.00000  Uiso   1.00
O44    O     0.24152   0.17373   0.18161   0.00000  Uiso   1.00
Br45   Br    0.41370   0.30998   0.20253   0.00000  Uiso   1.00
C46    C     0.51520   0.26666   0.25027   0.00000  Uiso   1.00
C47    C     0.44582   0.16516   0.40334   0.00000  Uiso   1.00
C48    C     0.52179   0.32232   0.25195   0.00000  Uiso   1.00
C49    C     0.46653   0.16606   0.34724   0.00000  Uiso   1.00
C50    C     0.47992   0.01151   0.23779   0.00000  Uiso   1.00
C51    C     0.48589   0.06682   0.24602   0.00000  Uiso   1.00
C52    C     0.53387   0.17040   0.15295   0.00000  Uiso   1.00
C53    C     0.62635   0.22579   0.02685   0.00000  Uiso   1.00
C54    C     0.55410   0.17906   0.09795   0.00000  Uiso   1.00
C55    C     0.38421   0.13891   0.42427   0.00000  Uiso   1.00
C56    C     0.36614   0.12882   0.47611   0.00000  Uiso   1.00
C57    C     0.47254   0.16921   0.48782   0.00000  Uiso   1.00
C58    C     0.40973   0.14270   0.00749   0.00000  Uiso   1.00
C59    C     0.48874   0.18457   0.43605   0.00000  Uiso   1.00
C60    C     0.51965   0.18154   0.01788   0.00000  Uiso   1.00
C61    C     0.57969   0.21303   0.49748   0.00000  Uiso   1.00
C62    C     0.59204   0.23260   0.44850   0.00000  Uiso   1.00
C63    C     0.54703   0.21931   0.41854   0.00000  Uiso   1.00
C64    C     0.50904   0.16342   0.06768   0.00000  Uiso   1.00
C65    C     0.61349   0.20914   0.07703   0.00000  Uiso   1.00
Cu66   Cu    0.44043   0.16105   0.24436   0.00000  Uiso   1.00
Cu67   Cu    0.55957   0.17228   0.25565   0.00000  Uiso   1.00
H68    H     0.64882   0.22165   0.10004   0.00000  Uiso   1.00
H69    H     0.55819   0.23784   0.38194   0.00000  Uiso   1.00
H70    H     0.56053   0.01205   0.26797   0.00000  Uiso   1.00
H71    H     0.33702   0.20586   0.28960   0.00000  Uiso   1.00
H72    H     0.66296   0.12747   0.21041   0.00000  Uiso   1.00
H73    H     0.63675   0.25844   0.43322   0.00000  Uiso   1.00
H74    H     0.33891   0.24980   0.01140   0.00000  Uiso   1.00
H75    H     0.46538   0.13772   0.08450   0.00000  Uiso   1.00
H76    H     0.35032   0.12470   0.40027   0.00000  Uiso   1.00
H77    H     0.39216   0.13323   0.04719   0.00000  Uiso   1.00
H78    H     0.65165   0.10878   0.49191   0.00000  Uiso   1.00
N79    N     0.64908   0.18074   0.26416   0.00000  Uiso   1.00
N80    N     0.35092   0.15259   0.23584   0.00000  Uiso   1.00
O81    O     0.46131   0.23807   0.24633   0.00000  Uiso   1.00
O82    O     0.56191   0.24755   0.25587   0.00000  Uiso   1.00
O83    O     0.42515   0.15960   0.31840   0.00000  Uiso   1.00
O84    O     0.52575   0.16908   0.32793   0.00000  Uiso   1.00
O85    O     0.43809   0.08578   0.24414   0.00000  Uiso   1.00
O86    O     0.53869   0.09526   0.25367   0.00000  Uiso   1.00
O87    O     0.47425   0.16425   0.17207   0.00000  Uiso   1.00
O88    O     0.57485   0.17373   0.18161   0.00000  Uiso   1.00
Br89   Br    0.74704   0.30998   0.20253   0.00000  Uiso   1.00
C90    C     0.84853   0.26666   0.25027   0.00000  Uiso   1.00
C91    C     0.77915   0.16516   0.40334   0.00000  Uiso   1.00
C92    C     0.85513   0.32232   0.25195   0.00000  Uiso   1.00
C93    C     0.79987   0.16606   0.34724   0.00000  Uiso   1.00
C94    C     0.81325   0.01151   0.23779   0.00000  Uiso   1.00
C95    C     0.81923   0.06682   0.24602   0.00000  Uiso   1.00
C96    C     0.86720   0.17040   0.15295   0.00000  Uiso   1.00
C97    C     0.95968   0.22579   0.02685   0.00000  Uiso   1.00
C98    C     0.88744   0.17906   0.09795   0.00000  Uiso   1.00
C99    C     0.71755   0.13891   0.42427   0.00000  Uiso   1.00
C100   C     0.69947   0.12882   0.47611   0.00000  Uiso   1.00
C101   C     0.80588   0.16921   0.48782   0.00000  Uiso   1.00
C102   C     0.74306   0.14270   0.00749   0.00000  Uiso   1.00
C103   C     0.82207   0.18457   0.43605   0.00000  Uiso   1.00
C104   C     0.85298   0.18154   0.01788   0.00000  Uiso   1.00
C105   C     0.91303   0.21303   0.49748   0.00000  Uiso   1.00
C106   C     0.92537   0.23260   0.44850   0.00000  Uiso   1.00
C107   C     0.88036   0.21931   0.41854   0.00000  Uiso   1.00
C108   C     0.84237   0.16342   0.06768   0.00000  Uiso   1.00
C109   C     0.94683   0.20914   0.07703   0.00000  Uiso   1.00
Cu110  Cu    0.77377   0.16105   0.24436   0.00000  Uiso   1.00
Cu111  Cu    0.89290   0.17228   0.25565   0.00000  Uiso   1.00
H112   H     0.98215   0.22165   0.10004   0.00000  Uiso   1.00
H113   H     0.89152   0.23784   0.38194   0.00000  Uiso   1.00
H114   H     0.89387   0.01205   0.26797   0.00000  Uiso   1.00
H115   H     0.67036   0.20586   0.28960   0.00000  Uiso   1.00
H116   H     0.99629   0.12747   0.21041   0.00000  Uiso   1.00
H117   H     0.97008   0.25844   0.43322   0.00000  Uiso   1.00
H118   H     0.67224   0.24980   0.01140   0.00000  Uiso   1.00
H119   H     0.79871   0.13772   0.08450   0.00000  Uiso   1.00
H120   H     0.68366   0.12470   0.40027   0.00000  Uiso   1.00
H121   H     0.72550   0.13323   0.04719   0.00000  Uiso   1.00
H122   H     0.98498   0.10878   0.49191   0.00000  Uiso   1.00
N123   N     0.98241   0.18074   0.26416   0.00000  Uiso   1.00
N124   N     0.68426   0.15259   0.23584   0.00000  Uiso   1.00
O125   O     0.79464   0.23807   0.24633   0.00000  Uiso   1.00
O126   O     0.89524   0.24755   0.25587   0.00000  Uiso   1.00
O127   O     0.75848   0.15960   0.31840   0.00000  Uiso   1.00
O128   O     0.85908   0.16908   0.32793   0.00000  Uiso   1.00
O129   O     0.77142   0.08578   0.24414   0.00000  Uiso   1.00
O130   O     0.87203   0.09526   0.25367   0.00000  Uiso   1.00
O131   O     0.80758   0.16425   0.17207   0.00000  Uiso   1.00
O132   O     0.90819   0.17373   0.18161   0.00000  Uiso   1.00
Br133  Br    0.08037   0.64331   0.20253   0.00000  Uiso   1.00
C134   C     0.18186   0.59999   0.25027   0.00000  Uiso   1.00
C135   C     0.11249   0.49849   0.40334   0.00000  Uiso   1.00
C136   C     0.18846   0.65566   0.25195   0.00000  Uiso   1.00
C137   C     0.13320   0.49939   0.34724   0.00000  Uiso   1.00
C138   C     0.14659   0.34484   0.23779   0.00000  Uiso   1.00
C139   C     0.15256   0.40015   0.24602   0.00000  Uiso   1.00
C140   C     0.20054   0.50373   0.15295   0.00000  Uiso   1.00
C141   C     0.29301   0.55912   0.02685   0.00000  Uiso   1.00
C142   C     0.22077   0.51240   0.09795   0.00000  Uiso   1.00
C143   C     0.05088   0.47225   0.42427   0.00000  Uiso   1.00
C144   C     0.03280   0.46216   0.47611   0.00000  Uiso   1.00
C145   C     0.13921   0.50254   0.48782   0.00000  Uiso   1.00
C146   C     0.07639   0.47603   0.00749   0.00000  Uiso   1.00
C147   C     0.15540   0.51790   0.43605   0.00000  Uiso   1.00
C148   C     0.18632   0.51487   0.01788   0.00000  Uiso   1.00
C149   C     0.24636   0.54637   0.49748   0.00000  Uiso   1.00
C150   C     0.25870   0.56594   0.44850   0.00000  Uiso   1.00
C151   C     0.21370   0.55264   0.41854   0.00000  Uiso   1.00
C152   C     0.17571   0.49676   0.06768   0.00000  Uiso   1.00
C153   C     0.28016   0.54247   0.07703   0.00000  Uiso   1.00
Cu154  Cu    0.10710   0.49439   0.24436   0.00000  Uiso   1.00
Cu155  Cu    0.22623   0.50561   0.25565   0.00000  Uiso   1.00
H156   H     0.31548   0.55499   0.10004   0.00000  Uiso   1.00
H157   H     0.22486   0.57117   0.38194   0.00000  Uiso   1.00
H158   H     0.22720   0.34538   0.26797   0.00000  Uiso   1.00
H159   H     0.00369   0.53919   0.28960   0.00000  Uiso   1.00
H160   H     0.32963   0.46080   0.21041   0.00000  Uiso   1.00
H161   H     0.30342   0.59177   0.43322   0.00000  Uiso   1.00
H162   H     0.00558   0.58314   0.01140   0.00000  Uiso   1.00
H163   H     0.13204   0.47105   0.08450   0.00000  Uiso   1.00
H164   H     0.01699   0.45803   0.40027   0.00000  Uiso   1.00
H165   H     0.05883   0.46657   0.04719   0.00000  Uiso   1.00
H166   H     0.31831   0.44211   0.49191   0.00000  Uiso   1.00
N167   N     0.31574   0.51407   0.26416   0.00000  Uiso   1.00
N168   N     0.01759   0.48593   0.23584   0.00000  Uiso   1.00
O169   O     0.12797   0.57141   0.24633   0.00000  Uiso   1.00
O170   O     0.22858   0.58089   0.25587   0.00000  Uiso   1.00
O171   O     0.09181   0.49293   0.31840   0.00000  Uiso   1.00
O172   O     0.19242   0.50241   0.32793   0.00000  Uiso   1.00
O173   O     0.10476   0.41911   0.24414   0.00000  Uiso   1.00
O174   O     0.20536   0.42859   0.25367   0.00000  Uiso   1.00
O175   O     0.14092   0.49759   0.17207   0.00000  Uiso   1.00
O176   O     0.24152   0.50707   0.18161   0.00000  Uiso   1.00
Br177  Br    0.41370   0.64331   0.20253   0.00000  Uiso   1.00
C178   C     0.51520   0.59999   0.25027   0.00000  Uiso   1.00
C179   C     0.44582   0.49849   0.40334   0.00000  Uiso   1.00
C180   C     0.52179   0.65566   0.25195   0.00000  Uiso   1.00
C181   C     0.46653   0.49939   0.34724   0.00000  Uiso   1.00
C182   C     0.47992   0.34484   0.23779   0.00000  Uiso   1.00
C183   C     0.48589   0.40015   0.24602   0.00000  Uiso   1.00
C184   C     0.53387   0.50373   0.15295   0.00000  Uiso   1.00
C185   C     0.62635   0.55912   0.02685   0.00000  Uiso   1.00
C186   C     0.55410   0.51240   0.09795   0.00000  Uiso   1.00
C187   C     0.38421   0.47225   0.42427   0.00000  Uiso   1.00
C188   C     0.36614   0.46216   0.47611   0.00000  Uiso   1.00
C189   C     0.47254   0.50254   0.48782   0.00000  Uiso   1.00
C190   C     0.40973   0.47603   0.00749   0.00000  Uiso   1.00
C191   C     0.48874   0.51790   0.43605   0.00000  Uiso   1.00
C192   C     0.51965   0.51487   0.01788   0.00000  Uiso   1.00
C193   C     0.57969   0.54637   0.49748   0.00000  Uiso   1.00
C194   C     0.59204   0.56594   0.44850   0.00000  Uiso   1.00
C195   C     0.54703   0.55264   0.41854   0.00000  Uiso   1.00
C196   C     0.50904   0.49676   0.06768   0.00000  Uiso   1.00
C197   C     0.61349   0.54247   0.07703   0.00000  Uiso   1.00
Cu198  Cu    0.44043   0.49439   0.24436   0.00000  Uiso   1.00
Cu199  Cu    0.55957   0.50561   0.25565   0.00000  Uiso   1.00
H200   H     0.64882   0.55499   0.10004   0.00000  Uiso   1.00
H201   H     0.55819   0.57117   0.38194   0.00000  Uiso   1.00
H202   H     0.56053   0.34538   0.26797   0.00000  Uiso   1.00
H203   H     0.33702   0.53919   0.28960   0.00000  Uiso   1.00
H204   H     0.66296   0.46080   0.21041   0.00000  Uiso   1.00
H205   H     0.63675   0.59177   0.43322   0.00000  Uiso   1.00
H206   H     0.33891   0.58314   0.01140   0.00000  Uiso   1.00
H207   H     0.46538   0.47105   0.08450   0.00000  Uiso   1.00
H208   H     0.35032   0.45803   0.40027   0.00000  Uiso   1.00
H209   H     0.39216   0.46657   0.04719   0.00000  Uiso   1.00
H210   H     0.65165   0.44211   0.49191   0.00000  Uiso   1.00
N211   N     0.64908   0.51407   0.26416   0.00000  Uiso   1.00
N212   N     0.35092   0.48593   0.23584   0.00000  Uiso   1.00
O213   O     0.46131   0.57141   0.24633   0.00000  Uiso   1.00
O214   O     0.56191   0.58089   0.25587   0.00000  Uiso   1.00
O215   O     0.42515   0.49293   0.31840   0.00000  Uiso   1.00
O216   O     0.52575   0.50241   0.32793   0.00000  Uiso   1.00
O217   O     0.43809   0.41911   0.24414   0.00000  Uiso   1.00
O218   O     0.53869   0.42859   0.25367   0.00000  Uiso   1.00
O219   O     0.47425   0.49759   0.17207   0.00000  Uiso   1.00
O220   O     0.57485   0.50707   0.18161   0.00000  Uiso   1.00
Br221  Br    0.74704   0.64331   0.20253   0.00000  Uiso   1.00
C222   C     0.84853   0.59999   0.25027   0.00000  Uiso   1.00
C223   C     0.77915   0.49849   0.40334   0.00000  Uiso   1.00
C224   C     0.85513   0.65566   0.25195   0.00000  Uiso   1.00
C225   C     0.79987   0.49939   0.34724   0.00000  Uiso   1.00
C226   C     0.81325   0.34484   0.23779   0.00000  Uiso   1.00
C227   C     0.81923   0.40015   0.24602   0.00000  Uiso   1.00
C228   C     0.86720   0.50373   0.15295   0.00000  Uiso   1.00
C229   C     0.95968   0.55912   0.02685   0.00000  Uiso   1.00
C230   C     0.88744   0.51240   0.09795   0.00000  Uiso   1.00
C231   C     0.71755   0.47225   0.42427   0.00000  Uiso   1.00
C232   C     0.69947   0.46216   0.47611   0.00000  Uiso   1.00
C233   C     0.80588   0.50254   0.48782   0.00000  Uiso   1.00
C234   C     0.74306   0.47603   0.00749   0.00000  Uiso   1.00
C235   C     0.82207   0.51790   0.43605   0.00000  Uiso   1.00
C236   C     0.85298   0.51487   0.01788   0.00000  Uiso   1.00
C237   C     0.91303   0.54637   0.49748   0.00000  Uiso   1.00
C238   C     0.92537   0.56594   0.44850   0.00000  Uiso   1.00
C239   C     0.88036   0.55264   0.41854   0.00000  Uiso   1.00
C240   C     0.84237   0.49676   0.06768   0.00000  Uiso   1.00
C241   C     0.94683   0.54247   0.07703   0.00000  Uiso   1.00
Cu242  Cu    0.77377   0.49439   0.24436   0.00000  Uiso   1.00
Cu243  Cu    0.89290   0.50561   0.25565   0.00000  Uiso   1.00
H244   H     0.98215   0.55499   0.10004   0.00000  Uiso   1.00
H245   H     0.89152   0.57117   0.38194   0.00000  Uiso   1.00
H246   H     0.89387   0.34538   0.26797   0.00000  Uiso   1.00
H247   H     0.67036   0.53919   0.28960   0.00000  Uiso   1.00
H248   H     0.99629   0.46080   0.21041   0.00000  Uiso   1.00
H249   H     0.97008   0.59177   0.43322   0.00000  Uiso   1.00
H250   H     0.67224   0.58314   0.01140   0.00000  Uiso   1.00
H251   H     0.79871   0.47105   0.08450   0.00000  Uiso   1.00
H252   H     0.68366   0.45803   0.40027   0.00000  Uiso   1.00
H253   H     0.72550   0.46657   0.04719   0.00000  Uiso   1.00
H254   H     0.98498   0.44211   0.49191   0.00000  Uiso   1.00
N255   N     0.98241   0.51407   0.26416   0.00000  Uiso   1.00
N256   N     0.68426   0.48593   0.23584   0.00000  Uiso   1.00
O257   O     0.79464   0.57141   0.24633   0.00000  Uiso   1.00
O258   O     0.89524   0.58089   0.25587   0.00000  Uiso   1.00
O259   O     0.75848   0.49293   0.31840   0.00000  Uiso   1.00
O260   O     0.85908   0.50241   0.32793   0.00000  Uiso   1.00
O261   O     0.77142   0.41911   0.24414   0.00000  Uiso   1.00
O262   O     0.87203   0.42859   0.25367   0.00000  Uiso   1.00
O263   O     0.80758   0.49759   0.17207   0.00000  Uiso   1.00
O264   O     0.90819   0.50707   0.18161   0.00000  Uiso   1.00
Br265  Br    0.08037   0.97664   0.20253   0.00000  Uiso   1.00
C266   C     0.18186   0.93333   0.25027   0.00000  Uiso   1.00
C267   C     0.11249   0.83183   0.40334   0.00000  Uiso   1.00
C268   C     0.18846   0.98899   0.25195   0.00000  Uiso   1.00
C269   C     0.13320   0.83273   0.34724   0.00000  Uiso   1.00
C270   C     0.14659   0.67818   0.23779   0.00000  Uiso   1.00
C271   C     0.15256   0.73348   0.24602   0.00000  Uiso   1.00
C272   C     0.20054   0.83706   0.15295   0.00000  Uiso   1.00
C273   C     0.29301   0.89246   0.02685   0.00000  Uiso   1.00
C274   C     0.22077   0.84573   0.09795   0.00000  Uiso   1.00
C275   C     0.05088   0.80558   0.42427   0.00000  Uiso   1.00
C276   C     0.03280   0.79549   0.47611   0.00000  Uiso   1.00
C277   C     0.13921   0.83587   0.48782   0.00000  Uiso   1.00
C278   C     0.07639   0.80936   0.00749   0.00000  Uiso   1.00
C279   C     0.15540   0.85123   0.43605   0.00000  Uiso   1.00
C280   C     0.18632   0.84821   0.01788   0.00000  Uiso   1.00
C281   C     0.24636   0.87970   0.49748   0.00000  Uiso   1.00
C282   C     0.25870   0.89927   0.44850   0.00000  Uiso   1.00
C283   C     0.21370   0.88598   0.41854   0.00000  Uiso   1.00
C284   C     0.17571   0.83009   0.06768   0.00000  Uiso   1.00
C285   C     0.28016   0.87580   0.07703   0.00000  Uiso   1.00
Cu286  Cu    0.10710   0.82772   0.24436   0.00000  Uiso   1.00
Cu287  Cu    0.22623   0.83895   0.25565   0.00000  Uiso   1.00
H288   H     0.31548   0.88832   0.10004   0.00000  Uiso   1.00
H289   H     0.22486   0.90451   0.38194   0.00000  Uiso   1.00
H290   H     0.22720   0.67871   0.26797   0.00000  Uiso   1.00
H291   H     0.00369   0.87252   0.28960   0.00000  Uiso   1.00
H292   H     0.32963   0.79414   0.21041   0.00000  Uiso   1.00
H293   H     0.30342   0.92511   0.43322   0.00000  Uiso   1.00
H294   H     0.00558   0.91647   0.01140   0.00000  Uiso   1.00
H295   H     0.13204   0.80439   0.08450   0.00000  Uiso   1.00
H296   H     0.01699   0.79136   0.40027   0.00000  Uiso   1.00
H297   H     0.05883   0.79990   0.04719   0.00000  Uiso   1.00
H298   H     0.31831   0.77545   0.49191   0.00000  Uiso   1.00
N299   N     0.31574   0.84741   0.26416   0.00000  Uiso   1.00
N300   N     0.01759   0.81926   0.23584   0.00000  Uiso   1.00
O301   O     0.12797   0.90474   0.24633   0.00000  Uiso   1.00
O302   O     0.22858   0.91422   0.25587   0.00000  Uiso   1.00
O303   O     0.09181   0.82627   0.31840   0.00000  Uiso   1.00
O304   O     0.19242   0.83575   0.32793   0.00000  Uiso   1.00
O305   O     0.10476   0.75245   0.24414   0.00000  Uiso   1.00
O306   O     0.20536   0.76193   0.25367   0.00000  Uiso   1.00
O307   O     0.14092   0.83092   0.17207   0.00000  Uiso   1.00
O308   O     0.24152   0.84040   0.18161   0.00000  Uiso   1.00
Br309  Br    0.41370   0.97664   0.20253   0.00000  Uiso   1.00
C310   C     0.51520   0.93333   0.25027   0.00000  Uiso   1.00
C311   C     0.44582   0.83183   0.40334   0.00000  Uiso   1.00
C312   C     0.52179   0.98899   0.25195   0.00000  Uiso   1.00
C313   C     0.46653   0.83273   0.34724   0.00000  Uiso   1.00
C314   C     0.47992   0.67818   0.23779   0.00000  Uiso   1.00
C315   C     0.48589   0.73348   0.24602   0.00000  Uiso   1.00
C316   C     0.53387   0.83706   0.15295   0.00000  Uiso   1.00
C317   C     0.62635   0.89246   0.02685   0.00000  Uiso   1.00
C318   C     0.55410   0.84573   0.09795   0.00000  Uiso   1.00
C319   C     0.38421   0.80558   0.42427   0.00000  Uiso   1.00
C320   C     0.36614   0.79549   0.47611   0.00000  Uiso   1.00
C321   C     0.47254   0.83587   0.48782   0.00000  Uiso   1.00
C322   C     0.40973   0.80936   0.00749   0.00000  Uiso   1.00
C323   C     0.48874   0.85123   0.43605   0.00000  Uiso   1.00
C324   C     0.51965   0.84821   0.01788   0.00000  Uiso   1.00
C325   C     0.57969   0.87970   0.49748   0.00000  Uiso   1.00
C326   C     0.59204   0.89927   0.44850   0.00000  Uiso   1.00
C327   C     0.54703   0.88598   0.41854   0.00000  Uiso   1.00
C328   C     0.50904   0.83009   0.06768   0.00000  Uiso   1.00
C329   C     0.61349   0.87580   0.07703   0.00000  Uiso   1.00
Cu330  Cu    0.44043   0.82772   0.24436   0.00000  Uiso   1.00
Cu331  Cu    0.55957   0.83895   0.25565   0.00000  Uiso   1.00
H332   H     0.64882   0.88832   0.10004   0.00000  Uiso   1.00
H333   H     0.55819   0.90451   0.38194   0.00000  Uiso   1.00
H334   H     0.56053   0.67871   0.26797   0.00000  Uiso   1.00
H335   H     0.33702   0.87252   0.28960   0.00000  Uiso   1.00
H336   H     0.66296   0.79414   0.21041   0.00000  Uiso   1.00
H337   H     0.63675   0.92511   0.43322   0.00000  Uiso   1.00
H338   H     0.33891   0.91647   0.01140   0.00000  Uiso   1.00
H339   H     0.46538   0.80439   0.08450   0.00000  Uiso   1.00
H340   H     0.35032   0.79136   0.40027   0.00000  Uiso   1.00
H341   H     0.39216   0.79990   0.04719   0.00000  Uiso   1.00
H342   H     0.65165   0.77545   0.49191   0.00000  Uiso   1.00
N343   N     0.64908   0.84741   0.26416   0.00000  Uiso   1.00
N344   N     0.35092   0.81926   0.23584   0.00000  Uiso   1.00
O345   O     0.46131   0.90474   0.24633   0.00000  Uiso   1.00
O346   O     0.56191   0.91422   0.25587   0.00000  Uiso   1.00
O347   O     0.42515   0.82627   0.31840   0.00000  Uiso   1.00
O348   O     0.52575   0.83575   0.32793   0.00000  Uiso   1.00
O349   O     0.43809   0.75245   0.24414   0.00000  Uiso   1.00
O350   O     0.53869   0.76193   0.25367   0.00000  Uiso   1.00
O351   O     0.47425   0.83092   0.17207   0.00000  Uiso   1.00
O352   O     0.57485   0.84040   0.18161   0.00000  Uiso   1.00
Br353  Br    0.74704   0.97664   0.20253   0.00000  Uiso   1.00
C354   C     0.84853   0.93333   0.25027   0.00000  Uiso   1.00
C355   C     0.77915   0.83183   0.40334   0.00000  Uiso   1.00
C356   C     0.85513   0.98899   0.25195   0.00000  Uiso   1.00
C357   C     0.79987   0.83273   0.34724   0.00000  Uiso   1.00
C358   C     0.81325   0.67818   0.23779   0.00000  Uiso   1.00
C359   C     0.81923   0.73348   0.24602   0.00000  Uiso   1.00
C360   C     0.86720   0.83706   0.15295   0.00000  Uiso   1.00
C361   C     0.95968   0.89246   0.02685   0.00000  Uiso   1.00
C362   C     0.88744   0.84573   0.09795   0.00000  Uiso   1.00
C363   C     0.71755   0.80558   0.42427   0.00000  Uiso   1.00
C364   C     0.69947   0.79549   0.47611   0.00000  Uiso   1.00
C365   C     0.80588   0.83587   0.48782   0.00000  Uiso   1.00
C366   C     0.74306   0.80936   0.00749   0.00000  Uiso   1.00
C367   C     0.82207   0.85123   0.43605   0.00000  Uiso   1.00
C368   C     0.85298   0.84821   0.01788   0.00000  Uiso   1.00
C369   C     0.91303   0.87970   0.49748   0.00000  Uiso   1.00
C370   C     0.92537   0.89927   0.44850   0.00000  Uiso   1.00
C371   C     0.88036   0.88598   0.41854   0.00000  Uiso   1.00
C372   C     0.84237   0.83009   0.06768   0.00000  Uiso   1.00
C373   C     0.94683   0.87580   0.07703   0.00000  Uiso   1.00
Cu374  Cu    0.77377   0.82772   0.24436   0.00000  Uiso   1.00
Cu375  Cu    0.89290   0.83895   0.25565   0.00000  Uiso   1.00
H376   H     0.98215   0.88832   0.10004   0.00000  Uiso   1.00
H377   H     0.89152   0.90451   0.38194   0.00000  Uiso   1.00
H378   H     0.89387   0.67871   0.26797   0.00000  Uiso   1.00
H379   H     0.67036   0.87252   0.28960   0.00000  Uiso   1.00
H380   H     0.99629   0.79414   0.21041   0.00000  Uiso   1.00
H381   H     0.97008   0.92511   0.43322   0.00000  Uiso   1.00
H382   H     0.67224   0.91647   0.01140   0.00000  Uiso   1.00
H383   H     0.79871   0.80439   0.08450   0.00000  Uiso   1.00
H384   H     0.68366   0.79136   0.40027   0.00000  Uiso   1.00
H385   H     0.72550   0.79990   0.04719   0.00000  Uiso   1.00
H386   H     0.98498   0.77545   0.49191   0.00000  Uiso   1.00
N387   N     0.98241   0.84741   0.26416   0.00000  Uiso   1.00
N388   N     0.68426   0.81926   0.23584   0.00000  Uiso   1.00
O389   O     0.79464   0.90474   0.24633   0.00000  Uiso   1.00
O390   O     0.89524   0.91422   0.25587   0.00000  Uiso   1.00
O391   O     0.75848   0.82627   0.31840   0.00000  Uiso   1.00
O392   O     0.85908   0.83575   0.32793   0.00000  Uiso   1.00
O393   O     0.77142   0.75245   0.24414   0.00000  Uiso   1.00
O394   O     0.87203   0.76193   0.25367   0.00000  Uiso   1.00
O395   O     0.80758   0.83092   0.17207   0.00000  Uiso   1.00
O396   O     0.90819   0.84040   0.18161   0.00000  Uiso   1.00
Br397  Br    0.08037   0.30998   0.70253   0.00000  Uiso   1.00
C398   C     0.18186   0.26666   0.75027   0.00000  Uiso   1.00
C399   C     0.11249   0.16516   0.90334   0.00000  Uiso   1.00
C400   C     0.18846   0.32232   0.75195   0.00000  Uiso   1.00
C401   C     0.13320   0.16606   0.84724   0.00000  Uiso   1.00
C402   C     0.14659   0.01151   0.73779   0.00000  Uiso   1.00
C403   C     0.15256   0.06682   0.74602   0.00000  Uiso   1.00
C404   C     0.20054   0.17040   0.65295   0.00000  Uiso   1.00
C405   C     0.29301   0.22579   0.52685   0.00000  Uiso   1.00
C406   C     0.22077   0.17906   0.59795   0.00000  Uiso   1.00
C407   C     0.05088   0.13891   0.92427   0.00000  Uiso   1.00
C408   C     0.03280   0.12882   0.97611   0.00000  Uiso   1.00
C409   C     0.13921   0.16921   0.98782   0.00000  Uiso   1.00
C410   C     0.07639   0.14270   0.50749   0.00000  Uiso   1.00
C411   C     0.15540   0.18457   0.93605   0.00000  Uiso   1.00
C412   C     0.18632   0.18154   0.51788   0.00000  Uiso   1.00
C413   C     0.24636   0.21303   0.99748   0.00000  Uiso   1.00
C414   C     0.25870   0.23260   0.94850   0.00000  Uiso   1.00
C415   C     0.21370   0.21931   0.91854   0.00000  Uiso   1.00
C416   C     0.17571   0.16342   0.56768   0.00000  Uiso   1.00
C417   C     0.28016   0.20914   0.57703   0.00000  Uiso   1.00
Cu418  Cu    0.10710   0.16105   0.74436   0.00000  Uiso   1.00
Cu419  Cu    0.22623   0.17228   0.75565   0.00000  Uiso   1.00
H420   H     0.31548   0.22165   0.60004   0.00000  Uiso   1.00
H421   H     0.22486   0.23784   0.88194   0.00000  Uiso   1.00
H422   H     0.22720   0.01205   0.76797   0.00000  Uiso   1.00
H423   H     0.00369   0.20586   0.78960   0.00000  Uiso   1.00
H424   H     0.32963   0.12747   0.71041   0.00000  Uiso   1.00
H425   H     0.30342   0.25844   0.93322   0.00000  Uiso   1.00
H426   H     0.00558   0.24980   0.51140   0.00000  Uiso   1.00
H427   H     0.13204   0.13772   0.58450   0.00000  Uiso   1.00
H428   H     0.01699   0.12470   0.90027   0.00000  Uiso   1.00
H429   H     0.05883   0.13323   0.54719   0.00000  Uiso   1.00
H430   H     0.31831   0.10878   0.99191   0.00000  Uiso   1.00
N431   N     0.31574   0.18074   0.76416   0.00000  Uiso   1.00
N432   N     0.01759   0.15259   0.73584   0.00000  Uiso   1.00
O433   O     0.12797   0.23807   0.74633   0.00000  Uiso   1.00
O434   O     0.22858   0.24755   0.75587   0.00000  Uiso   1.00
O435   O     0.09181   0.15960   0.81840   0.00000  Uiso   1.00
O436   O     0.19242   0.16908   0.82793   0.00000  Uiso   1.00
O437   O     0.10476   0.08578   0.74414   0.00000  Uiso   1.00
O438   O     0.20536   0.09526   0.75367   0.00000  Uiso   1.00
O439   O     0.14092   0.16425   0.67207   0.00000  Uiso   1.00
O440   O     0.24152   0.17373   0.68161   0.00000  Uiso   1.00
Br441  Br    0.41370   0.30998   0.70253   0.00000  Uiso   1.00
C442   C     0.51520   0.26666   0.75027   0.00000  Uiso   1.00
C443   C     0.44582   0.16516   0.90334   0.00000  Uiso   1.00
C444   C     0.52179   0.32232   0.75195   0.00000  Uiso   1.00
C445   C     0.46653   0.16606   0.84724   0.00000  Uiso   1.00
C446   C     0.47992   0.01151   0.73779   0.00000  Uiso   1.00
C447   C     0.48589   0.06682   0.74602   0.00000  Uiso   1.00
C448   C     0.53387   0.17040   0.65295   0.00000  Uiso   1.00
C449   C     0.62635   0.22579   0.52685   0.00000  Uiso   1.00
C450   C     0.55410   0.17906   0.59795   0.00000  Uiso   1.00
C451   C     0.38421   0.13891   0.92427   0.00000  Uiso   1.00
C452   C     0.36614   0.12882   0.97611   0.00000  Uiso   1.00
C453   C     0.47254   0.16921   0.98782   0.00000  Uiso   1.00
C454   C     0.40973   0.14270   0.50749   0.00000  Uiso   1.00
C455   C     0.48874   0.18457   0.93605   0.00000  Uiso   1.00
C456   C     0.51965   0.18154   0.51788   0.00000  Uiso   1.00
C457   C     0.57969   0.21303   0.99748   0.00000  Uiso   1.00
C458   C     0.59204   0.23260   0.94850   0.00000  Uiso   1.00
C459   C     0.54703   0.21931   0.91854   0.00000  Uiso   1.00
C460   C     0.50904   0.16342   0.56768   0.00000  Uiso   1.00
C461   C     0.61349   0.20914   0.57703   0.00000  Uiso   1.00
Cu462  Cu    0.44043   0.16105   0.74436   0.00000  Uiso   1.00
Cu463  Cu    0.55957   0.17228   0.75565   0.00000  Uiso   1.00
H464   H     0.64882   0.22165   0.60004   0.00000  Uiso   1.00
H465   H     0.55819   0.23784   0.88194   0.00000  Uiso   1.00
H466   H     0.56053   0.01205   0.76797   0.00000  Uiso   1.00
H467   H     0.33702   0.20586   0.78960   0.00000  Uiso   1.00
H468   H     0.66296   0.12747   0.71041   0.00000  Uiso   1.00
H469   H     0.63675   0.25844   0.93322   0.00000  Uiso   1.00
H470   H     0.33891   0.24980   0.51140   0.00000  Uiso   1.00
H471   H     0.46538   0.13772   0.58450   0.00000  Uiso   1.00
H472   H     0.35032   0.12470   0.90027   0.00000  Uiso   1.00
H473   H     0.39216   0.13323   0.54719   0.00000  Uiso   1.00
H474   H     0.65165   0.10878   0.99191   0.00000  Uiso   1.00
N475   N     0.64908   0.18074   0.76416   0.00000  Uiso   1.00
N476   N     0.35092   0.15259   0.73584   0.00000  Uiso   1.00
O477   O     0.46131   0.23807   0.74633   0.00000  Uiso   1.00
O478   O     0.56191   0.24755   0.75587   0.00000  Uiso   1.00
O479   O     0.42515   0.15960   0.81840   0.00000  Uiso   1.00
O480   O     0.52575   0.16908   0.82793   0.00000  Uiso   1.00
O481   O     0.43809   0.08578   0.74414   0.00000  Uiso   1.00
O482   O     0.53869   0.09526   0.75367   0.00000  Uiso   1.00
O483   O     0.47425   0.16425   0.67207   0.00000  Uiso   1.00
O484   O     0.57485   0.17373   0.68161   0.00000  Uiso   1.00
Br485  Br    0.74704   0.30998   0.70253   0.00000  Uiso   1.00
C486   C     0.84853   0.26666   0.75027   0.00000  Uiso   1.00
C487   C     0.77915   0.16516   0.90334   0.00000  Uiso   1.00
C488   C     0.85513   0.32232   0.75195   0.00000  Uiso   1.00
C489   C     0.79987   0.16606   0.84724   0.00000  Uiso   1.00
C490   C     0.81325   0.01151   0.73779   0.00000  Uiso   1.00
C491   C     0.81923   0.06682   0.74602   0.00000  Uiso   1.00
C492   C     0.86720   0.17040   0.65295   0.00000  Uiso   1.00
C493   C     0.95968   0.22579   0.52685   0.00000  Uiso   1.00
C494   C     0.88744   0.17906   0.59795   0.00000  Uiso   1.00
C495   C     0.71755   0.13891   0.92427   0.00000  Uiso   1.00
C496   C     0.69947   0.12882   0.97611   0.00000  Uiso   1.00
C497   C     0.80588   0.16921   0.98782   0.00000  Uiso   1.00
C498   C     0.74306   0.14270   0.50749   0.00000  Uiso   1.00
C499   C     0.82207   0.18457   0.93605   0.00000  Uiso   1.00
C500   C     0.85298   0.18154   0.51788   0.00000  Uiso   1.00
C501   C     0.91303   0.21303   0.99748   0.00000  Uiso   1.00
C502   C     0.92537   0.23260   0.94850   0.00000  Uiso   1.00
C503   C     0.88036   0.21931   0.91854   0.00000  Uiso   1.00
C504   C     0.84237   0.16342   0.56768   0.00000  Uiso   1.00
C505   C     0.94683   0.20914   0.57703   0.00000  Uiso   1.00
Cu506  Cu    0.77377   0.16105   0.74436   0.00000  Uiso   1.00
Cu507  Cu    0.89290   0.17228   0.75565   0.00000  Uiso   1.00
H508   H     0.98215   0.22165   0.60004   0.00000  Uiso   1.00
H509   H     0.89152   0.23784   0.88194   0.00000  Uiso   1.00
H510   H     0.89387   0.01205   0.76797   0.00000  Uiso   1.00
H511   H     0.67036   0.20586   0.78960   0.00000  Uiso   1.00
H512   H     0.99629   0.12747   0.71041   0.00000  Uiso   1.00
H513   H     0.97008   0.25844   0.93322   0.00000  Uiso   1.00
H514   H     0.67224   0.24980   0.51140   0.00000  Uiso   1.00
H515   H     0.79871   0.13772   0.58450   0.00000  Uiso   1.00
H516   H     0.68366   0.12470   0.90027   0.00000  Uiso   1.00
H517   H     0.72550   0.13323   0.54719   0.00000  Uiso   1.00
H518   H     0.98498   0.10878   0.99191   0.00000  Uiso   1.00
N519   N     0.98241   0.18074   0.76416   0.00000  Uiso   1.00
N520   N     0.68426   0.15259   0.73584   0.00000  Uiso   1.00
O521   O     0.79464   0.23807   0.74633   0.00000  Uiso   1.00
O522   O     0.89524   0.24755   0.75587   0.00000  Uiso   1.00
O523   O     0.75848   0.15960   0.81840   0.00000  Uiso   1.00
O524   O     0.85908   0.16908   0.82793   0.00000  Uiso   1.00
O525   O     0.77142   0.08578   0.74414   0.00000  Uiso   1.00
O526   O     0.87203   0.09526   0.75367   0.00000  Uiso   1.00
O527   O     0.80758   0.16425   0.67207   0.00000  Uiso   1.00
O528   O     0.90819   0.17373   0.68161   0.00000  Uiso   1.00
Br529  Br    0.08037   0.64331   0.70253   0.00000  Uiso   1.00
C530   C     0.18186   0.59999   0.75027   0.00000  Uiso   1.00
C531   C     0.11249   0.49849   0.90334   0.00000  Uiso   1.00
C532   C     0.18846   0.65566   0.75195   0.00000  Uiso   1.00
C533   C     0.13320   0.49939   0.84724   0.00000  Uiso   1.00
C534   C     0.14659   0.34484   0.73779   0.00000  Uiso   1.00
C535   C     0.15256   0.40015   0.74602   0.00000  Uiso   1.00
C536   C     0.20054   0.50373   0.65295   0.00000  Uiso   1.00
C537   C     0.29301   0.55912   0.52685   0.00000  Uiso   1.00
C538   C     0.22077   0.51240   0.59795   0.00000  Uiso   1.00
C539   C     0.05088   0.47225   0.92427   0.00000  Uiso   1.00
C540   C     0.03280   0.46216   0.97611   0.00000  Uiso   1.00
C541   C     0.13921   0.50254   0.98782   0.00000  Uiso   1.00
C542   C     0.07639   0.47603   0.50749   0.00000  Uiso   1.00
C543   C     0.15540   0.51790   0.93605   0.00000  Uiso   1.00
C544   C     0.18632   0.51487   0.51788   0.00000  Uiso   1.00
C545   C     0.24636   0.54637   0.99748   0.00000  Uiso   1.00
C546   C     0.25870   0.56594   0.94850   0.00000  Uiso   1.00
C547   C     0.21370   0.55264   0.91854   0.00000  Uiso   1.00
C548   C     0.17571   0.49676   0.56768   0.00000  Uiso   1.00
C549   C     0.28016   0.54247   0.57703   0.00000  Uiso   1.00
Cu550  Cu    0.10710   0.49439   0.74436   0.00000  Uiso   1.00
Cu551  Cu    0.22623   0.50561   0.75565   0.00000  Uiso   1.00
H552   H     0.31548   0.55499   0.60004   0.00000  Uiso   1.00
H553   H     0.22486   0.57117   0.88194   0.00000  Uiso   1.00
H554   H     0.22720   0.34538   0.76797   0.00000  Uiso   1.00
H555   H     0.00369   0.53919   0.78960   0.00000  Uiso   1.00
H556   H     0.32963   0.46080   0.71041   0.00000  Uiso   1.00
H557   H     0.30342   0.59177   0.93322   0.00000  Uiso   1.00
H558   H     0.00558   0.58314   0.51140   0.00000  Uiso   1.00
H559   H     0.13204   0.47105   0.58450   0.00000  Uiso   1.00
H560   H     0.01699   0.45803   0.90027   0.00000  Uiso   1.00
H561   H     0.05883   0.46657   0.54719   0.00000  Uiso   1.00
H562   H     0.31831   0.44211   0.99191   0.00000  Uiso   1.00
N563   N     0.31574   0.51407   0.76416   0.00000  Uiso   1.00
N564   N     0.01759   0.48593   0.73584   0.00000  Uiso   1.00
O565   O     0.12797   0.57141   0.74633   0.00000  Uiso   1.00
O566   O     0.22858   0.58089   0.75587   0.00000  Uiso   1.00
O567   O     0.09181   0.49293   0.81840   0.00000  Uiso   1.00
O568   O     0.19242   0.50241   0.82793   0.00000  Uiso   1.00
O569   O     0.10476   0.41911   0.74414   0.00000  Uiso   1.00
O570   O     0.20536   0.42859   0.75367   0.00000  Uiso   1.00
O571   O     0.14092   0.49759   0.67207   0.00000  Uiso   1.00
O572   O     0.24152   0.50707   0.68161   0.00000  Uiso   1.00
Br573  Br    0.41370   0.64331   0.70253   0.00000  Uiso   1.00
C574   C     0.51520   0.59999   0.75027   0.00000  Uiso   1.00
C575   C     0.44582   0.49849   0.90334   0.00000  Uiso   1.00
C576   C     0.52179   0.65566   0.75195   0.00000  Uiso   1.00
C577   C     0.46653   0.49939   0.84724   0.00000  Uiso   1.00
C578   C     0.47992   0.34484   0.73779   0.00000  Uiso   1.00
C579   C     0.48589   0.40015   0.74602   0.00000  Uiso   1.00
C580   C     0.53387   0.50373   0.65295   0.00000  Uiso   1.00
C581   C     0.62635   0.55912   0.52685   0.00000  Uiso   1.00
C582   C     0.55410   0.51240   0.59795   0.00000  Uiso   1.00
C583   C     0.38421   0.47225   0.92427   0.00000  Uiso   1.00
C584   C     0.36614   0.46216   0.97611   0.00000  Uiso   1.00
C585   C     0.47254   0.50254   0.98782   0.00000  Uiso   1.00
C586   C     0.40973   0.47603   0.50749   0.00000  Uiso   1.00
C587   C     0.48874   0.51790   0.93605   0.00000  Uiso   1.00
C588   C     0.51965   0.51487   0.51788   0.00000  Uiso   1.00
C589   C     0.57969   0.54637   0.99748   0.00000  Uiso   1.00
C590   C     0.59204   0.56594   0.94850   0.00000  Uiso   1.00
C591   C     0.54703   0.55264   0.91854   0.00000  Uiso   1.00
C592   C     0.50904   0.49676   0.56768   0.00000  Uiso   1.00
C593   C     0.61349   0.54247   0.57703   0.00000  Uiso   1.00
Cu594  Cu    0.44043   0.49439   0.74436   0.00000  Uiso   1.00
Cu595  Cu    0.55957   0.50561   0.75565   0.00000  Uiso   1.00
H596   H     0.64882   0.55499   0.60004   0.00000  Uiso   1.00
H597   H     0.55819   0.57117   0.88194   0.00000  Uiso   1.00
H598   H     0.56053   0.34538   0.76797   0.00000  Uiso   1.00
H599   H     0.33702   0.53919   0.78960   0.00000  Uiso   1.00
H600   H     0.66296   0.46080   0.71041   0.00000  Uiso   1.00
H601   H     0.63675   0.59177   0.93322   0.00000  Uiso   1.00
H602   H     0.33891   0.58314   0.51140   0.00000  Uiso   1.00
H603   H     0.46538   0.47105   0.58450   0.00000  Uiso   1.00
H604   H     0.35032   0.45803   0.90027   0.00000  Uiso   1.00
H605   H     0.39216   0.46657   0.54719   0.00000  Uiso   1.00
H606   H     0.65165   0.44211   0.99191   0.00000  Uiso   1.00
N607   N     0.64908   0.51407   0.76416   0.00000  Uiso   1.00
N608   N     0.35092   0.48593   0.73584   0.00000  Uiso   1.00
O609   O     0.46131   0.57141   0.74633   0.00000  Uiso   1.00
O610   O     0.56191   0.58089   0.75587   0.00000  Uiso   1.00
O611   O     0.42515   0.49293   0.81840   0.00000  Uiso   1.00
O612   O     0.52575   0.50241   0.82793   0.00000  Uiso   1.00
O613   O     0.43809   0.41911   0.74414   0.00000  Uiso   1.00
O614   O     0.53869   0.42859   0.75367   0.00000  Uiso   1.00
O615   O     0.47425   0.49759   0.67207   0.00000  Uiso   1.00
O616   O     0.57485   0.50707   0.68161   0.00000  Uiso   1.00
Br617  Br    0.74704   0.64331   0.70253   0.00000  Uiso   1.00
C618   C     0.84853   0.59999   0.75027   0.00000  Uiso   1.00
C619   C     0.77915   0.49849   0.90334   0.00000  Uiso   1.00
C620   C     0.85513   0.65566   0.75195   0.00000  Uiso   1.00
C621   C     0.79987   0.49939   0.84724   0.00000  Uiso   1.00
C622   C     0.81325   0.34484   0.73779   0.00000  Uiso   1.00
C623   C     0.81923   0.40015   0.74602   0.00000  Uiso   1.00
C624   C     0.86720   0.50373   0.65295   0.00000  Uiso   1.00
C625   C     0.95968   0.55912   0.52685   0.00000  Uiso   1.00
C626   C     0.88744   0.51240   0.59795   0.00000  Uiso   1.00
C627   C     0.71755   0.47225   0.92427   0.00000  Uiso   1.00
C628   C     0.69947   0.46216   0.97611   0.00000  Uiso   1.00
C629   C     0.80588   0.50254   0.98782   0.00000  Uiso   1.00
C630   C     0.74306   0.47603   0.50749   0.00000  Uiso   1.00
C631   C     0.82207   0.51790   0.93605   0.00000  Uiso   1.00
C632   C     0.85298   0.51487   0.51788   0.00000  Uiso   1.00
C633   C     0.91303   0.54637   0.99748   0.00000  Uiso   1.00
C634   C     0.92537   0.56594   0.94850   0.00000  Uiso   1.00
C635   C     0.88036   0.55264   0.91854   0.00000  Uiso   1.00
C636   C     0.84237   0.49676   0.56768   0.00000  Uiso   1.00
C637   C     0.94683   0.54247   0.57703   0.00000  Uiso   1.00
Cu638  Cu    0.77377   0.49439   0.74436   0.00000  Uiso   1.00
Cu639  Cu    0.89290   0.50561   0.75565   0.00000  Uiso   1.00
H640   H     0.98215   0.55499   0.60004   0.00000  Uiso   1.00
H641   H     0.89152   0.57117   0.88194   0.00000  Uiso   1.00
H642   H     0.89387   0.34538   0.76797   0.00000  Uiso   1.00
H643   H     0.67036   0.53919   0.78960   0.00000  Uiso   1.00
H644   H     0.99629   0.46080   0.71041   0.00000  Uiso   1.00
H645   H     0.97008   0.59177   0.93322   0.00000  Uiso   1.00
H646   H     0.67224   0.58314   0.51140   0.00000  Uiso   1.00
H647   H     0.79871   0.47105   0.58450   0.00000  Uiso   1.00
H648   H     0.68366   0.45803   0.90027   0.00000  Uiso   1.00
H649   H     0.72550   0.46657   0.54719   0.00000  Uiso   1.00
H650   H     0.98498   0.44211   0.99191   0.00000  Uiso   1.00
N651   N     0.98241   0.51407   0.76416   0.00000  Uiso   1.00
N652   N     0.68426   0.48593   0.73584   0.00000  Uiso   1.00
O653   O     0.79464   0.57141   0.74633   0.00000  Uiso   1.00
O654   O     0.89524   0.58089   0.75587   0.00000  Uiso   1.00
O655   O     0.75848   0.49293   0.81840   0.00000  Uiso   1.00
O656   O     0.85908   0.50241   0.82793   0.00000  Uiso   1.00
O657   O     0.77142   0.41911   0.74414   0.00000  Uiso   1.00
O658   O     0.87203   0.42859   0.75367   0.00000  Uiso   1.00
O659   O     0.80758   0.49759   0.67207   0.00000  Uiso   1.00
O660   O     0.90819   0.50707   0.68161   0.00000  Uiso   1.00
Br661  Br    0.08037   0.97664   0.70253   0.00000  Uiso   1.00
C662   C     0.18186   0.93333   0.75027   0.00000  Uiso   1.00
C663   C     0.11249   0.83183   0.90334   0.00000  Uiso   1.00
C664   C     0.18846   0.98899   0.75195   0.00000  Uiso   1.00
C665   C     0.13320   0.83273   0.84724   0.00000  Uiso   1.00
C666   C     0.14659   0.67818   0.73779   0.00000  Uiso   1.00
C667   C     0.15256   0.73348   0.74602   0.00000  Uiso   1.00
C668   C     0.20054   0.83706   0.65295   0.00000  Uiso   1.00
C669   C     0.29301   0.89246   0.52685   0.00000  Uiso   1.00
C670   C     0.22077   0.84573   0.59795   0.00000  Uiso   1.00
C671   C     0.05088   0.80558   0.92427   0.00000  Uiso   1.00
C672   C     0.03280   0.79549   0.97611   0.00000  Uiso   1.00
C673   C     0.13921   0.83587   0.98782   0.00000  Uiso   1.00
C674   C     0.07639   0.80936   0.50749   0.00000  Uiso   1.00
C675   C     0.15540   0.85123   0.93605   0.00000  Uiso   1.00
C676   C     0.18632   0.84821   0.51788   0.00000  Uiso   1.00
C677   C     0.24636   0.87970   0.99748   0.00000  Uiso   1.00
C678   C     0.25870   0.89927   0.94850   0.00000  Uiso   1.00
C679   C     0.21370   0.88598   0.91854   0.00000  Uiso   1.00
C680   C     0.17571   0.83009   0.56768   0.00000  Uiso   1.00
C681   C     0.28016   0.87580   0.57703   0.00000  Uiso   1.00
Cu682  Cu    0.10710   0.82772   0.74436   0.00000  Uiso   1.00
Cu683  Cu    0.22623   0.83895   0.75565   0.00000  Uiso   1.00
H684   H     0.31548   0.88832   0.60004   0.00000  Uiso   1.00
H685   H     0.22486   0.90451   0.88194   0.00000  Uiso   1.00
H686   H     0.22720   0.67871   0.76797   0.00000  Uiso   1.00
H687   H     0.00369   0.87252   0.78960   0.00000  Uiso   1.00
H688   H     0.32963   0.79414   0.71041   0.00000  Uiso   1.00
H689   H     0.30342   0.92511   0.93322   0.00000  Uiso   1.00
H690   H     0.00558   0.91647   0.51140   0.00000  Uiso   1.00
H691   H     0.13204   0.80439   0.58450   0.00000  Uiso   1.00
H692   H     0.01699   0.79136   0.90027   0.00000  Uiso   1.00
H693   H     0.05883   0.79990   0.54719   0.00000  Uiso   1.00
H694   H     0.31831   0.77545   0.99191   0.00000  Uiso   1.00
N695   N     0.31574   0.84741   0.76416   0.00000  Uiso   1.00
N696   N     0.01759   0.81926   0.73584   0.00000  Uiso   1.00
O697   O     0.12797   0.90474   0.74633   0.00000  Uiso   1.00
O698   O     0.22858   0.91422   0.75587   0.00000  Uiso   1.00
O699   O     0.09181   0.82627   0.81840   0.00000  Uiso   1.00
O700   O     0.19242   0.83575   0.82793   0.00000  Uiso   1.00
O701   O     0.10476   0.75245   0.74414   0.00000  Uiso   1.00
O702   O     0.20536   0.76193   0.75367   0.00000  Uiso   1.00
O703   O     0.14092   0.83092   0.67207   0.00000  Uiso   1.00
O704   O     0.24152   0.84040   0.68161   0.00000  Uiso   1.00
Br705  Br    0.41370   0.97664   0.70253   0.00000  Uiso   1.00
C706   C     0.51520   0.93333   0.75027   0.00000  Uiso   1.00
C707   C     0.44582   0.83183   0.90334   0.00000  Uiso   1.00
C708   C     0.52179   0.98899   0.75195   0.00000  Uiso   1.00
C709   C     0.46653   0.83273   0.84724   0.00000  Uiso   1.00
C710   C     0.47992   0.67818   0.73779   0.00000  Uiso   1.00
C711   C     0.48589   0.73348   0.74602   0.00000  Uiso   1.00
C712   C     0.53387   0.83706   0.65295   0.00000  Uiso   1.00
C713   C     0.62635   0.89246   0.52685   0.00000  Uiso   1.00
C714   C     0.55410   0.84573   0.59795   0.00000  Uiso   1.00
C715   C     0.38421   0.80558   0.92427   0.00000  Uiso   1.00
C716   C     0.36614   0.79549   0.97611   0.00000  Uiso   1.00
C717   C     0.47254   0.83587   0.98782   0.00000  Uiso   1.00
C718   C     0.40973   0.80936   0.50749   0.00000  Uiso   1.00
C719   C     0.48874   0.85123   0.93605   0.00000  Uiso   1.00
C720   C     0.51965   0.84821   0.51788   0.00000  Uiso   1.00
C721   C     0.57969   0.87970   0.99748   0.00000  Uiso   1.00
C722   C     0.59204   0.89927   0.94850   0.00000  Uiso   1.00
C723   C     0.54703   0.88598   0.91854   0.00000  Uiso   1.00
C724   C     0.50904   0.83009   0.56768   0.00000  Uiso   1.00
C725   C     0.61349   0.87580   0.57703   0.00000  Uiso   1.00
Cu726  Cu    0.44043   0.82772   0.74436   0.00000  Uiso   1.00
Cu727  Cu    0.55957   0.83895   0.75565   0.00000  Uiso   1.00
H728   H     0.64882   0.88832   0.60004   0.00000  Uiso   1.00
H729   H     0.55819   0.90451   0.88194   0.00000  Uiso   1.00
H730   H     0.56053   0.67871   0.76797   0.00000  Uiso   1.00
H731   H     0.33702   0.87252   0.78960   0.00000  Uiso   1.00
H732   H     0.66296   0.79414   0.71041   0.00000  Uiso   1.00
H733   H     0.63675   0.92511   0.93322   0.00000  Uiso   1.00
H734   H     0.33891   0.91647   0.51140   0.00000  Uiso   1.00
H735   H     0.46538   0.80439   0.58450   0.00000  Uiso   1.00
H736   H     0.35032   0.79136   0.90027   0.00000  Uiso   1.00
H737   H     0.39216   0.79990   0.54719   0.00000  Uiso   1.00
H738   H     0.65165   0.77545   0.99191   0.00000  Uiso   1.00
N739   N     0.64908   0.84741   0.76416   0.00000  Uiso   1.00
N740   N     0.35092   0.81926   0.73584   0.00000  Uiso   1.00
O741   O     0.46131   0.90474   0.74633   0.00000  Uiso   1.00
O742   O     0.56191   0.91422   0.75587   0.00000  Uiso   1.00
O743   O     0.42515   0.82627   0.81840   0.00000  Uiso   1.00
O744   O     0.52575   0.83575   0.82793   0.00000  Uiso   1.00
O745   O     0.43809   0.75245   0.74414   0.00000  Uiso   1.00
O746   O     0.53869   0.76193   0.75367   0.00000  Uiso   1.00
O747   O     0.47425   0.83092   0.67207   0.00000  Uiso   1.00
O748   O     0.57485   0.84040   0.68161   0.00000  Uiso   1.00
Br749  Br    0.74704   0.97664   0.70253   0.00000  Uiso   1.00
C750   C     0.84853   0.93333   0.75027   0.00000  Uiso   1.00
C751   C     0.77915   0.83183   0.90334   0.00000  Uiso   1.00
C752   C     0.85513   0.98899   0.75195   0.00000  Uiso   1.00
C753   C     0.79987   0.83273   0.84724   0.00000  Uiso   1.00
C754   C     0.81325   0.67818   0.73779   0.00000  Uiso   1.00
C755   C     0.81923   0.73348   0.74602   0.00000  Uiso   1.00
C756   C     0.86720   0.83706   0.65295   0.00000  Uiso   1.00
C757   C     0.95968   0.89246   0.52685   0.00000  Uiso   1.00
C758   C     0.88744   0.84573   0.59795   0.00000  Uiso   1.00
C759   C     0.71755   0.80558   0.92427   0.00000  Uiso   1.00
C760   C     0.69947   0.79549   0.97611   0.00000  Uiso   1.00
C761   C     0.80588   0.83587   0.98782   0.00000  Uiso   1.00
C762   C     0.74306   0.80936   0.50749   0.00000  Uiso   1.00
C763   C     0.82207   0.85123   0.93605   0.00000  Uiso   1.00
C764   C     0.85298   0.84821   0.51788   0.00000  Uiso   1.00
C765   C     0.91303   0.87970   0.99748   0.00000  Uiso   1.00
C766   C     0.92537   0.89927   0.94850   0.00000  Uiso   1.00
C767   C     0.88036   0.88598   0.91854   0.00000  Uiso   1.00
C768   C     0.84237   0.83009   0.56768   0.00000  Uiso   1.00
C769   C     0.94683   0.87580   0.57703   0.00000  Uiso   1.00
Cu770  Cu    0.77377   0.82772   0.74436   0.00000  Uiso   1.00
Cu771  Cu    0.89290   0.83895   0.75565   0.00000  Uiso   1.00
H772   H     0.98215   0.88832   0.60004   0.00000  Uiso   1.00
H773   H     0.89152   0.90451   0.88194   0.00000  Uiso   1.00
H774   H     0.89387   0.67871   0.76797   0.00000  Uiso   1.00
H775   H     0.67036   0.87252   0.78960   0.00000  Uiso   1.00
H776   H     0.99629   0.79414   0.71041   0.00000  Uiso   1.00
H777   H     0.97008   0.92511   0.93322   0.00000  Uiso   1.00
H778   H     0.67224   0.91647   0.51140   0.00000  Uiso   1.00
H779   H     0.79871   0.80439   0.58450   0.00000  Uiso   1.00
H780   H     0.68366   0.79136   0.90027   0.00000  Uiso   1.00
H781   H     0.72550   0.79990   0.54719   0.00000  Uiso   1.00
H782   H     0.98498   0.77545   0.99191   0.00000  Uiso   1.00
N783   N     0.98241   0.84741   0.76416   0.00000  Uiso   1.00
N784   N     0.68426   0.81926   0.73584   0.00000  Uiso   1.00
O785   O     0.79464   0.90474   0.74633   0.00000  Uiso   1.00
O786   O     0.89524   0.91422   0.75587   0.00000  Uiso   1.00
O787   O     0.75848   0.82627   0.81840   0.00000  Uiso   1.00
O788   O     0.85908   0.83575   0.82793   0.00000  Uiso   1.00
O789   O     0.77142   0.75245   0.74414   0.00000  Uiso   1.00
O790   O     0.87203   0.76193   0.75367   0.00000  Uiso   1.00
O791   O     0.80758   0.83092   0.67207   0.00000  Uiso   1.00
O792   O     0.90819   0.84040   0.68161   0.00000  Uiso   1.00
loop_
_geom_bond_atom_site_label_1
_geom_bond_atom_site_label_2
_geom_bond_distance
_geom_bond_site_symmetry_2
_ccdc_geom_bond_type
Br1    C138    1.944   .     S
C2     O38     1.291   .     A
C2     C4      1.429   .     S
C2     O37     1.285   .     A
C3     C11     1.402   .     A
C3     C15     1.423   .     A
C3     C5      1.475   .     S
C4     C138    1.339   .     S
C4     H158    1.088   .     S
C5     O39     1.303   .     A
C5     O40     1.294   .     A
C6     C7      1.429   .     S
C6     C268    1.339   1_545 S
C6     Br265   1.944   1_545 S
C7     O41     1.283   .     A
C7     O42     1.292   .     A
C8     O43     1.293   .     A
C8     C10     1.464   .     S
C8     O44     1.300   .     A
C9     C21     1.393   .     A
C9     C413    1.405   1_554 S
C9     H74     1.084   .     S
C10    C21     1.398   .     A
C10    C20     1.398   .     A
C11    C12     1.387   .     A
C11    H32     1.083   .     S
C12    C410    1.391   .     S
C12    H122    1.083   1_455 S
C13    C15     1.419   .     A
C13    C410    1.418   .     S
C13    C412    1.426   .     S
C14    H33     1.077   .     S
C14    C409    1.418   1_554 S
C14    C408    1.391   1_554 S
C15    C19     1.413   .     A
C16    C20     1.402   .     A
C16    C409    1.426   1_554 S
C16    C413    1.420   1_554 S
C17    C18     1.392   .     A
C17    C412    1.420   .     S
C17    C405    1.405   .     S
C18    H29     1.084   .     S
C18    C19     1.387   .     A
C19    H25     1.080   .     S
C20    H31     1.077   .     S
C21    H24     1.083   .     S
Cu22   N36     2.016   .     S
Cu22   O39     1.942   .     S
Cu22   O41     1.957   .     S
Cu22   Cu23    2.683   .     S
Cu22   O37     1.963   .     S
Cu22   O43     1.921   .     S
Cu23   O38     1.957   .     S
Cu23   O42     1.963   .     S
Cu23   N35     2.016   .     S
Cu23   O40     1.921   .     S
Cu23   O44     1.942   .     S
H26    C268    1.088   1_545 S
H27    N123    1.029   1_455 S
H28    N80     1.029   .     S
H30    C97     1.084   1_455 S
H34    C56     1.083   .     S
N35    H71     1.029   .     S
N35    N80     1.286   .     S
N36    N123    1.286   1_455 S
N36    H116    1.029   1_455 S
Br45   C182    1.944   .     S
C46    O82     1.291   .     A
C46    C48     1.429   .     S
C46    O81     1.285   .     A
C47    C55     1.402   .     A
C47    C59     1.423   .     A
C47    C49     1.475   .     S
C48    C182    1.339   .     S
C48    H202    1.088   .     S
C49    O83     1.303   .     A
C49    O84     1.294   .     A
C50    C51     1.429   .     S
C50    C312    1.339   1_545 S
C50    Br309   1.944   1_545 S
C51    O85     1.283   .     A
C51    O86     1.292   .     A
C52    O87     1.293   .     A
C52    C54     1.464   .     S
C52    O88     1.300   .     A
C53    C65     1.393   .     A
C53    C457    1.405   1_554 S
C53    H118    1.084   .     S
C54    C65     1.398   .     A
C54    C64     1.398   .     A
C55    C56     1.387   .     A
C55    H76     1.083   .     S
C56    C454    1.391   .     S
C57    C59     1.419   .     A
C57    C454    1.418   .     S
C57    C456    1.426   .     S
C58    H77     1.077   .     S
C58    C453    1.418   1_554 S
C58    C452    1.391   1_554 S
C59    C63     1.413   .     A
C60    C64     1.402   .     A
C60    C453    1.426   1_554 S
C60    C457    1.420   1_554 S
C61    C62     1.392   .     A
C61    C456    1.420   .     S
C61    C449    1.405   .     S
C62    H73     1.084   .     S
C62    C63     1.387   .     A
C63    H69     1.080   .     S
C64    H75     1.077   .     S
C65    H68     1.083   .     S
Cu66   N80     2.016   .     S
Cu66   O83     1.942   .     S
Cu66   O85     1.957   .     S
Cu66   Cu67    2.683   .     S
Cu66   O81     1.963   .     S
Cu66   O87     1.921   .     S
Cu67   O82     1.957   .     S
Cu67   O86     1.963   .     S
Cu67   N79     2.016   .     S
Cu67   O84     1.921   .     S
Cu67   O88     1.942   .     S
H70    C312    1.088   1_545 S
H72    N124    1.029   .     S
H78    C100    1.083   .     S
N79    H115    1.029   .     S
N79    N124    1.286   .     S
Br89   C226    1.944   .     S
C90    O126    1.291   .     A
C90    C92     1.429   .     S
C90    O125    1.285   .     A
C91    C99     1.402   .     A
C91    C103    1.423   .     A
C91    C93     1.475   .     S
C92    C226    1.339   .     S
C92    H246    1.088   .     S
C93    O127    1.303   .     A
C93    O128    1.294   .     A
C94    C95     1.429   .     S
C94    C356    1.339   1_545 S
C94    Br353   1.944   1_545 S
C95    O129    1.283   .     A
C95    O130    1.292   .     A
C96    O131    1.293   .     A
C96    C98     1.464   .     S
C96    O132    1.300   .     A
C97    C109    1.393   .     A
C97    C501    1.405   1_554 S
C97    H30     1.084   1_655 S
C98    C109    1.398   .     A
C98    C108    1.398   .     A
C99    C100    1.387   .     A
C99    H120    1.083   .     S
C100   C498    1.391   .     S
C101   C103    1.419   .     A
C101   C498    1.418   .     S
C101   C500    1.426   .     S
C102   H121    1.077   .     S
C102   C497    1.418   1_554 S
C102   C496    1.391   1_554 S
C103   C107    1.413   .     A
C104   C108    1.402   .     A
C104   C497    1.426   1_554 S
C104   C501    1.420   1_554 S
C105   C106    1.392   .     A
C105   C500    1.420   .     S
C105   C493    1.405   .     S
C106   H117    1.084   .     S
C106   C107    1.387   .     A
C107   H113    1.080   .     S
C108   H119    1.077   .     S
C109   H112    1.083   .     S
Cu110  N124    2.016   .     S
Cu110  O127    1.942   .     S
Cu110  O129    1.957   .     S
Cu110  Cu111   2.683   .     S
Cu110  O125    1.963   .     S
Cu110  O131    1.921   .     S
Cu111  O126    1.957   .     S
Cu111  O130    1.963   .     S
Cu111  N123    2.016   .     S
Cu111  O128    1.921   .     S
Cu111  O132    1.942   .     S
H114   C356    1.088   1_545 S
H116   N36     1.029   1_655 S
H122   C12     1.083   1_655 S
N123   H27     1.029   1_655 S
N123   N36     1.286   1_655 S
Br133  C270    1.944   .     S
C134   O170    1.291   .     A
C134   C136    1.429   .     S
C134   O169    1.285   .     A
C135   C143    1.402   .     A
C135   C147    1.423   .     A
C135   C137    1.475   .     S
C136   C270    1.339   .     S
C136   H290    1.088   .     S
C137   O171    1.303   .     A
C137   O172    1.294   .     A
C138   C139    1.429   .     S
C139   O173    1.283   .     A
C139   O174    1.292   .     A
C140   O175    1.293   .     A
C140   C142    1.464   .     S
C140   O176    1.300   .     A
C141   C153    1.393   .     A
C141   C545    1.405   1_554 S
C141   H206    1.084   .     S
C142   C153    1.398   .     A
C142   C152    1.398   .     A
C143   C144    1.387   .     A
C143   H164    1.083   .     S
C144   C542    1.391   .     S
C144   H254    1.083   1_455 S
C145   C147    1.419   .     A
C145   C542    1.418   .     S
C145   C544    1.426   .     S
C146   H165    1.077   .     S
C146   C541    1.418   1_554 S
C146   C540    1.391   1_554 S
C147   C151    1.413   .     A
C148   C152    1.402   .     A
C148   C541    1.426   1_554 S
C148   C545    1.420   1_554 S
C149   C150    1.392   .     A
C149   C544    1.420   .     S
C149   C537    1.405   .     S
C150   H161    1.084   .     S
C150   C151    1.387   .     A
C151   H157    1.080   .     S
C152   H163    1.077   .     S
C153   H156    1.083   .     S
Cu154  N168    2.016   .     S
Cu154  O171    1.942   .     S
Cu154  O173    1.957   .     S
Cu154  Cu155   2.683   .     S
Cu154  O169    1.963   .     S
Cu154  O175    1.921   .     S
Cu155  O170    1.957   .     S
Cu155  O174    1.963   .     S
Cu155  N167    2.016   .     S
Cu155  O172    1.921   .     S
Cu155  O176    1.942   .     S
H159   N255    1.029   1_455 S
H160   N212    1.029   .     S
H162   C229    1.084   1_455 S
H166   C188    1.083   .     S
N167   H203    1.029   .     S
N167   N212    1.286   .     S
N168   N255    1.286   1_455 S
N168   H248    1.029   1_455 S
Br177  C314    1.944   .     S
C178   O214    1.291   .     A
C178   C180    1.429   .     S
C178   O213    1.285   .     A
C179   C187    1.402   .     A
C179   C191    1.423   .     A
C179   C181    1.475   .     S
C180   C314    1.339   .     S
C180   H334    1.088   .     S
C181   O215    1.303   .     A
C181   O216    1.294   .     A
C182   C183    1.429   .     S
C183   O217    1.283   .     A
C183   O218    1.292   .     A
C184   O219    1.293   .     A
C184   C186    1.464   .     S
C184   O220    1.300   .     A
C185   C197    1.393   .     A
C185   C589    1.405   1_554 S
C185   H250    1.084   .     S
C186   C197    1.398   .     A
C186   C196    1.398   .     A
C187   C188    1.387   .     A
C187   H208    1.083   .     S
C188   C586    1.391   .     S
C189   C191    1.419   .     A
C189   C586    1.418   .     S
C189   C588    1.426   .     S
C190   H209    1.077   .     S
C190   C585    1.418   1_554 S
C190   C584    1.391   1_554 S
C191   C195    1.413   .     A
C192   C196    1.402   .     A
C192   C585    1.426   1_554 S
C192   C589    1.420   1_554 S
C193   C194    1.392   .     A
C193   C588    1.420   .     S
C193   C581    1.405   .     S
C194   H205    1.084   .     S
C194   C195    1.387   .     A
C195   H201    1.080   .     S
C196   H207    1.077   .     S
C197   H200    1.083   .     S
Cu198  N212    2.016   .     S
Cu198  O215    1.942   .     S
Cu198  O217    1.957   .     S
Cu198  Cu199   2.683   .     S
Cu198  O213    1.963   .     S
Cu198  O219    1.921   .     S
Cu199  O214    1.957   .     S
Cu199  O218    1.963   .     S
Cu199  N211    2.016   .     S
Cu199  O216    1.921   .     S
Cu199  O220    1.942   .     S
H204   N256    1.029   .     S
H210   C232    1.083   .     S
N211   H247    1.029   .     S
N211   N256    1.286   .     S
Br221  C358    1.944   .     S
C222   O258    1.291   .     A
C222   C224    1.429   .     S
C222   O257    1.285   .     A
C223   C231    1.402   .     A
C223   C235    1.423   .     A
C223   C225    1.475   .     S
C224   C358    1.339   .     S
C224   H378    1.088   .     S
C225   O259    1.303   .     A
C225   O260    1.294   .     A
C226   C227    1.429   .     S
C227   O261    1.283   .     A
C227   O262    1.292   .     A
C228   O263    1.293   .     A
C228   C230    1.464   .     S
C228   O264    1.300   .     A
C229   C241    1.393   .     A
C229   C633    1.405   1_554 S
C229   H162    1.084   1_655 S
C230   C241    1.398   .     A
C230   C240    1.398   .     A
C231   C232    1.387   .     A
C231   H252    1.083   .     S
C232   C630    1.391   .     S
C233   C235    1.419   .     A
C233   C630    1.418   .     S
C233   C632    1.426   .     S
C234   H253    1.077   .     S
C234   C629    1.418   1_554 S
C234   C628    1.391   1_554 S
C235   C239    1.413   .     A
C236   C240    1.402   .     A
C236   C629    1.426   1_554 S
C236   C633    1.420   1_554 S
C237   C238    1.392   .     A
C237   C632    1.420   .     S
C237   C625    1.405   .     S
C238   H249    1.084   .     S
C238   C239    1.387   .     A
C239   H245    1.080   .     S
C240   H251    1.077   .     S
C241   H244    1.083   .     S
Cu242  N256    2.016   .     S
Cu242  O259    1.942   .     S
Cu242  O261    1.957   .     S
Cu242  Cu243   2.683   .     S
Cu242  O257    1.963   .     S
Cu242  O263    1.921   .     S
Cu243  O258    1.957   .     S
Cu243  O262    1.963   .     S
Cu243  N255    2.016   .     S
Cu243  O260    1.921   .     S
Cu243  O264    1.942   .     S
H248   N168    1.029   1_655 S
H254   C144    1.083   1_655 S
N255   H159    1.029   1_655 S
N255   N168    1.286   1_655 S
Br265  C6      1.944   1_565 S
C266   O302    1.291   .     A
C266   C268    1.429   .     S
C266   O301    1.285   .     A
C267   C275    1.402   .     A
C267   C279    1.423   .     A
C267   C269    1.475   .     S
C268   C6      1.339   1_565 S
C268   H26     1.088   1_565 S
C269   O303    1.303   .     A
C269   O304    1.294   .     A
C270   C271    1.429   .     S
C271   O305    1.283   .     A
C271   O306    1.292   .     A
C272   O307    1.293   .     A
C272   C274    1.464   .     S
C272   O308    1.300   .     A
C273   C285    1.393   .     A
C273   C677    1.405   1_554 S
C273   H338    1.084   .     S
C274   C285    1.398   .     A
C274   C284    1.398   .     A
C275   C276    1.387   .     A
C275   H296    1.083   .     S
C276   C674    1.391   .     S
C276   H386    1.083   1_455 S
C277   C279    1.419   .     A
C277   C674    1.418   .     S
C277   C676    1.426   .     S
C278   H297    1.077   .     S
C278   C673    1.418   1_554 S
C278   C672    1.391   1_554 S
C279   C283    1.413   .     A
C280   C284    1.402   .     A
C280   C673    1.426   1_554 S
C280   C677    1.420   1_554 S
C281   C282    1.392   .     A
C281   C676    1.420   .     S
C281   C669    1.405   .     S
C282   H293    1.084   .     S
C282   C283    1.387   .     A
C283   H289    1.080   .     S
C284   H295    1.077   .     S
C285   H288    1.083   .     S
Cu286  N300    2.016   .     S
Cu286  O303    1.942   .     S
Cu286  O305    1.957   .     S
Cu286  Cu287   2.683   .     S
Cu286  O301    1.963   .     S
Cu286  O307    1.921   .     S
Cu287  O302    1.957   .     S
Cu287  O306    1.963   .     S
Cu287  N299    2.016   .     S
Cu287  O304    1.921   .     S
Cu287  O308    1.942   .     S
H291   N387    1.029   1_455 S
H292   N344    1.029   .     S
H294   C361    1.084   1_455 S
H298   C320    1.083   .     S
N299   H335    1.029   .     S
N299   N344    1.286   .     S
N300   N387    1.286   1_455 S
N300   H380    1.029   1_455 S
Br309  C50     1.944   1_565 S
C310   O346    1.291   .     A
C310   C312    1.429   .     S
C310   O345    1.285   .     A
C311   C319    1.402   .     A
C311   C323    1.423   .     A
C311   C313    1.475   .     S
C312   C50     1.339   1_565 S
C312   H70     1.088   1_565 S
C313   O347    1.303   .     A
C313   O348    1.294   .     A
C314   C315    1.429   .     S
C315   O349    1.283   .     A
C315   O350    1.292   .     A
C316   O351    1.293   .     A
C316   C318    1.464   .     S
C316   O352    1.300   .     A
C317   C329    1.393   .     A
C317   C721    1.405   1_554 S
C317   H382    1.084   .     S
C318   C329    1.398   .     A
C318   C328    1.398   .     A
C319   C320    1.387   .     A
C319   H340    1.083   .     S
C320   C718    1.391   .     S
C321   C323    1.419   .     A
C321   C718    1.418   .     S
C321   C720    1.426   .     S
C322   H341    1.077   .     S
C322   C717    1.418   1_554 S
C322   C716    1.391   1_554 S
C323   C327    1.413   .     A
C324   C328    1.402   .     A
C324   C717    1.426   1_554 S
C324   C721    1.420   1_554 S
C325   C326    1.392   .     A
C325   C720    1.420   .     S
C325   C713    1.405   .     S
C326   H337    1.084   .     S
C326   C327    1.387   .     A
C327   H333    1.080   .     S
C328   H339    1.077   .     S
C329   H332    1.083   .     S
Cu330  N344    2.016   .     S
Cu330  O347    1.942   .     S
Cu330  O349    1.957   .     S
Cu330  Cu331   2.683   .     S
Cu330  O345    1.963   .     S
Cu330  O351    1.921   .     S
Cu331  O346    1.957   .     S
Cu331  O350    1.963   .     S
Cu331  N343    2.016   .     S
Cu331  O348    1.921   .     S
Cu331  O352    1.942   .     S
H336   N388    1.029   .     S
H342   C364    1.083   .     S
N343   H379    1.029   .     S
N343   N388    1.286   .     S
Br353  C94     1.944   1_565 S
C354   O390    1.291   .     A
C354   C356    1.429   .     S
C354   O389    1.285   .     A
C355   C363    1.402   .     A
C355   C367    1.423   .     A
C355   C357    1.475   .     S
C356   C94     1.339   1_565 S
C356   H114    1.088   1_565 S
C357   O391    1.303   .     A
C357   O392    1.294   .     A
C358   C359    1.429   .     S
C359   O393    1.283   .     A
C359   O394    1.292   .     A
C360   O395    1.293   .     A
C360   C362    1.464   .     S
C360   O396    1.300   .     A
C361   C373    1.393   .     A
C361   C765    1.405   1_554 S
C361   H294    1.084   1_655 S
C362   C373    1.398   .     A
C362   C372    1.398   .     A
C363   C364    1.387   .     A
C363   H384    1.083   .     S
C364   C762    1.391   .     S
C365   C367    1.419   .     A
C365   C762    1.418   .     S
C365   C764    1.426   .     S
C366   H385    1.077   .     S
C366   C761    1.418   1_554 S
C366   C760    1.391   1_554 S
C367   C371    1.413   .     A
C368   C372    1.402   .     A
C368   C761    1.426   1_554 S
C368   C765    1.420   1_554 S
C369   C370    1.392   .     A
C369   C764    1.420   .     S
C369   C757    1.405   .     S
C370   H381    1.084   .     S
C370   C371    1.387   .     A
C371   H377    1.080   .     S
C372   H383    1.077   .     S
C373   H376    1.083   .     S
Cu374  N388    2.016   .     S
Cu374  O391    1.942   .     S
Cu374  O393    1.957   .     S
Cu374  Cu375   2.683   .     S
Cu374  O389    1.963   .     S
Cu374  O395    1.921   .     S
Cu375  O390    1.957   .     S
Cu375  O394    1.963   .     S
Cu375  N387    2.016   .     S
Cu375  O392    1.921   .     S
Cu375  O396    1.942   .     S
H380   N300    1.029   1_655 S
H386   C276    1.083   1_655 S
N387   H291    1.029   1_655 S
N387   N300    1.286   1_655 S
Br397  C534    1.944   .     S
C398   O434    1.291   .     A
C398   C400    1.429   .     S
C398   O433    1.285   .     A
C399   C407    1.402   .     A
C399   C411    1.423   .     A
C399   C401    1.475   .     S
C400   C534    1.339   .     S
C400   H554    1.088   .     S
C401   O435    1.303   .     A
C401   O436    1.294   .     A
C402   C403    1.429   .     S
C402   C664    1.339   1_545 S
C402   Br661   1.944   1_545 S
C403   O437    1.283   .     A
C403   O438    1.292   .     A
C404   O439    1.293   .     A
C404   C406    1.464   .     S
C404   O440    1.300   .     A
C405   C417    1.393   .     A
C405   H470    1.084   .     S
C406   C417    1.398   .     A
C406   C416    1.398   .     A
C407   C408    1.387   .     A
C407   H428    1.083   .     S
C408   C14     1.391   1_556 S
C408   H518    1.083   1_455 S
C409   C411    1.419   .     A
C409   C14     1.418   1_556 S
C409   C16     1.426   1_556 S
C410   H429    1.077   .     S
C411   C415    1.413   .     A
C412   C416    1.402   .     A
C413   C414    1.392   .     A
C413   C16     1.420   1_556 S
C413   C9      1.405   1_556 S
C414   H425    1.084   .     S
C414   C415    1.387   .     A
C415   H421    1.080   .     S
C416   H427    1.077   .     S
C417   H420    1.083   .     S
Cu418  N432    2.016   .     S
Cu418  O435    1.942   .     S
Cu418  O437    1.957   .     S
Cu418  Cu419   2.683   .     S
Cu418  O433    1.963   .     S
Cu418  O439    1.921   .     S
Cu419  O434    1.957   .     S
Cu419  O438    1.963   .     S
Cu419  N431    2.016   .     S
Cu419  O436    1.921   .     S
Cu419  O440    1.942   .     S
H422   C664    1.088   1_545 S
H423   N519    1.029   1_455 S
H424   N476    1.029   .     S
H426   C493    1.084   1_455 S
H430   C452    1.083   .     S
N431   H467    1.029   .     S
N431   N476    1.286   .     S
N432   N519    1.286   1_455 S
N432   H512    1.029   1_455 S
Br441  C578    1.944   .     S
C442   O478    1.291   .     A
C442   C444    1.429   .     S
C442   O477    1.285   .     A
C443   C451    1.402   .     A
C443   C455    1.423   .     A
C443   C445    1.475   .     S
C444   C578    1.339   .     S
C444   H598    1.088   .     S
C445   O479    1.303   .     A
C445   O480    1.294   .     A
C446   C447    1.429   .     S
C446   C708    1.339   1_545 S
C446   Br705   1.944   1_545 S
C447   O481    1.283   .     A
C447   O482    1.292   .     A
C448   O483    1.293   .     A
C448   C450    1.464   .     S
C448   O484    1.300   .     A
C449   C461    1.393   .     A
C449   H514    1.084   .     S
C450   C461    1.398   .     A
C450   C460    1.398   .     A
C451   C452    1.387   .     A
C451   H472    1.083   .     S
C452   C58     1.391   1_556 S
C453   C455    1.419   .     A
C453   C58     1.418   1_556 S
C453   C60     1.426   1_556 S
C454   H473    1.077   .     S
C455   C459    1.413   .     A
C456   C460    1.402   .     A
C457   C458    1.392   .     A
C457   C60     1.420   1_556 S
C457   C53     1.405   1_556 S
C458   H469    1.084   .     S
C458   C459    1.387   .     A
C459   H465    1.080   .     S
C460   H471    1.077   .     S
C461   H464    1.083   .     S
Cu462  N476    2.016   .     S
Cu462  O479    1.942   .     S
Cu462  O481    1.957   .     S
Cu462  Cu463   2.683   .     S
Cu462  O477    1.963   .     S
Cu462  O483    1.921   .     S
Cu463  O478    1.957   .     S
Cu463  O482    1.963   .     S
Cu463  N475    2.016   .     S
Cu463  O480    1.921   .     S
Cu463  O484    1.942   .     S
H466   C708    1.088   1_545 S
H468   N520    1.029   .     S
H474   C496    1.083   .     S
N475   H511    1.029   .     S
N475   N520    1.286   .     S
Br485  C622    1.944   .     S
C486   O522    1.291   .     A
C486   C488    1.429   .     S
C486   O521    1.285   .     A
C487   C495    1.402   .     A
C487   C499    1.423   .     A
C487   C489    1.475   .     S
C488   C622    1.339   .     S
C488   H642    1.088   .     S
C489   O523    1.303   .     A
C489   O524    1.294   .     A
C490   C491    1.429   .     S
C490   C752    1.339   1_545 S
C490   Br749   1.944   1_545 S
C491   O525    1.283   .     A
C491   O526    1.292   .     A
C492   O527    1.293   .     A
C492   C494    1.464   .     S
C492   O528    1.300   .     A
C493   C505    1.393   .     A
C493   H426    1.084   1_655 S
C494   C505    1.398   .     A
C494   C504    1.398   .     A
C495   C496    1.387   .     A
C495   H516    1.083   .     S
C496   C102    1.391   1_556 S
C497   C499    1.419   .     A
C497   C102    1.418   1_556 S
C497   C104    1.426   1_556 S
C498   H517    1.077   .     S
C499   C503    1.413   .     A
C500   C504    1.402   .     A
C501   C502    1.392   .     A
C501   C104    1.420   1_556 S
C501   C97     1.405   1_556 S
C502   H513    1.084   .     S
C502   C503    1.387   .     A
C503   H509    1.080   .     S
C504   H515    1.077   .     S
C505   H508    1.083   .     S
Cu506  N520    2.016   .     S
Cu506  O523    1.942   .     S
Cu506  O525    1.957   .     S
Cu506  Cu507   2.683   .     S
Cu506  O521    1.963   .     S
Cu506  O527    1.921   .     S
Cu507  O522    1.957   .     S
Cu507  O526    1.963   .     S
Cu507  N519    2.016   .     S
Cu507  O524    1.921   .     S
Cu507  O528    1.942   .     S
H510   C752    1.088   1_545 S
H512   N432    1.029   1_655 S
H518   C408    1.083   1_655 S
N519   H423    1.029   1_655 S
N519   N432    1.286   1_655 S
Br529  C666    1.944   .     S
C530   O566    1.291   .     A
C530   C532    1.429   .     S
C530   O565    1.285   .     A
C531   C539    1.402   .     A
C531   C543    1.423   .     A
C531   C533    1.475   .     S
C532   C666    1.339   .     S
C532   H686    1.088   .     S
C533   O567    1.303   .     A
C533   O568    1.294   .     A
C534   C535    1.429   .     S
C535   O569    1.283   .     A
C535   O570    1.292   .     A
C536   O571    1.293   .     A
C536   C538    1.464   .     S
C536   O572    1.300   .     A
C537   C549    1.393   .     A
C537   H602    1.084   .     S
C538   C549    1.398   .     A
C538   C548    1.398   .     A
C539   C540    1.387   .     A
C539   H560    1.083   .     S
C540   C146    1.391   1_556 S
C540   H650    1.083   1_455 S
C541   C543    1.419   .     A
C541   C146    1.418   1_556 S
C541   C148    1.426   1_556 S
C542   H561    1.077   .     S
C543   C547    1.413   .     A
C544   C548    1.402   .     A
C545   C546    1.392   .     A
C545   C148    1.420   1_556 S
C545   C141    1.405   1_556 S
C546   H557    1.084   .     S
C546   C547    1.387   .     A
C547   H553    1.080   .     S
C548   H559    1.077   .     S
C549   H552    1.083   .     S
Cu550  N564    2.016   .     S
Cu550  O567    1.942   .     S
Cu550  O569    1.957   .     S
Cu550  Cu551   2.683   .     S
Cu550  O565    1.963   .     S
Cu550  O571    1.921   .     S
Cu551  O566    1.957   .     S
Cu551  O570    1.963   .     S
Cu551  N563    2.016   .     S
Cu551  O568    1.921   .     S
Cu551  O572    1.942   .     S
H555   N651    1.029   1_455 S
H556   N608    1.029   .     S
H558   C625    1.084   1_455 S
H562   C584    1.083   .     S
N563   H599    1.029   .     S
N563   N608    1.286   .     S
N564   N651    1.286   1_455 S
N564   H644    1.029   1_455 S
Br573  C710    1.944   .     S
C574   O610    1.291   .     A
C574   C576    1.429   .     S
C574   O609    1.285   .     A
C575   C583    1.402   .     A
C575   C587    1.423   .     A
C575   C577    1.475   .     S
C576   C710    1.339   .     S
C576   H730    1.088   .     S
C577   O611    1.303   .     A
C577   O612    1.294   .     A
C578   C579    1.429   .     S
C579   O613    1.283   .     A
C579   O614    1.292   .     A
C580   O615    1.293   .     A
C580   C582    1.464   .     S
C580   O616    1.300   .     A
C581   C593    1.393   .     A
C581   H646    1.084   .     S
C582   C593    1.398   .     A
C582   C592    1.398   .     A
C583   C584    1.387   .     A
C583   H604    1.083   .     S
C584   C190    1.391   1_556 S
C585   C587    1.419   .     A
C585   C190    1.418   1_556 S
C585   C192    1.426   1_556 S
C586   H605    1.077   .     S
C587   C591    1.413   .     A
C588   C592    1.402   .     A
C589   C590    1.392   .     A
C589   C192    1.420   1_556 S
C589   C185    1.405   1_556 S
C590   H601    1.084   .     S
C590   C591    1.387   .     A
C591   H597    1.080   .     S
C592   H603    1.077   .     S
C593   H596    1.083   .     S
Cu594  N608    2.016   .     S
Cu594  O611    1.942   .     S
Cu594  O613    1.957   .     S
Cu594  Cu595   2.683   .     S
Cu594  O609    1.963   .     S
Cu594  O615    1.921   .     S
Cu595  O610    1.957   .     S
Cu595  O614    1.963   .     S
Cu595  N607    2.016   .     S
Cu595  O612    1.921   .     S
Cu595  O616    1.942   .     S
H600   N652    1.029   .     S
H606   C628    1.083   .     S
N607   H643    1.029   .     S
N607   N652    1.286   .     S
Br617  C754    1.944   .     S
C618   O654    1.291   .     A
C618   C620    1.429   .     S
C618   O653    1.285   .     A
C619   C627    1.402   .     A
C619   C631    1.423   .     A
C619   C621    1.475   .     S
C620   C754    1.339   .     S
C620   H774    1.088   .     S
C621   O655    1.303   .     A
C621   O656    1.294   .     A
C622   C623    1.429   .     S
C623   O657    1.283   .     A
C623   O658    1.292   .     A
C624   O659    1.293   .     A
C624   C626    1.464   .     S
C624   O660    1.300   .     A
C625   C637    1.393   .     A
C625   H558    1.084   1_655 S
C626   C637    1.398   .     A
C626   C636    1.398   .     A
C627   C628    1.387   .     A
C627   H648    1.083   .     S
C628   C234    1.391   1_556 S
C629   C631    1.419   .     A
C629   C234    1.418   1_556 S
C629   C236    1.426   1_556 S
C630   H649    1.077   .     S
C631   C635    1.413   .     A
C632   C636    1.402   .     A
C633   C634    1.392   .     A
C633   C236    1.420   1_556 S
C633   C229    1.405   1_556 S
C634   H645    1.084   .     S
C634   C635    1.387   .     A
C635   H641    1.080   .     S
C636   H647    1.077   .     S
C637   H640    1.083   .     S
Cu638  N652    2.016   .     S
Cu638  O655    1.942   .     S
Cu638  O657    1.957   .     S
Cu638  Cu639   2.683   .     S
Cu638  O653    1.963   .     S
Cu638  O659    1.921   .     S
Cu639  O654    1.957   .     S
Cu639  O658    1.963   .     S
Cu639  N651    2.016   .     S
Cu639  O656    1.921   .     S
Cu639  O660    1.942   .     S
H644   N564    1.029   1_655 S
H650   C540    1.083   1_655 S
N651   H555    1.029   1_655 S
N651   N564    1.286   1_655 S
Br661  C402    1.944   1_565 S
C662   O698    1.291   .     A
C662   C664    1.429   .     S
C662   O697    1.285   .     A
C663   C671    1.402   .     A
C663   C675    1.423   .     A
C663   C665    1.475   .     S
C664   C402    1.339   1_565 S
C664   H422    1.088   1_565 S
C665   O699    1.303   .     A
C665   O700    1.294   .     A
C666   C667    1.429   .     S
C667   O701    1.283   .     A
C667   O702    1.292   .     A
C668   O703    1.293   .     A
C668   C670    1.464   .     S
C668   O704    1.300   .     A
C669   C681    1.393   .     A
C669   H734    1.084   .     S
C670   C681    1.398   .     A
C670   C680    1.398   .     A
C671   C672    1.387   .     A
C671   H692    1.083   .     S
C672   C278    1.391   1_556 S
C672   H782    1.083   1_455 S
C673   C675    1.419   .     A
C673   C278    1.418   1_556 S
C673   C280    1.426   1_556 S
C674   H693    1.077   .     S
C675   C679    1.413   .     A
C676   C680    1.402   .     A
C677   C678    1.392   .     A
C677   C280    1.420   1_556 S
C677   C273    1.405   1_556 S
C678   H689    1.084   .     S
C678   C679    1.387   .     A
C679   H685    1.080   .     S
C680   H691    1.077   .     S
C681   H684    1.083   .     S
Cu682  N696    2.016   .     S
Cu682  O699    1.942   .     S
Cu682  O701    1.957   .     S
Cu682  Cu683   2.683   .     S
Cu682  O697    1.963   .     S
Cu682  O703    1.921   .     S
Cu683  O698    1.957   .     S
Cu683  O702    1.963   .     S
Cu683  N695    2.016   .     S
Cu683  O700    1.921   .     S
Cu683  O704    1.942   .     S
H687   N783    1.029   1_455 S
H688   N740    1.029   .     S
H690   C757    1.084   1_455 S
H694   C716    1.083   .     S
N695   H731    1.029   .     S
N695   N740    1.286   .     S
N696   N783    1.286   1_455 S
N696   H776    1.029   1_455 S
Br705  C446    1.944   1_565 S
C706   O742    1.291   .     A
C706   C708    1.429   .     S
C706   O741    1.285   .     A
C707   C715    1.402   .     A
C707   C719    1.423   .     A
C707   C709    1.475   .     S
C708   C446    1.339   1_565 S
C708   H466    1.088   1_565 S
C709   O743    1.303   .     A
C709   O744    1.294   .     A
C710   C711    1.429   .     S
C711   O745    1.283   .     A
C711   O746    1.292   .     A
C712   O747    1.293   .     A
C712   C714    1.464   .     S
C712   O748    1.300   .     A
C713   C725    1.393   .     A
C713   H778    1.084   .     S
C714   C725    1.398   .     A
C714   C724    1.398   .     A
C715   C716    1.387   .     A
C715   H736    1.083   .     S
C716   C322    1.391   1_556 S
C717   C719    1.419   .     A
C717   C322    1.418   1_556 S
C717   C324    1.426   1_556 S
C718   H737    1.077   .     S
C719   C723    1.413   .     A
C720   C724    1.402   .     A
C721   C722    1.392   .     A
C721   C324    1.420   1_556 S
C721   C317    1.405   1_556 S
C722   H733    1.084   .     S
C722   C723    1.387   .     A
C723   H729    1.080   .     S
C724   H735    1.077   .     S
C725   H728    1.083   .     S
Cu726  N740    2.016   .     S
Cu726  O743    1.942   .     S
Cu726  O745    1.957   .     S
Cu726  Cu727   2.683   .     S
Cu726  O741    1.963   .     S
Cu726  O747    1.921   .     S
Cu727  O742    1.957   .     S
Cu727  O746    1.963   .     S
Cu727  N739    2.016   .     S
Cu727  O744    1.921   .     S
Cu727  O748    1.942   .     S
H732   N784    1.029   .     S
H738   C760    1.083   .     S
N739   H775    1.029   .     S
N739   N784    1.286   .     S
Br749  C490    1.944   1_565 S
C750   O786    1.291   .     A
C750   C752    1.429   .     S
C750   O785    1.285   .     A
C751   C759    1.402   .     A
C751   C763    1.423   .     A
C751   C753    1.475   .     S
C752   C490    1.339   1_565 S
C752   H510    1.088   1_565 S
C753   O787    1.303   .     A
C753   O788    1.294   .     A
C754   C755    1.429   .     S
C755   O789    1.283   .     A
C755   O790    1.292   .     A
C756   O791    1.293   .     A
C756   C758    1.464   .     S
C756   O792    1.300   .     A
C757   C769    1.393   .     A
C757   H690    1.084   1_655 S
C758   C769    1.398   .     A
C758   C768    1.398   .     A
C759   C760    1.387   .     A
C759   H780    1.083   .     S
C760   C366    1.391   1_556 S
C761   C763    1.419   .     A
C761   C366    1.418   1_556 S
C761   C368    1.426   1_556 S
C762   H781    1.077   .     S
C763   C767    1.413   .     A
C764   C768    1.402   .     A
C765   C766    1.392   .     A
C765   C368    1.420   1_556 S
C765   C361    1.405   1_556 S
C766   H777    1.084   .     S
C766   C767    1.387   .     A
C767   H773    1.080   .     S
C768   H779    1.077   .     S
C769   H772    1.083   .     S
Cu770  N784    2.016   .     S
Cu770  O787    1.942   .     S
Cu770  O789    1.957   .     S
Cu770  Cu771   2.683   .     S
Cu770  O785    1.963   .     S
Cu770  O791    1.921   .     S
Cu771  O786    1.957   .     S
Cu771  O790    1.963   .     S
Cu771  N783    2.016   .     S
Cu771  O788    1.921   .     S
Cu771  O792    1.942   .     S
H776   N696    1.029   1_655 S
H782   C672    1.083   1_655 S
N783   H687    1.029   1_655 S
N783   N696    1.286   1_655 S
