data_str_m2_o10_o16_pcu_sym.188
_audit_creation_date              2020-01-03
_audit_creation_method            'Materials Studio'
_symmetry_space_group_name_H-M    'P1'
_symmetry_Int_Tables_number       1
_symmetry_cell_setting            triclinic
loop_
_symmetry_equiv_pos_as_xyz
  x,y,z
_cell_length_a                    22.3466
_cell_length_b                    26.0678
_cell_length_c                    26.6548
_cell_angle_alpha                 94.7205
_cell_angle_beta                  77.1485
_cell_angle_gamma                 103.4072
loop_
_atom_site_label
_atom_site_type_symbol
_atom_site_fract_x
_atom_site_fract_y
_atom_site_fract_z
_atom_site_U_iso_or_equiv
_atom_site_adp_type
_atom_site_occupancy
C1     C     0.18213   0.26674   0.25073   0.00000  Uiso   1.00
C2     C     0.13908   0.16983   0.48803   0.00000  Uiso   1.00
C3     C     0.15241   0.18858   0.43734   0.00000  Uiso   1.00
C4     C     0.18668   0.18270   0.01764   0.00000  Uiso   1.00
C5     C     0.24107   0.22242   0.00004   0.00000  Uiso   1.00
C6     C     0.24846   0.24689   0.45383   0.00000  Uiso   1.00
C7     C     0.20409   0.23147   0.42329   0.00000  Uiso   1.00
C8     C     0.18258   0.15810   0.06414   0.00000  Uiso   1.00
C9     C     0.27620   0.22147   0.07953   0.00000  Uiso   1.00
C10    C     0.11112   0.16594   0.40400   0.00000  Uiso   1.00
C11    C     0.19077   0.32279   0.25095   0.00000  Uiso   1.00
C12    C     0.13289   0.16581   0.34743   0.00000  Uiso   1.00
C13    C     0.14321   0.01052   0.24714   0.00000  Uiso   1.00
C14    C     0.15156   0.06657   0.24825   0.00000  Uiso   1.00
C15    C     0.20092   0.17101   0.15280   0.00000  Uiso   1.00
C16    C     0.28617   0.23984   0.03018   0.00000  Uiso   1.00
C17    C     0.22263   0.18161   0.09758   0.00000  Uiso   1.00
C18    C     0.05058   0.13711   0.42504   0.00000  Uiso   1.00
C19    C     0.03263   0.12839   0.47757   0.00000  Uiso   1.00
C20    C     0.07657   0.14380   0.00874   0.00000  Uiso   1.00
Cu21   Cu    0.10710   0.16105   0.24436   0.00000  Uiso   1.00
Cu22   Cu    0.22623   0.17228   0.25565   0.00000  Uiso   1.00
H23    H     0.09754   0.31982   0.24336   0.00000  Uiso   1.00
H24    H     0.33030   0.12789   0.20932   0.00000  Uiso   1.00
H25    H     0.28751   0.28008   0.44254   0.00000  Uiso   1.00
H26    H     0.32745   0.27045   0.01665   0.00000  Uiso   1.00
H27    H     0.01734   0.12073   0.40078   0.00000  Uiso   1.00
H28    H     0.06007   0.13760   0.04948   0.00000  Uiso   1.00
H29    H     0.31836   0.10809   0.49397   0.00000  Uiso   1.00
H30    H     0.23645   0.01347   0.25470   0.00000  Uiso   1.00
N31    N     0.31574   0.18074   0.26416   0.00000  Uiso   1.00
N32    N     0.01759   0.15259   0.23584   0.00000  Uiso   1.00
O33    O     0.12797   0.23807   0.24633   0.00000  Uiso   1.00
O34    O     0.22858   0.24755   0.25587   0.00000  Uiso   1.00
O35    O     0.09181   0.15960   0.31840   0.00000  Uiso   1.00
O36    O     0.19242   0.16908   0.32793   0.00000  Uiso   1.00
O37    O     0.10476   0.08578   0.24413   0.00000  Uiso   1.00
O38    O     0.20536   0.09526   0.25367   0.00000  Uiso   1.00
O39    O     0.14092   0.16425   0.17207   0.00000  Uiso   1.00
O40    O     0.24152   0.17373   0.18161   0.00000  Uiso   1.00
Br41   Br    0.00278   0.25507   0.12047   0.00000  Uiso   1.00
O42    O     0.00815   0.21256   0.29937   0.00000  Uiso   1.00
H43    H     0.30827   0.23077   0.31756   0.00000  Uiso   1.00
Br44   Br    0.13585   0.08632   0.07786   0.00000  Uiso   1.00
Br45   Br    0.20591   0.28180   0.37403   0.00000  Uiso   1.00
C46    C     0.51547   0.26674   0.25073   0.00000  Uiso   1.00
C47    C     0.47241   0.16983   0.48803   0.00000  Uiso   1.00
C48    C     0.48574   0.18858   0.43734   0.00000  Uiso   1.00
C49    C     0.52001   0.18270   0.01764   0.00000  Uiso   1.00
C50    C     0.57441   0.22242   0.00004   0.00000  Uiso   1.00
C51    C     0.58180   0.24689   0.45383   0.00000  Uiso   1.00
C52    C     0.53743   0.23147   0.42329   0.00000  Uiso   1.00
C53    C     0.51592   0.15810   0.06414   0.00000  Uiso   1.00
C54    C     0.60953   0.22147   0.07953   0.00000  Uiso   1.00
C55    C     0.44445   0.16594   0.40400   0.00000  Uiso   1.00
C56    C     0.52411   0.32279   0.25095   0.00000  Uiso   1.00
C57    C     0.46623   0.16581   0.34743   0.00000  Uiso   1.00
C58    C     0.47655   0.01052   0.24714   0.00000  Uiso   1.00
C59    C     0.48490   0.06657   0.24825   0.00000  Uiso   1.00
C60    C     0.53425   0.17101   0.15280   0.00000  Uiso   1.00
C61    C     0.61950   0.23984   0.03018   0.00000  Uiso   1.00
C62    C     0.55596   0.18161   0.09758   0.00000  Uiso   1.00
C63    C     0.38391   0.13711   0.42504   0.00000  Uiso   1.00
C64    C     0.36596   0.12839   0.47757   0.00000  Uiso   1.00
C65    C     0.40990   0.14380   0.00874   0.00000  Uiso   1.00
Cu66   Cu    0.44043   0.16105   0.24436   0.00000  Uiso   1.00
Cu67   Cu    0.55957   0.17228   0.25565   0.00000  Uiso   1.00
H68    H     0.43087   0.31982   0.24336   0.00000  Uiso   1.00
H69    H     0.66363   0.12789   0.20932   0.00000  Uiso   1.00
H70    H     0.62084   0.28008   0.44254   0.00000  Uiso   1.00
H71    H     0.66078   0.27045   0.01665   0.00000  Uiso   1.00
H72    H     0.35067   0.12073   0.40078   0.00000  Uiso   1.00
H73    H     0.39340   0.13760   0.04948   0.00000  Uiso   1.00
H74    H     0.65170   0.10809   0.49397   0.00000  Uiso   1.00
H75    H     0.56979   0.01347   0.25470   0.00000  Uiso   1.00
N76    N     0.64908   0.18074   0.26416   0.00000  Uiso   1.00
N77    N     0.35092   0.15259   0.23584   0.00000  Uiso   1.00
O78    O     0.46131   0.23807   0.24633   0.00000  Uiso   1.00
O79    O     0.56191   0.24755   0.25587   0.00000  Uiso   1.00
O80    O     0.42515   0.15960   0.31840   0.00000  Uiso   1.00
O81    O     0.52575   0.16908   0.32793   0.00000  Uiso   1.00
O82    O     0.43809   0.08578   0.24413   0.00000  Uiso   1.00
O83    O     0.53869   0.09526   0.25367   0.00000  Uiso   1.00
O84    O     0.47425   0.16425   0.17207   0.00000  Uiso   1.00
O85    O     0.57485   0.17373   0.18161   0.00000  Uiso   1.00
Br86   Br    0.33611   0.25507   0.12047   0.00000  Uiso   1.00
O87    O     0.34148   0.21256   0.29937   0.00000  Uiso   1.00
H88    H     0.64160   0.23077   0.31756   0.00000  Uiso   1.00
Br89   Br    0.46919   0.08632   0.07786   0.00000  Uiso   1.00
Br90   Br    0.53925   0.28180   0.37403   0.00000  Uiso   1.00
C91    C     0.84880   0.26674   0.25073   0.00000  Uiso   1.00
C92    C     0.80574   0.16983   0.48803   0.00000  Uiso   1.00
C93    C     0.81908   0.18858   0.43734   0.00000  Uiso   1.00
C94    C     0.85335   0.18270   0.01764   0.00000  Uiso   1.00
C95    C     0.90774   0.22242   0.00004   0.00000  Uiso   1.00
C96    C     0.91513   0.24689   0.45383   0.00000  Uiso   1.00
C97    C     0.87076   0.23147   0.42329   0.00000  Uiso   1.00
C98    C     0.84925   0.15810   0.06414   0.00000  Uiso   1.00
C99    C     0.94287   0.22147   0.07953   0.00000  Uiso   1.00
C100   C     0.77778   0.16594   0.40400   0.00000  Uiso   1.00
C101   C     0.85744   0.32279   0.25095   0.00000  Uiso   1.00
C102   C     0.79956   0.16581   0.34743   0.00000  Uiso   1.00
C103   C     0.80988   0.01052   0.24714   0.00000  Uiso   1.00
C104   C     0.81823   0.06657   0.24825   0.00000  Uiso   1.00
C105   C     0.86759   0.17101   0.15280   0.00000  Uiso   1.00
C106   C     0.95283   0.23984   0.03018   0.00000  Uiso   1.00
C107   C     0.88930   0.18161   0.09758   0.00000  Uiso   1.00
C108   C     0.71725   0.13711   0.42504   0.00000  Uiso   1.00
C109   C     0.69929   0.12839   0.47757   0.00000  Uiso   1.00
C110   C     0.74323   0.14380   0.00874   0.00000  Uiso   1.00
Cu111  Cu    0.77377   0.16105   0.24436   0.00000  Uiso   1.00
Cu112  Cu    0.89290   0.17228   0.25565   0.00000  Uiso   1.00
H113   H     0.76421   0.31982   0.24336   0.00000  Uiso   1.00
H114   H     0.99697   0.12789   0.20932   0.00000  Uiso   1.00
H115   H     0.95418   0.28008   0.44254   0.00000  Uiso   1.00
H116   H     0.99412   0.27045   0.01665   0.00000  Uiso   1.00
H117   H     0.68400   0.12073   0.40078   0.00000  Uiso   1.00
H118   H     0.72673   0.13760   0.04948   0.00000  Uiso   1.00
H119   H     0.98503   0.10809   0.49397   0.00000  Uiso   1.00
H120   H     0.90312   0.01347   0.25470   0.00000  Uiso   1.00
N121   N     0.98241   0.18074   0.26416   0.00000  Uiso   1.00
N122   N     0.68426   0.15259   0.23584   0.00000  Uiso   1.00
O123   O     0.79464   0.23807   0.24633   0.00000  Uiso   1.00
O124   O     0.89524   0.24755   0.25587   0.00000  Uiso   1.00
O125   O     0.75848   0.15960   0.31840   0.00000  Uiso   1.00
O126   O     0.85908   0.16908   0.32793   0.00000  Uiso   1.00
O127   O     0.77142   0.08578   0.24413   0.00000  Uiso   1.00
O128   O     0.87203   0.09526   0.25367   0.00000  Uiso   1.00
O129   O     0.80758   0.16425   0.17207   0.00000  Uiso   1.00
O130   O     0.90819   0.17373   0.18161   0.00000  Uiso   1.00
Br131  Br    0.66944   0.25507   0.12047   0.00000  Uiso   1.00
O132   O     0.67481   0.21256   0.29937   0.00000  Uiso   1.00
H133   H     0.97494   0.23077   0.31756   0.00000  Uiso   1.00
Br134  Br    0.80252   0.08632   0.07786   0.00000  Uiso   1.00
Br135  Br    0.87258   0.28180   0.37403   0.00000  Uiso   1.00
C136   C     0.18213   0.60008   0.25073   0.00000  Uiso   1.00
C137   C     0.13908   0.50316   0.48803   0.00000  Uiso   1.00
C138   C     0.15241   0.52192   0.43734   0.00000  Uiso   1.00
C139   C     0.18668   0.51603   0.01764   0.00000  Uiso   1.00
C140   C     0.24107   0.55576   0.00004   0.00000  Uiso   1.00
C141   C     0.24846   0.58022   0.45383   0.00000  Uiso   1.00
C142   C     0.20409   0.56481   0.42329   0.00000  Uiso   1.00
C143   C     0.18258   0.49143   0.06414   0.00000  Uiso   1.00
C144   C     0.27620   0.55480   0.07953   0.00000  Uiso   1.00
C145   C     0.11112   0.49928   0.40400   0.00000  Uiso   1.00
C146   C     0.19077   0.65612   0.25095   0.00000  Uiso   1.00
C147   C     0.13289   0.49914   0.34743   0.00000  Uiso   1.00
C148   C     0.14321   0.34385   0.24714   0.00000  Uiso   1.00
C149   C     0.15156   0.39991   0.24825   0.00000  Uiso   1.00
C150   C     0.20092   0.50434   0.15280   0.00000  Uiso   1.00
C151   C     0.28617   0.57317   0.03018   0.00000  Uiso   1.00
C152   C     0.22263   0.51495   0.09758   0.00000  Uiso   1.00
C153   C     0.05058   0.47044   0.42504   0.00000  Uiso   1.00
C154   C     0.03263   0.46173   0.47757   0.00000  Uiso   1.00
C155   C     0.07657   0.47713   0.00874   0.00000  Uiso   1.00
Cu156  Cu    0.10710   0.49439   0.24436   0.00000  Uiso   1.00
Cu157  Cu    0.22623   0.50561   0.25565   0.00000  Uiso   1.00
H158   H     0.09754   0.65316   0.24336   0.00000  Uiso   1.00
H159   H     0.33030   0.46123   0.20932   0.00000  Uiso   1.00
H160   H     0.28751   0.61341   0.44254   0.00000  Uiso   1.00
H161   H     0.32745   0.60378   0.01665   0.00000  Uiso   1.00
H162   H     0.01734   0.45407   0.40078   0.00000  Uiso   1.00
H163   H     0.06007   0.47093   0.04948   0.00000  Uiso   1.00
H164   H     0.31836   0.44142   0.49397   0.00000  Uiso   1.00
H165   H     0.23645   0.34681   0.25470   0.00000  Uiso   1.00
N166   N     0.31574   0.51407   0.26416   0.00000  Uiso   1.00
N167   N     0.01759   0.48593   0.23584   0.00000  Uiso   1.00
O168   O     0.12797   0.57141   0.24633   0.00000  Uiso   1.00
O169   O     0.22858   0.58089   0.25587   0.00000  Uiso   1.00
O170   O     0.09181   0.49293   0.31840   0.00000  Uiso   1.00
O171   O     0.19242   0.50241   0.32793   0.00000  Uiso   1.00
O172   O     0.10476   0.41911   0.24413   0.00000  Uiso   1.00
O173   O     0.20536   0.42859   0.25367   0.00000  Uiso   1.00
O174   O     0.14092   0.49759   0.17207   0.00000  Uiso   1.00
O175   O     0.24152   0.50707   0.18161   0.00000  Uiso   1.00
Br176  Br    0.00278   0.58840   0.12047   0.00000  Uiso   1.00
O177   O     0.00815   0.54590   0.29937   0.00000  Uiso   1.00
H178   H     0.30827   0.56410   0.31756   0.00000  Uiso   1.00
Br179  Br    0.13585   0.41966   0.07786   0.00000  Uiso   1.00
Br180  Br    0.20591   0.61514   0.37403   0.00000  Uiso   1.00
C181   C     0.51547   0.60008   0.25073   0.00000  Uiso   1.00
C182   C     0.47241   0.50316   0.48803   0.00000  Uiso   1.00
C183   C     0.48574   0.52192   0.43734   0.00000  Uiso   1.00
C184   C     0.52001   0.51603   0.01764   0.00000  Uiso   1.00
C185   C     0.57441   0.55576   0.00004   0.00000  Uiso   1.00
C186   C     0.58180   0.58022   0.45383   0.00000  Uiso   1.00
C187   C     0.53743   0.56481   0.42329   0.00000  Uiso   1.00
C188   C     0.51592   0.49143   0.06414   0.00000  Uiso   1.00
C189   C     0.60953   0.55480   0.07953   0.00000  Uiso   1.00
C190   C     0.44445   0.49928   0.40400   0.00000  Uiso   1.00
C191   C     0.52411   0.65612   0.25095   0.00000  Uiso   1.00
C192   C     0.46623   0.49914   0.34743   0.00000  Uiso   1.00
C193   C     0.47655   0.34385   0.24714   0.00000  Uiso   1.00
C194   C     0.48490   0.39991   0.24825   0.00000  Uiso   1.00
C195   C     0.53425   0.50434   0.15280   0.00000  Uiso   1.00
C196   C     0.61950   0.57317   0.03018   0.00000  Uiso   1.00
C197   C     0.55596   0.51495   0.09758   0.00000  Uiso   1.00
C198   C     0.38391   0.47044   0.42504   0.00000  Uiso   1.00
C199   C     0.36596   0.46173   0.47757   0.00000  Uiso   1.00
C200   C     0.40990   0.47713   0.00874   0.00000  Uiso   1.00
Cu201  Cu    0.44043   0.49439   0.24436   0.00000  Uiso   1.00
Cu202  Cu    0.55957   0.50561   0.25565   0.00000  Uiso   1.00
H203   H     0.43087   0.65316   0.24336   0.00000  Uiso   1.00
H204   H     0.66363   0.46123   0.20932   0.00000  Uiso   1.00
H205   H     0.62084   0.61341   0.44254   0.00000  Uiso   1.00
H206   H     0.66078   0.60378   0.01665   0.00000  Uiso   1.00
H207   H     0.35067   0.45407   0.40078   0.00000  Uiso   1.00
H208   H     0.39340   0.47093   0.04948   0.00000  Uiso   1.00
H209   H     0.65170   0.44142   0.49397   0.00000  Uiso   1.00
H210   H     0.56979   0.34681   0.25470   0.00000  Uiso   1.00
N211   N     0.64908   0.51407   0.26416   0.00000  Uiso   1.00
N212   N     0.35092   0.48593   0.23584   0.00000  Uiso   1.00
O213   O     0.46131   0.57141   0.24633   0.00000  Uiso   1.00
O214   O     0.56191   0.58089   0.25587   0.00000  Uiso   1.00
O215   O     0.42515   0.49293   0.31840   0.00000  Uiso   1.00
O216   O     0.52575   0.50241   0.32793   0.00000  Uiso   1.00
O217   O     0.43809   0.41911   0.24413   0.00000  Uiso   1.00
O218   O     0.53869   0.42859   0.25367   0.00000  Uiso   1.00
O219   O     0.47425   0.49759   0.17207   0.00000  Uiso   1.00
O220   O     0.57485   0.50707   0.18161   0.00000  Uiso   1.00
Br221  Br    0.33611   0.58840   0.12047   0.00000  Uiso   1.00
O222   O     0.34148   0.54590   0.29937   0.00000  Uiso   1.00
H223   H     0.64160   0.56410   0.31756   0.00000  Uiso   1.00
Br224  Br    0.46919   0.41966   0.07786   0.00000  Uiso   1.00
Br225  Br    0.53925   0.61514   0.37403   0.00000  Uiso   1.00
C226   C     0.84880   0.60008   0.25073   0.00000  Uiso   1.00
C227   C     0.80574   0.50316   0.48803   0.00000  Uiso   1.00
C228   C     0.81908   0.52192   0.43734   0.00000  Uiso   1.00
C229   C     0.85335   0.51603   0.01764   0.00000  Uiso   1.00
C230   C     0.90774   0.55576   0.00004   0.00000  Uiso   1.00
C231   C     0.91513   0.58022   0.45383   0.00000  Uiso   1.00
C232   C     0.87076   0.56481   0.42329   0.00000  Uiso   1.00
C233   C     0.84925   0.49143   0.06414   0.00000  Uiso   1.00
C234   C     0.94287   0.55480   0.07953   0.00000  Uiso   1.00
C235   C     0.77778   0.49928   0.40400   0.00000  Uiso   1.00
C236   C     0.85744   0.65612   0.25095   0.00000  Uiso   1.00
C237   C     0.79956   0.49914   0.34743   0.00000  Uiso   1.00
C238   C     0.80988   0.34385   0.24714   0.00000  Uiso   1.00
C239   C     0.81823   0.39991   0.24825   0.00000  Uiso   1.00
C240   C     0.86759   0.50434   0.15280   0.00000  Uiso   1.00
C241   C     0.95283   0.57317   0.03018   0.00000  Uiso   1.00
C242   C     0.88930   0.51495   0.09758   0.00000  Uiso   1.00
C243   C     0.71725   0.47044   0.42504   0.00000  Uiso   1.00
C244   C     0.69929   0.46173   0.47757   0.00000  Uiso   1.00
C245   C     0.74323   0.47713   0.00874   0.00000  Uiso   1.00
Cu246  Cu    0.77377   0.49439   0.24436   0.00000  Uiso   1.00
Cu247  Cu    0.89290   0.50561   0.25565   0.00000  Uiso   1.00
H248   H     0.76421   0.65316   0.24336   0.00000  Uiso   1.00
H249   H     0.99697   0.46123   0.20932   0.00000  Uiso   1.00
H250   H     0.95418   0.61341   0.44254   0.00000  Uiso   1.00
H251   H     0.99412   0.60378   0.01665   0.00000  Uiso   1.00
H252   H     0.68400   0.45407   0.40078   0.00000  Uiso   1.00
H253   H     0.72673   0.47093   0.04948   0.00000  Uiso   1.00
H254   H     0.98503   0.44142   0.49397   0.00000  Uiso   1.00
H255   H     0.90312   0.34681   0.25470   0.00000  Uiso   1.00
N256   N     0.98241   0.51407   0.26416   0.00000  Uiso   1.00
N257   N     0.68426   0.48593   0.23584   0.00000  Uiso   1.00
O258   O     0.79464   0.57141   0.24633   0.00000  Uiso   1.00
O259   O     0.89524   0.58089   0.25587   0.00000  Uiso   1.00
O260   O     0.75848   0.49293   0.31840   0.00000  Uiso   1.00
O261   O     0.85908   0.50241   0.32793   0.00000  Uiso   1.00
O262   O     0.77142   0.41911   0.24413   0.00000  Uiso   1.00
O263   O     0.87203   0.42859   0.25367   0.00000  Uiso   1.00
O264   O     0.80758   0.49759   0.17207   0.00000  Uiso   1.00
O265   O     0.90819   0.50707   0.18161   0.00000  Uiso   1.00
Br266  Br    0.66944   0.58840   0.12047   0.00000  Uiso   1.00
O267   O     0.67481   0.54590   0.29937   0.00000  Uiso   1.00
H268   H     0.97494   0.56410   0.31756   0.00000  Uiso   1.00
Br269  Br    0.80252   0.41966   0.07786   0.00000  Uiso   1.00
Br270  Br    0.87258   0.61514   0.37403   0.00000  Uiso   1.00
C271   C     0.18213   0.93341   0.25073   0.00000  Uiso   1.00
C272   C     0.13908   0.83649   0.48803   0.00000  Uiso   1.00
C273   C     0.15241   0.85525   0.43734   0.00000  Uiso   1.00
C274   C     0.18668   0.84936   0.01764   0.00000  Uiso   1.00
C275   C     0.24107   0.88909   0.00004   0.00000  Uiso   1.00
C276   C     0.24846   0.91356   0.45383   0.00000  Uiso   1.00
C277   C     0.20409   0.89814   0.42329   0.00000  Uiso   1.00
C278   C     0.18258   0.82476   0.06414   0.00000  Uiso   1.00
C279   C     0.27620   0.88814   0.07953   0.00000  Uiso   1.00
C280   C     0.11112   0.83261   0.40400   0.00000  Uiso   1.00
C281   C     0.19077   0.98945   0.25095   0.00000  Uiso   1.00
C282   C     0.13289   0.83248   0.34743   0.00000  Uiso   1.00
C283   C     0.14321   0.67718   0.24714   0.00000  Uiso   1.00
C284   C     0.15156   0.73324   0.24825   0.00000  Uiso   1.00
C285   C     0.20092   0.83767   0.15280   0.00000  Uiso   1.00
C286   C     0.28617   0.90650   0.03018   0.00000  Uiso   1.00
C287   C     0.22263   0.84828   0.09758   0.00000  Uiso   1.00
C288   C     0.05058   0.80377   0.42504   0.00000  Uiso   1.00
C289   C     0.03263   0.79506   0.47757   0.00000  Uiso   1.00
C290   C     0.07657   0.81047   0.00874   0.00000  Uiso   1.00
Cu291  Cu    0.10710   0.82772   0.24436   0.00000  Uiso   1.00
Cu292  Cu    0.22623   0.83895   0.25565   0.00000  Uiso   1.00
H293   H     0.09754   0.98649   0.24336   0.00000  Uiso   1.00
H294   H     0.33030   0.79456   0.20932   0.00000  Uiso   1.00
H295   H     0.28751   0.94674   0.44254   0.00000  Uiso   1.00
H296   H     0.32745   0.93711   0.01665   0.00000  Uiso   1.00
H297   H     0.01734   0.78740   0.40078   0.00000  Uiso   1.00
H298   H     0.06007   0.80426   0.04948   0.00000  Uiso   1.00
H299   H     0.31836   0.77476   0.49397   0.00000  Uiso   1.00
H300   H     0.23645   0.68014   0.25470   0.00000  Uiso   1.00
N301   N     0.31574   0.84741   0.26416   0.00000  Uiso   1.00
N302   N     0.01759   0.81926   0.23584   0.00000  Uiso   1.00
O303   O     0.12797   0.90474   0.24633   0.00000  Uiso   1.00
O304   O     0.22858   0.91422   0.25587   0.00000  Uiso   1.00
O305   O     0.09181   0.82627   0.31840   0.00000  Uiso   1.00
O306   O     0.19242   0.83575   0.32793   0.00000  Uiso   1.00
O307   O     0.10476   0.75245   0.24413   0.00000  Uiso   1.00
O308   O     0.20536   0.76193   0.25367   0.00000  Uiso   1.00
O309   O     0.14092   0.83092   0.17207   0.00000  Uiso   1.00
O310   O     0.24152   0.84040   0.18161   0.00000  Uiso   1.00
Br311  Br    0.00278   0.92173   0.12047   0.00000  Uiso   1.00
O312   O     0.00815   0.87923   0.29937   0.00000  Uiso   1.00
H313   H     0.30827   0.89744   0.31756   0.00000  Uiso   1.00
Br314  Br    0.13585   0.75299   0.07786   0.00000  Uiso   1.00
Br315  Br    0.20591   0.94847   0.37403   0.00000  Uiso   1.00
C316   C     0.51547   0.93341   0.25073   0.00000  Uiso   1.00
C317   C     0.47241   0.83649   0.48803   0.00000  Uiso   1.00
C318   C     0.48574   0.85525   0.43734   0.00000  Uiso   1.00
C319   C     0.52001   0.84936   0.01764   0.00000  Uiso   1.00
C320   C     0.57441   0.88909   0.00004   0.00000  Uiso   1.00
C321   C     0.58180   0.91356   0.45383   0.00000  Uiso   1.00
C322   C     0.53743   0.89814   0.42329   0.00000  Uiso   1.00
C323   C     0.51592   0.82476   0.06414   0.00000  Uiso   1.00
C324   C     0.60953   0.88814   0.07953   0.00000  Uiso   1.00
C325   C     0.44445   0.83261   0.40400   0.00000  Uiso   1.00
C326   C     0.52411   0.98945   0.25095   0.00000  Uiso   1.00
C327   C     0.46623   0.83248   0.34743   0.00000  Uiso   1.00
C328   C     0.47655   0.67718   0.24714   0.00000  Uiso   1.00
C329   C     0.48490   0.73324   0.24825   0.00000  Uiso   1.00
C330   C     0.53425   0.83767   0.15280   0.00000  Uiso   1.00
C331   C     0.61950   0.90650   0.03018   0.00000  Uiso   1.00
C332   C     0.55596   0.84828   0.09758   0.00000  Uiso   1.00
C333   C     0.38391   0.80377   0.42504   0.00000  Uiso   1.00
C334   C     0.36596   0.79506   0.47757   0.00000  Uiso   1.00
C335   C     0.40990   0.81047   0.00874   0.00000  Uiso   1.00
Cu336  Cu    0.44043   0.82772   0.24436   0.00000  Uiso   1.00
Cu337  Cu    0.55957   0.83895   0.25565   0.00000  Uiso   1.00
H338   H     0.43087   0.98649   0.24336   0.00000  Uiso   1.00
H339   H     0.66363   0.79456   0.20932   0.00000  Uiso   1.00
H340   H     0.62084   0.94674   0.44254   0.00000  Uiso   1.00
H341   H     0.66078   0.93711   0.01665   0.00000  Uiso   1.00
H342   H     0.35067   0.78740   0.40078   0.00000  Uiso   1.00
H343   H     0.39340   0.80426   0.04948   0.00000  Uiso   1.00
H344   H     0.65170   0.77476   0.49397   0.00000  Uiso   1.00
H345   H     0.56979   0.68014   0.25470   0.00000  Uiso   1.00
N346   N     0.64908   0.84741   0.26416   0.00000  Uiso   1.00
N347   N     0.35092   0.81926   0.23584   0.00000  Uiso   1.00
O348   O     0.46131   0.90474   0.24633   0.00000  Uiso   1.00
O349   O     0.56191   0.91422   0.25587   0.00000  Uiso   1.00
O350   O     0.42515   0.82627   0.31840   0.00000  Uiso   1.00
O351   O     0.52575   0.83575   0.32793   0.00000  Uiso   1.00
O352   O     0.43809   0.75245   0.24413   0.00000  Uiso   1.00
O353   O     0.53869   0.76193   0.25367   0.00000  Uiso   1.00
O354   O     0.47425   0.83092   0.17207   0.00000  Uiso   1.00
O355   O     0.57485   0.84040   0.18161   0.00000  Uiso   1.00
Br356  Br    0.33611   0.92173   0.12047   0.00000  Uiso   1.00
O357   O     0.34148   0.87923   0.29937   0.00000  Uiso   1.00
H358   H     0.64160   0.89744   0.31756   0.00000  Uiso   1.00
Br359  Br    0.46919   0.75299   0.07786   0.00000  Uiso   1.00
Br360  Br    0.53925   0.94847   0.37403   0.00000  Uiso   1.00
C361   C     0.84880   0.93341   0.25073   0.00000  Uiso   1.00
C362   C     0.80574   0.83649   0.48803   0.00000  Uiso   1.00
C363   C     0.81908   0.85525   0.43734   0.00000  Uiso   1.00
C364   C     0.85335   0.84936   0.01764   0.00000  Uiso   1.00
C365   C     0.90774   0.88909   0.00004   0.00000  Uiso   1.00
C366   C     0.91513   0.91356   0.45383   0.00000  Uiso   1.00
C367   C     0.87076   0.89814   0.42329   0.00000  Uiso   1.00
C368   C     0.84925   0.82476   0.06414   0.00000  Uiso   1.00
C369   C     0.94287   0.88814   0.07953   0.00000  Uiso   1.00
C370   C     0.77778   0.83261   0.40400   0.00000  Uiso   1.00
C371   C     0.85744   0.98945   0.25095   0.00000  Uiso   1.00
C372   C     0.79956   0.83248   0.34743   0.00000  Uiso   1.00
C373   C     0.80988   0.67718   0.24714   0.00000  Uiso   1.00
C374   C     0.81823   0.73324   0.24825   0.00000  Uiso   1.00
C375   C     0.86759   0.83767   0.15280   0.00000  Uiso   1.00
C376   C     0.95283   0.90650   0.03018   0.00000  Uiso   1.00
C377   C     0.88930   0.84828   0.09758   0.00000  Uiso   1.00
C378   C     0.71725   0.80377   0.42504   0.00000  Uiso   1.00
C379   C     0.69929   0.79506   0.47757   0.00000  Uiso   1.00
C380   C     0.74323   0.81047   0.00874   0.00000  Uiso   1.00
Cu381  Cu    0.77377   0.82772   0.24436   0.00000  Uiso   1.00
Cu382  Cu    0.89290   0.83895   0.25565   0.00000  Uiso   1.00
H383   H     0.76421   0.98649   0.24336   0.00000  Uiso   1.00
H384   H     0.99697   0.79456   0.20932   0.00000  Uiso   1.00
H385   H     0.95418   0.94674   0.44254   0.00000  Uiso   1.00
H386   H     0.99412   0.93711   0.01665   0.00000  Uiso   1.00
H387   H     0.68400   0.78740   0.40078   0.00000  Uiso   1.00
H388   H     0.72673   0.80426   0.04948   0.00000  Uiso   1.00
H389   H     0.98503   0.77476   0.49397   0.00000  Uiso   1.00
H390   H     0.90312   0.68014   0.25470   0.00000  Uiso   1.00
N391   N     0.98241   0.84741   0.26416   0.00000  Uiso   1.00
N392   N     0.68426   0.81926   0.23584   0.00000  Uiso   1.00
O393   O     0.79464   0.90474   0.24633   0.00000  Uiso   1.00
O394   O     0.89524   0.91422   0.25587   0.00000  Uiso   1.00
O395   O     0.75848   0.82627   0.31840   0.00000  Uiso   1.00
O396   O     0.85908   0.83575   0.32793   0.00000  Uiso   1.00
O397   O     0.77142   0.75245   0.24413   0.00000  Uiso   1.00
O398   O     0.87203   0.76193   0.25367   0.00000  Uiso   1.00
O399   O     0.80758   0.83092   0.17207   0.00000  Uiso   1.00
O400   O     0.90819   0.84040   0.18161   0.00000  Uiso   1.00
Br401  Br    0.66944   0.92173   0.12047   0.00000  Uiso   1.00
O402   O     0.67481   0.87923   0.29937   0.00000  Uiso   1.00
H403   H     0.97494   0.89744   0.31756   0.00000  Uiso   1.00
Br404  Br    0.80252   0.75299   0.07786   0.00000  Uiso   1.00
Br405  Br    0.87258   0.94847   0.37403   0.00000  Uiso   1.00
C406   C     0.18213   0.26674   0.75073   0.00000  Uiso   1.00
C407   C     0.13908   0.16983   0.98803   0.00000  Uiso   1.00
C408   C     0.15241   0.18858   0.93734   0.00000  Uiso   1.00
C409   C     0.18668   0.18270   0.51764   0.00000  Uiso   1.00
C410   C     0.24107   0.22242   0.50004   0.00000  Uiso   1.00
C411   C     0.24846   0.24689   0.95383   0.00000  Uiso   1.00
C412   C     0.20409   0.23147   0.92329   0.00000  Uiso   1.00
C413   C     0.18258   0.15810   0.56414   0.00000  Uiso   1.00
C414   C     0.27620   0.22147   0.57953   0.00000  Uiso   1.00
C415   C     0.11112   0.16594   0.90400   0.00000  Uiso   1.00
C416   C     0.19077   0.32279   0.75095   0.00000  Uiso   1.00
C417   C     0.13289   0.16581   0.84743   0.00000  Uiso   1.00
C418   C     0.14321   0.01052   0.74714   0.00000  Uiso   1.00
C419   C     0.15156   0.06657   0.74825   0.00000  Uiso   1.00
C420   C     0.20092   0.17101   0.65280   0.00000  Uiso   1.00
C421   C     0.28617   0.23984   0.53018   0.00000  Uiso   1.00
C422   C     0.22263   0.18161   0.59758   0.00000  Uiso   1.00
C423   C     0.05058   0.13711   0.92504   0.00000  Uiso   1.00
C424   C     0.03263   0.12839   0.97757   0.00000  Uiso   1.00
C425   C     0.07657   0.14380   0.50874   0.00000  Uiso   1.00
Cu426  Cu    0.10710   0.16105   0.74436   0.00000  Uiso   1.00
Cu427  Cu    0.22623   0.17228   0.75565   0.00000  Uiso   1.00
H428   H     0.09754   0.31982   0.74336   0.00000  Uiso   1.00
H429   H     0.33030   0.12789   0.70932   0.00000  Uiso   1.00
H430   H     0.28751   0.28008   0.94254   0.00000  Uiso   1.00
H431   H     0.32745   0.27045   0.51665   0.00000  Uiso   1.00
H432   H     0.01734   0.12073   0.90078   0.00000  Uiso   1.00
H433   H     0.06007   0.13760   0.54948   0.00000  Uiso   1.00
H434   H     0.31836   0.10809   0.99397   0.00000  Uiso   1.00
H435   H     0.23645   0.01347   0.75470   0.00000  Uiso   1.00
N436   N     0.31574   0.18074   0.76416   0.00000  Uiso   1.00
N437   N     0.01759   0.15259   0.73584   0.00000  Uiso   1.00
O438   O     0.12797   0.23807   0.74633   0.00000  Uiso   1.00
O439   O     0.22858   0.24755   0.75587   0.00000  Uiso   1.00
O440   O     0.09181   0.15960   0.81840   0.00000  Uiso   1.00
O441   O     0.19242   0.16908   0.82793   0.00000  Uiso   1.00
O442   O     0.10476   0.08578   0.74413   0.00000  Uiso   1.00
O443   O     0.20536   0.09526   0.75367   0.00000  Uiso   1.00
O444   O     0.14092   0.16425   0.67207   0.00000  Uiso   1.00
O445   O     0.24152   0.17373   0.68161   0.00000  Uiso   1.00
Br446  Br    0.00278   0.25507   0.62047   0.00000  Uiso   1.00
O447   O     0.00815   0.21256   0.79937   0.00000  Uiso   1.00
H448   H     0.30827   0.23077   0.81756   0.00000  Uiso   1.00
Br449  Br    0.13585   0.08632   0.57786   0.00000  Uiso   1.00
Br450  Br    0.20591   0.28180   0.87403   0.00000  Uiso   1.00
C451   C     0.51547   0.26674   0.75073   0.00000  Uiso   1.00
C452   C     0.47241   0.16983   0.98803   0.00000  Uiso   1.00
C453   C     0.48574   0.18858   0.93734   0.00000  Uiso   1.00
C454   C     0.52001   0.18270   0.51764   0.00000  Uiso   1.00
C455   C     0.57441   0.22242   0.50004   0.00000  Uiso   1.00
C456   C     0.58180   0.24689   0.95383   0.00000  Uiso   1.00
C457   C     0.53743   0.23147   0.92329   0.00000  Uiso   1.00
C458   C     0.51592   0.15810   0.56414   0.00000  Uiso   1.00
C459   C     0.60953   0.22147   0.57953   0.00000  Uiso   1.00
C460   C     0.44445   0.16594   0.90400   0.00000  Uiso   1.00
C461   C     0.52411   0.32279   0.75095   0.00000  Uiso   1.00
C462   C     0.46623   0.16581   0.84743   0.00000  Uiso   1.00
C463   C     0.47655   0.01052   0.74714   0.00000  Uiso   1.00
C464   C     0.48490   0.06657   0.74825   0.00000  Uiso   1.00
C465   C     0.53425   0.17101   0.65280   0.00000  Uiso   1.00
C466   C     0.61950   0.23984   0.53018   0.00000  Uiso   1.00
C467   C     0.55596   0.18161   0.59758   0.00000  Uiso   1.00
C468   C     0.38391   0.13711   0.92504   0.00000  Uiso   1.00
C469   C     0.36596   0.12839   0.97757   0.00000  Uiso   1.00
C470   C     0.40990   0.14380   0.50874   0.00000  Uiso   1.00
Cu471  Cu    0.44043   0.16105   0.74436   0.00000  Uiso   1.00
Cu472  Cu    0.55957   0.17228   0.75565   0.00000  Uiso   1.00
H473   H     0.43087   0.31982   0.74336   0.00000  Uiso   1.00
H474   H     0.66363   0.12789   0.70932   0.00000  Uiso   1.00
H475   H     0.62084   0.28008   0.94254   0.00000  Uiso   1.00
H476   H     0.66078   0.27045   0.51665   0.00000  Uiso   1.00
H477   H     0.35067   0.12073   0.90078   0.00000  Uiso   1.00
H478   H     0.39340   0.13760   0.54948   0.00000  Uiso   1.00
H479   H     0.65170   0.10809   0.99397   0.00000  Uiso   1.00
H480   H     0.56979   0.01347   0.75470   0.00000  Uiso   1.00
N481   N     0.64908   0.18074   0.76416   0.00000  Uiso   1.00
N482   N     0.35092   0.15259   0.73584   0.00000  Uiso   1.00
O483   O     0.46131   0.23807   0.74633   0.00000  Uiso   1.00
O484   O     0.56191   0.24755   0.75587   0.00000  Uiso   1.00
O485   O     0.42515   0.15960   0.81840   0.00000  Uiso   1.00
O486   O     0.52575   0.16908   0.82793   0.00000  Uiso   1.00
O487   O     0.43809   0.08578   0.74413   0.00000  Uiso   1.00
O488   O     0.53869   0.09526   0.75367   0.00000  Uiso   1.00
O489   O     0.47425   0.16425   0.67207   0.00000  Uiso   1.00
O490   O     0.57485   0.17373   0.68161   0.00000  Uiso   1.00
Br491  Br    0.33611   0.25507   0.62047   0.00000  Uiso   1.00
O492   O     0.34148   0.21256   0.79937   0.00000  Uiso   1.00
H493   H     0.64160   0.23077   0.81756   0.00000  Uiso   1.00
Br494  Br    0.46919   0.08632   0.57786   0.00000  Uiso   1.00
Br495  Br    0.53925   0.28180   0.87403   0.00000  Uiso   1.00
C496   C     0.84880   0.26674   0.75073   0.00000  Uiso   1.00
C497   C     0.80574   0.16983   0.98803   0.00000  Uiso   1.00
C498   C     0.81908   0.18858   0.93734   0.00000  Uiso   1.00
C499   C     0.85335   0.18270   0.51764   0.00000  Uiso   1.00
C500   C     0.90774   0.22242   0.50004   0.00000  Uiso   1.00
C501   C     0.91513   0.24689   0.95383   0.00000  Uiso   1.00
C502   C     0.87076   0.23147   0.92329   0.00000  Uiso   1.00
C503   C     0.84925   0.15810   0.56414   0.00000  Uiso   1.00
C504   C     0.94287   0.22147   0.57953   0.00000  Uiso   1.00
C505   C     0.77778   0.16594   0.90400   0.00000  Uiso   1.00
C506   C     0.85744   0.32279   0.75095   0.00000  Uiso   1.00
C507   C     0.79956   0.16581   0.84743   0.00000  Uiso   1.00
C508   C     0.80988   0.01052   0.74714   0.00000  Uiso   1.00
C509   C     0.81823   0.06657   0.74825   0.00000  Uiso   1.00
C510   C     0.86759   0.17101   0.65280   0.00000  Uiso   1.00
C511   C     0.95283   0.23984   0.53018   0.00000  Uiso   1.00
C512   C     0.88930   0.18161   0.59758   0.00000  Uiso   1.00
C513   C     0.71725   0.13711   0.92504   0.00000  Uiso   1.00
C514   C     0.69929   0.12839   0.97757   0.00000  Uiso   1.00
C515   C     0.74323   0.14380   0.50874   0.00000  Uiso   1.00
Cu516  Cu    0.77377   0.16105   0.74436   0.00000  Uiso   1.00
Cu517  Cu    0.89290   0.17228   0.75565   0.00000  Uiso   1.00
H518   H     0.76421   0.31982   0.74336   0.00000  Uiso   1.00
H519   H     0.99697   0.12789   0.70932   0.00000  Uiso   1.00
H520   H     0.95418   0.28008   0.94254   0.00000  Uiso   1.00
H521   H     0.99412   0.27045   0.51665   0.00000  Uiso   1.00
H522   H     0.68400   0.12073   0.90078   0.00000  Uiso   1.00
H523   H     0.72673   0.13760   0.54948   0.00000  Uiso   1.00
H524   H     0.98503   0.10809   0.99397   0.00000  Uiso   1.00
H525   H     0.90312   0.01347   0.75470   0.00000  Uiso   1.00
N526   N     0.98241   0.18074   0.76416   0.00000  Uiso   1.00
N527   N     0.68426   0.15259   0.73584   0.00000  Uiso   1.00
O528   O     0.79464   0.23807   0.74633   0.00000  Uiso   1.00
O529   O     0.89524   0.24755   0.75587   0.00000  Uiso   1.00
O530   O     0.75848   0.15960   0.81840   0.00000  Uiso   1.00
O531   O     0.85908   0.16908   0.82793   0.00000  Uiso   1.00
O532   O     0.77142   0.08578   0.74413   0.00000  Uiso   1.00
O533   O     0.87203   0.09526   0.75367   0.00000  Uiso   1.00
O534   O     0.80758   0.16425   0.67207   0.00000  Uiso   1.00
O535   O     0.90819   0.17373   0.68161   0.00000  Uiso   1.00
Br536  Br    0.66944   0.25507   0.62047   0.00000  Uiso   1.00
O537   O     0.67481   0.21256   0.79937   0.00000  Uiso   1.00
H538   H     0.97494   0.23077   0.81756   0.00000  Uiso   1.00
Br539  Br    0.80252   0.08632   0.57786   0.00000  Uiso   1.00
Br540  Br    0.87258   0.28180   0.87403   0.00000  Uiso   1.00
C541   C     0.18213   0.60008   0.75073   0.00000  Uiso   1.00
C542   C     0.13908   0.50316   0.98803   0.00000  Uiso   1.00
C543   C     0.15241   0.52192   0.93734   0.00000  Uiso   1.00
C544   C     0.18668   0.51603   0.51764   0.00000  Uiso   1.00
C545   C     0.24107   0.55576   0.50004   0.00000  Uiso   1.00
C546   C     0.24846   0.58022   0.95383   0.00000  Uiso   1.00
C547   C     0.20409   0.56481   0.92329   0.00000  Uiso   1.00
C548   C     0.18258   0.49143   0.56414   0.00000  Uiso   1.00
C549   C     0.27620   0.55480   0.57953   0.00000  Uiso   1.00
C550   C     0.11112   0.49928   0.90400   0.00000  Uiso   1.00
C551   C     0.19077   0.65612   0.75095   0.00000  Uiso   1.00
C552   C     0.13289   0.49914   0.84743   0.00000  Uiso   1.00
C553   C     0.14321   0.34385   0.74714   0.00000  Uiso   1.00
C554   C     0.15156   0.39991   0.74825   0.00000  Uiso   1.00
C555   C     0.20092   0.50434   0.65280   0.00000  Uiso   1.00
C556   C     0.28617   0.57317   0.53018   0.00000  Uiso   1.00
C557   C     0.22263   0.51495   0.59758   0.00000  Uiso   1.00
C558   C     0.05058   0.47044   0.92504   0.00000  Uiso   1.00
C559   C     0.03263   0.46173   0.97757   0.00000  Uiso   1.00
C560   C     0.07657   0.47713   0.50874   0.00000  Uiso   1.00
Cu561  Cu    0.10710   0.49439   0.74436   0.00000  Uiso   1.00
Cu562  Cu    0.22623   0.50561   0.75565   0.00000  Uiso   1.00
H563   H     0.09754   0.65316   0.74336   0.00000  Uiso   1.00
H564   H     0.33030   0.46123   0.70932   0.00000  Uiso   1.00
H565   H     0.28751   0.61341   0.94254   0.00000  Uiso   1.00
H566   H     0.32745   0.60378   0.51665   0.00000  Uiso   1.00
H567   H     0.01734   0.45407   0.90078   0.00000  Uiso   1.00
H568   H     0.06007   0.47093   0.54948   0.00000  Uiso   1.00
H569   H     0.31836   0.44142   0.99397   0.00000  Uiso   1.00
H570   H     0.23645   0.34681   0.75470   0.00000  Uiso   1.00
N571   N     0.31574   0.51407   0.76416   0.00000  Uiso   1.00
N572   N     0.01759   0.48593   0.73584   0.00000  Uiso   1.00
O573   O     0.12797   0.57141   0.74633   0.00000  Uiso   1.00
O574   O     0.22858   0.58089   0.75587   0.00000  Uiso   1.00
O575   O     0.09181   0.49293   0.81840   0.00000  Uiso   1.00
O576   O     0.19242   0.50241   0.82793   0.00000  Uiso   1.00
O577   O     0.10476   0.41911   0.74413   0.00000  Uiso   1.00
O578   O     0.20536   0.42859   0.75367   0.00000  Uiso   1.00
O579   O     0.14092   0.49759   0.67207   0.00000  Uiso   1.00
O580   O     0.24152   0.50707   0.68161   0.00000  Uiso   1.00
Br581  Br    0.00278   0.58840   0.62047   0.00000  Uiso   1.00
O582   O     0.00815   0.54590   0.79937   0.00000  Uiso   1.00
H583   H     0.30827   0.56410   0.81756   0.00000  Uiso   1.00
Br584  Br    0.13585   0.41966   0.57786   0.00000  Uiso   1.00
Br585  Br    0.20591   0.61514   0.87403   0.00000  Uiso   1.00
C586   C     0.51547   0.60008   0.75073   0.00000  Uiso   1.00
C587   C     0.47241   0.50316   0.98803   0.00000  Uiso   1.00
C588   C     0.48574   0.52192   0.93734   0.00000  Uiso   1.00
C589   C     0.52001   0.51603   0.51764   0.00000  Uiso   1.00
C590   C     0.57441   0.55576   0.50004   0.00000  Uiso   1.00
C591   C     0.58180   0.58022   0.95383   0.00000  Uiso   1.00
C592   C     0.53743   0.56481   0.92329   0.00000  Uiso   1.00
C593   C     0.51592   0.49143   0.56414   0.00000  Uiso   1.00
C594   C     0.60953   0.55480   0.57953   0.00000  Uiso   1.00
C595   C     0.44445   0.49928   0.90400   0.00000  Uiso   1.00
C596   C     0.52411   0.65612   0.75095   0.00000  Uiso   1.00
C597   C     0.46623   0.49914   0.84743   0.00000  Uiso   1.00
C598   C     0.47655   0.34385   0.74714   0.00000  Uiso   1.00
C599   C     0.48490   0.39991   0.74825   0.00000  Uiso   1.00
C600   C     0.53425   0.50434   0.65280   0.00000  Uiso   1.00
C601   C     0.61950   0.57317   0.53018   0.00000  Uiso   1.00
C602   C     0.55596   0.51495   0.59758   0.00000  Uiso   1.00
C603   C     0.38391   0.47044   0.92504   0.00000  Uiso   1.00
C604   C     0.36596   0.46173   0.97757   0.00000  Uiso   1.00
C605   C     0.40990   0.47713   0.50874   0.00000  Uiso   1.00
Cu606  Cu    0.44043   0.49439   0.74436   0.00000  Uiso   1.00
Cu607  Cu    0.55957   0.50561   0.75565   0.00000  Uiso   1.00
H608   H     0.43087   0.65316   0.74336   0.00000  Uiso   1.00
H609   H     0.66363   0.46123   0.70932   0.00000  Uiso   1.00
H610   H     0.62084   0.61341   0.94254   0.00000  Uiso   1.00
H611   H     0.66078   0.60378   0.51665   0.00000  Uiso   1.00
H612   H     0.35067   0.45407   0.90078   0.00000  Uiso   1.00
H613   H     0.39340   0.47093   0.54948   0.00000  Uiso   1.00
H614   H     0.65170   0.44142   0.99397   0.00000  Uiso   1.00
H615   H     0.56979   0.34681   0.75470   0.00000  Uiso   1.00
N616   N     0.64908   0.51407   0.76416   0.00000  Uiso   1.00
N617   N     0.35092   0.48593   0.73584   0.00000  Uiso   1.00
O618   O     0.46131   0.57141   0.74633   0.00000  Uiso   1.00
O619   O     0.56191   0.58089   0.75587   0.00000  Uiso   1.00
O620   O     0.42515   0.49293   0.81840   0.00000  Uiso   1.00
O621   O     0.52575   0.50241   0.82793   0.00000  Uiso   1.00
O622   O     0.43809   0.41911   0.74413   0.00000  Uiso   1.00
O623   O     0.53869   0.42859   0.75367   0.00000  Uiso   1.00
O624   O     0.47425   0.49759   0.67207   0.00000  Uiso   1.00
O625   O     0.57485   0.50707   0.68161   0.00000  Uiso   1.00
Br626  Br    0.33611   0.58840   0.62047   0.00000  Uiso   1.00
O627   O     0.34148   0.54590   0.79937   0.00000  Uiso   1.00
H628   H     0.64160   0.56410   0.81756   0.00000  Uiso   1.00
Br629  Br    0.46919   0.41966   0.57786   0.00000  Uiso   1.00
Br630  Br    0.53925   0.61514   0.87403   0.00000  Uiso   1.00
C631   C     0.84880   0.60008   0.75073   0.00000  Uiso   1.00
C632   C     0.80574   0.50316   0.98803   0.00000  Uiso   1.00
C633   C     0.81908   0.52192   0.93734   0.00000  Uiso   1.00
C634   C     0.85335   0.51603   0.51764   0.00000  Uiso   1.00
C635   C     0.90774   0.55576   0.50004   0.00000  Uiso   1.00
C636   C     0.91513   0.58022   0.95383   0.00000  Uiso   1.00
C637   C     0.87076   0.56481   0.92329   0.00000  Uiso   1.00
C638   C     0.84925   0.49143   0.56414   0.00000  Uiso   1.00
C639   C     0.94287   0.55480   0.57953   0.00000  Uiso   1.00
C640   C     0.77778   0.49928   0.90400   0.00000  Uiso   1.00
C641   C     0.85744   0.65612   0.75095   0.00000  Uiso   1.00
C642   C     0.79956   0.49914   0.84743   0.00000  Uiso   1.00
C643   C     0.80988   0.34385   0.74714   0.00000  Uiso   1.00
C644   C     0.81823   0.39991   0.74825   0.00000  Uiso   1.00
C645   C     0.86759   0.50434   0.65280   0.00000  Uiso   1.00
C646   C     0.95283   0.57317   0.53018   0.00000  Uiso   1.00
C647   C     0.88930   0.51495   0.59758   0.00000  Uiso   1.00
C648   C     0.71725   0.47044   0.92504   0.00000  Uiso   1.00
C649   C     0.69929   0.46173   0.97757   0.00000  Uiso   1.00
C650   C     0.74323   0.47713   0.50874   0.00000  Uiso   1.00
Cu651  Cu    0.77377   0.49439   0.74436   0.00000  Uiso   1.00
Cu652  Cu    0.89290   0.50561   0.75565   0.00000  Uiso   1.00
H653   H     0.76421   0.65316   0.74336   0.00000  Uiso   1.00
H654   H     0.99697   0.46123   0.70932   0.00000  Uiso   1.00
H655   H     0.95418   0.61341   0.94254   0.00000  Uiso   1.00
H656   H     0.99412   0.60378   0.51665   0.00000  Uiso   1.00
H657   H     0.68400   0.45407   0.90078   0.00000  Uiso   1.00
H658   H     0.72673   0.47093   0.54948   0.00000  Uiso   1.00
H659   H     0.98503   0.44142   0.99397   0.00000  Uiso   1.00
H660   H     0.90312   0.34681   0.75470   0.00000  Uiso   1.00
N661   N     0.98241   0.51407   0.76416   0.00000  Uiso   1.00
N662   N     0.68426   0.48593   0.73584   0.00000  Uiso   1.00
O663   O     0.79464   0.57141   0.74633   0.00000  Uiso   1.00
O664   O     0.89524   0.58089   0.75587   0.00000  Uiso   1.00
O665   O     0.75848   0.49293   0.81840   0.00000  Uiso   1.00
O666   O     0.85908   0.50241   0.82793   0.00000  Uiso   1.00
O667   O     0.77142   0.41911   0.74413   0.00000  Uiso   1.00
O668   O     0.87203   0.42859   0.75367   0.00000  Uiso   1.00
O669   O     0.80758   0.49759   0.67207   0.00000  Uiso   1.00
O670   O     0.90819   0.50707   0.68161   0.00000  Uiso   1.00
Br671  Br    0.66944   0.58840   0.62047   0.00000  Uiso   1.00
O672   O     0.67481   0.54590   0.79937   0.00000  Uiso   1.00
H673   H     0.97494   0.56410   0.81756   0.00000  Uiso   1.00
Br674  Br    0.80252   0.41966   0.57786   0.00000  Uiso   1.00
Br675  Br    0.87258   0.61514   0.87403   0.00000  Uiso   1.00
C676   C     0.18213   0.93341   0.75073   0.00000  Uiso   1.00
C677   C     0.13908   0.83649   0.98803   0.00000  Uiso   1.00
C678   C     0.15241   0.85525   0.93734   0.00000  Uiso   1.00
C679   C     0.18668   0.84936   0.51764   0.00000  Uiso   1.00
C680   C     0.24107   0.88909   0.50004   0.00000  Uiso   1.00
C681   C     0.24846   0.91356   0.95383   0.00000  Uiso   1.00
C682   C     0.20409   0.89814   0.92329   0.00000  Uiso   1.00
C683   C     0.18258   0.82476   0.56414   0.00000  Uiso   1.00
C684   C     0.27620   0.88814   0.57953   0.00000  Uiso   1.00
C685   C     0.11112   0.83261   0.90400   0.00000  Uiso   1.00
C686   C     0.19077   0.98945   0.75095   0.00000  Uiso   1.00
C687   C     0.13289   0.83248   0.84743   0.00000  Uiso   1.00
C688   C     0.14321   0.67718   0.74714   0.00000  Uiso   1.00
C689   C     0.15156   0.73324   0.74825   0.00000  Uiso   1.00
C690   C     0.20092   0.83767   0.65280   0.00000  Uiso   1.00
C691   C     0.28617   0.90650   0.53018   0.00000  Uiso   1.00
C692   C     0.22263   0.84828   0.59758   0.00000  Uiso   1.00
C693   C     0.05058   0.80377   0.92504   0.00000  Uiso   1.00
C694   C     0.03263   0.79506   0.97757   0.00000  Uiso   1.00
C695   C     0.07657   0.81047   0.50874   0.00000  Uiso   1.00
Cu696  Cu    0.10710   0.82772   0.74436   0.00000  Uiso   1.00
Cu697  Cu    0.22623   0.83895   0.75565   0.00000  Uiso   1.00
H698   H     0.09754   0.98649   0.74336   0.00000  Uiso   1.00
H699   H     0.33030   0.79456   0.70932   0.00000  Uiso   1.00
H700   H     0.28751   0.94674   0.94254   0.00000  Uiso   1.00
H701   H     0.32745   0.93711   0.51665   0.00000  Uiso   1.00
H702   H     0.01734   0.78740   0.90078   0.00000  Uiso   1.00
H703   H     0.06007   0.80426   0.54948   0.00000  Uiso   1.00
H704   H     0.31836   0.77476   0.99397   0.00000  Uiso   1.00
H705   H     0.23645   0.68014   0.75470   0.00000  Uiso   1.00
N706   N     0.31574   0.84741   0.76416   0.00000  Uiso   1.00
N707   N     0.01759   0.81926   0.73584   0.00000  Uiso   1.00
O708   O     0.12797   0.90474   0.74633   0.00000  Uiso   1.00
O709   O     0.22858   0.91422   0.75587   0.00000  Uiso   1.00
O710   O     0.09181   0.82627   0.81840   0.00000  Uiso   1.00
O711   O     0.19242   0.83575   0.82793   0.00000  Uiso   1.00
O712   O     0.10476   0.75245   0.74413   0.00000  Uiso   1.00
O713   O     0.20536   0.76193   0.75367   0.00000  Uiso   1.00
O714   O     0.14092   0.83092   0.67207   0.00000  Uiso   1.00
O715   O     0.24152   0.84040   0.68161   0.00000  Uiso   1.00
Br716  Br    0.00278   0.92173   0.62047   0.00000  Uiso   1.00
O717   O     0.00815   0.87923   0.79937   0.00000  Uiso   1.00
H718   H     0.30827   0.89744   0.81756   0.00000  Uiso   1.00
Br719  Br    0.13585   0.75299   0.57786   0.00000  Uiso   1.00
Br720  Br    0.20591   0.94847   0.87403   0.00000  Uiso   1.00
C721   C     0.51547   0.93341   0.75073   0.00000  Uiso   1.00
C722   C     0.47241   0.83649   0.98803   0.00000  Uiso   1.00
C723   C     0.48574   0.85525   0.93734   0.00000  Uiso   1.00
C724   C     0.52001   0.84936   0.51764   0.00000  Uiso   1.00
C725   C     0.57441   0.88909   0.50004   0.00000  Uiso   1.00
C726   C     0.58180   0.91356   0.95383   0.00000  Uiso   1.00
C727   C     0.53743   0.89814   0.92329   0.00000  Uiso   1.00
C728   C     0.51592   0.82476   0.56414   0.00000  Uiso   1.00
C729   C     0.60953   0.88814   0.57953   0.00000  Uiso   1.00
C730   C     0.44445   0.83261   0.90400   0.00000  Uiso   1.00
C731   C     0.52411   0.98945   0.75095   0.00000  Uiso   1.00
C732   C     0.46623   0.83248   0.84743   0.00000  Uiso   1.00
C733   C     0.47655   0.67718   0.74714   0.00000  Uiso   1.00
C734   C     0.48490   0.73324   0.74825   0.00000  Uiso   1.00
C735   C     0.53425   0.83767   0.65280   0.00000  Uiso   1.00
C736   C     0.61950   0.90650   0.53018   0.00000  Uiso   1.00
C737   C     0.55596   0.84828   0.59758   0.00000  Uiso   1.00
C738   C     0.38391   0.80377   0.92504   0.00000  Uiso   1.00
C739   C     0.36596   0.79506   0.97757   0.00000  Uiso   1.00
C740   C     0.40990   0.81047   0.50874   0.00000  Uiso   1.00
Cu741  Cu    0.44043   0.82772   0.74436   0.00000  Uiso   1.00
Cu742  Cu    0.55957   0.83895   0.75565   0.00000  Uiso   1.00
H743   H     0.43087   0.98649   0.74336   0.00000  Uiso   1.00
H744   H     0.66363   0.79456   0.70932   0.00000  Uiso   1.00
H745   H     0.62084   0.94674   0.94254   0.00000  Uiso   1.00
H746   H     0.66078   0.93711   0.51665   0.00000  Uiso   1.00
H747   H     0.35067   0.78740   0.90078   0.00000  Uiso   1.00
H748   H     0.39340   0.80426   0.54948   0.00000  Uiso   1.00
H749   H     0.65170   0.77476   0.99397   0.00000  Uiso   1.00
H750   H     0.56979   0.68014   0.75470   0.00000  Uiso   1.00
N751   N     0.64908   0.84741   0.76416   0.00000  Uiso   1.00
N752   N     0.35092   0.81926   0.73584   0.00000  Uiso   1.00
O753   O     0.46131   0.90474   0.74633   0.00000  Uiso   1.00
O754   O     0.56191   0.91422   0.75587   0.00000  Uiso   1.00
O755   O     0.42515   0.82627   0.81840   0.00000  Uiso   1.00
O756   O     0.52575   0.83575   0.82793   0.00000  Uiso   1.00
O757   O     0.43809   0.75245   0.74413   0.00000  Uiso   1.00
O758   O     0.53869   0.76193   0.75367   0.00000  Uiso   1.00
O759   O     0.47425   0.83092   0.67207   0.00000  Uiso   1.00
O760   O     0.57485   0.84040   0.68161   0.00000  Uiso   1.00
Br761  Br    0.33611   0.92173   0.62047   0.00000  Uiso   1.00
O762   O     0.34148   0.87923   0.79937   0.00000  Uiso   1.00
H763   H     0.64160   0.89744   0.81756   0.00000  Uiso   1.00
Br764  Br    0.46919   0.75299   0.57786   0.00000  Uiso   1.00
Br765  Br    0.53925   0.94847   0.87403   0.00000  Uiso   1.00
C766   C     0.84880   0.93341   0.75073   0.00000  Uiso   1.00
C767   C     0.80574   0.83649   0.98803   0.00000  Uiso   1.00
C768   C     0.81908   0.85525   0.93734   0.00000  Uiso   1.00
C769   C     0.85335   0.84936   0.51764   0.00000  Uiso   1.00
C770   C     0.90774   0.88909   0.50004   0.00000  Uiso   1.00
C771   C     0.91513   0.91356   0.95383   0.00000  Uiso   1.00
C772   C     0.87076   0.89814   0.92329   0.00000  Uiso   1.00
C773   C     0.84925   0.82476   0.56414   0.00000  Uiso   1.00
C774   C     0.94287   0.88814   0.57953   0.00000  Uiso   1.00
C775   C     0.77778   0.83261   0.90400   0.00000  Uiso   1.00
C776   C     0.85744   0.98945   0.75095   0.00000  Uiso   1.00
C777   C     0.79956   0.83248   0.84743   0.00000  Uiso   1.00
C778   C     0.80988   0.67718   0.74714   0.00000  Uiso   1.00
C779   C     0.81823   0.73324   0.74825   0.00000  Uiso   1.00
C780   C     0.86759   0.83767   0.65280   0.00000  Uiso   1.00
C781   C     0.95283   0.90650   0.53018   0.00000  Uiso   1.00
C782   C     0.88930   0.84828   0.59758   0.00000  Uiso   1.00
C783   C     0.71725   0.80377   0.92504   0.00000  Uiso   1.00
C784   C     0.69929   0.79506   0.97757   0.00000  Uiso   1.00
C785   C     0.74323   0.81047   0.50874   0.00000  Uiso   1.00
Cu786  Cu    0.77377   0.82772   0.74436   0.00000  Uiso   1.00
Cu787  Cu    0.89290   0.83895   0.75565   0.00000  Uiso   1.00
H788   H     0.76421   0.98649   0.74336   0.00000  Uiso   1.00
H789   H     0.99697   0.79456   0.70932   0.00000  Uiso   1.00
H790   H     0.95418   0.94674   0.94254   0.00000  Uiso   1.00
H791   H     0.99412   0.93711   0.51665   0.00000  Uiso   1.00
H792   H     0.68400   0.78740   0.90078   0.00000  Uiso   1.00
H793   H     0.72673   0.80426   0.54948   0.00000  Uiso   1.00
H794   H     0.98503   0.77476   0.99397   0.00000  Uiso   1.00
H795   H     0.90312   0.68014   0.75470   0.00000  Uiso   1.00
N796   N     0.98241   0.84741   0.76416   0.00000  Uiso   1.00
N797   N     0.68426   0.81926   0.73584   0.00000  Uiso   1.00
O798   O     0.79464   0.90474   0.74633   0.00000  Uiso   1.00
O799   O     0.89524   0.91422   0.75587   0.00000  Uiso   1.00
O800   O     0.75848   0.82627   0.81840   0.00000  Uiso   1.00
O801   O     0.85908   0.83575   0.82793   0.00000  Uiso   1.00
O802   O     0.77142   0.75245   0.74413   0.00000  Uiso   1.00
O803   O     0.87203   0.76193   0.75367   0.00000  Uiso   1.00
O804   O     0.80758   0.83092   0.67207   0.00000  Uiso   1.00
O805   O     0.90819   0.84040   0.68161   0.00000  Uiso   1.00
Br806  Br    0.66944   0.92173   0.62047   0.00000  Uiso   1.00
O807   O     0.67481   0.87923   0.79937   0.00000  Uiso   1.00
H808   H     0.97494   0.89744   0.81756   0.00000  Uiso   1.00
Br809  Br    0.80252   0.75299   0.57786   0.00000  Uiso   1.00
Br810  Br    0.87258   0.94847   0.87403   0.00000  Uiso   1.00
loop_
_geom_bond_atom_site_label_1
_geom_bond_atom_site_label_2
_geom_bond_distance
_geom_bond_site_symmetry_2
_ccdc_geom_bond_type
C1     O33     1.291   .     A
C1     O34     1.289   .     A
C1     C11     1.428   .     S
C2     C3      1.420   .     A
C2     C409    1.425   .     S
C2     C425    1.413   .     S
C3     C10     1.420   .     A
C3     C7      1.415   .     A
C4     C8      1.417   .     A
C4     C5      1.419   .     A
C4     C407    1.425   1_554 S
C5     C16     1.398   .     A
C5     C411    1.393   1_554 S
C6     C7      1.388   .     A
C6     H25     1.085   .     S
C6     C410    1.393   .     S
C7     Br45    1.919   .     S
C8     C17     1.408   .     A
C8     Br44    1.939   .     S
C9     C17     1.412   .     A
C9     C16     1.390   .     A
C9     Br86    1.923   .     S
C10    C12     1.478   .     S
C10    C18     1.403   .     A
C11    C148    1.330   .     S
C11    H165    1.088   .     S
C12    O36     1.302   .     A
C12    O35     1.302   .     A
C13    C14     1.428   .     S
C13    C281    1.330   1_545 S
C13    H293    1.088   1_545 S
C14    O37     1.288   .     A
C14    O38     1.291   .     A
C15    O39     1.301   .     A
C15    O40     1.300   .     A
C15    C17     1.471   .     S
C16    H26     1.084   .     S
C18    C19     1.391   .     A
C18    H27     1.083   .     S
C19    C425    1.393   .     S
C19    H119    1.083   1_455 S
C20    H28     1.079   .     S
C20    C407    1.413   1_554 S
C20    C424    1.393   1_554 S
Cu21   O35     1.929   .     S
Cu21   O39     1.908   .     S
Cu21   N32     2.022   .     S
Cu21   O33     1.952   .     S
Cu21   O37     1.950   .     S
Cu21   Cu22    2.692   .     S
Cu22   O36     1.908   .     S
Cu22   O40     1.929   .     S
Cu22   O34     1.950   .     S
Cu22   N31     2.022   .     S
Cu22   O38     1.952   .     S
H23    C148    1.088   .     S
H24    N77     1.029   .     S
H29    C64     1.083   .     S
H30    C281    1.088   1_545 S
N31    N77     1.280   .     S
N31    O87     1.338   .     S
N32    N121    1.280   1_455 S
N32    H114    1.029   1_455 S
Br41   C99     1.923   1_455 S
O42    N121    1.338   1_455 S
O42    H133    0.988   1_455 S
H43    O87     0.988   .     S
C46    O78     1.291   .     A
C46    O79     1.289   .     A
C46    C56     1.428   .     S
C47    C48     1.420   .     A
C47    C454    1.425   .     S
C47    C470    1.413   .     S
C48    C55     1.420   .     A
C48    C52     1.415   .     A
C49    C53     1.417   .     A
C49    C50     1.419   .     A
C49    C452    1.425   1_554 S
C50    C61     1.398   .     A
C50    C456    1.393   1_554 S
C51    C52     1.388   .     A
C51    H70     1.085   .     S
C51    C455    1.393   .     S
C52    Br90    1.919   .     S
C53    C62     1.408   .     A
C53    Br89    1.939   .     S
C54    C62     1.412   .     A
C54    C61     1.390   .     A
C54    Br131   1.923   .     S
C55    C57     1.478   .     S
C55    C63     1.403   .     A
C56    C193    1.330   .     S
C56    H210    1.088   .     S
C57    O81     1.302   .     A
C57    O80     1.302   .     A
C58    C59     1.428   .     S
C58    C326    1.330   1_545 S
C58    H338    1.088   1_545 S
C59    O82     1.288   .     A
C59    O83     1.291   .     A
C60    O84     1.301   .     A
C60    O85     1.300   .     A
C60    C62     1.471   .     S
C61    H71     1.084   .     S
C63    C64     1.391   .     A
C63    H72     1.083   .     S
C64    C470    1.393   .     S
C65    H73     1.079   .     S
C65    C452    1.413   1_554 S
C65    C469    1.393   1_554 S
Cu66   O80     1.929   .     S
Cu66   O84     1.908   .     S
Cu66   N77     2.022   .     S
Cu66   O78     1.952   .     S
Cu66   O82     1.950   .     S
Cu66   Cu67    2.692   .     S
Cu67   O81     1.908   .     S
Cu67   O85     1.929   .     S
Cu67   O79     1.950   .     S
Cu67   N76     2.022   .     S
Cu67   O83     1.952   .     S
H68    C193    1.088   .     S
H69    N122    1.029   .     S
H74    C109    1.083   .     S
H75    C326    1.088   1_545 S
N76    N122    1.280   .     S
N76    O132    1.338   .     S
H88    O132    0.988   .     S
C91    O123    1.291   .     A
C91    O124    1.289   .     A
C91    C101    1.428   .     S
C92    C93     1.420   .     A
C92    C499    1.425   .     S
C92    C515    1.413   .     S
C93    C100    1.420   .     A
C93    C97     1.415   .     A
C94    C98     1.417   .     A
C94    C95     1.419   .     A
C94    C497    1.425   1_554 S
C95    C106    1.398   .     A
C95    C501    1.393   1_554 S
C96    C97     1.388   .     A
C96    H115    1.085   .     S
C96    C500    1.393   .     S
C97    Br135   1.919   .     S
C98    C107    1.408   .     A
C98    Br134   1.939   .     S
C99    C107    1.412   .     A
C99    C106    1.390   .     A
C99    Br41    1.923   1_655 S
C100   C102    1.478   .     S
C100   C108    1.403   .     A
C101   C238    1.330   .     S
C101   H255    1.088   .     S
C102   O126    1.302   .     A
C102   O125    1.302   .     A
C103   C104    1.428   .     S
C103   C371    1.330   1_545 S
C103   H383    1.088   1_545 S
C104   O127    1.288   .     A
C104   O128    1.291   .     A
C105   O129    1.301   .     A
C105   O130    1.300   .     A
C105   C107    1.471   .     S
C106   H116    1.084   .     S
C108   C109    1.391   .     A
C108   H117    1.083   .     S
C109   C515    1.393   .     S
C110   H118    1.079   .     S
C110   C497    1.413   1_554 S
C110   C514    1.393   1_554 S
Cu111  O125    1.929   .     S
Cu111  O129    1.908   .     S
Cu111  N122    2.022   .     S
Cu111  O123    1.952   .     S
Cu111  O127    1.950   .     S
Cu111  Cu112   2.692   .     S
Cu112  O126    1.908   .     S
Cu112  O130    1.929   .     S
Cu112  O124    1.950   .     S
Cu112  N121    2.022   .     S
Cu112  O128    1.952   .     S
H113   C238    1.088   .     S
H114   N32     1.029   1_655 S
H119   C19     1.083   1_655 S
H120   C371    1.088   1_545 S
N121   N32     1.280   1_655 S
N121   O42     1.338   1_655 S
H133   O42     0.988   1_655 S
C136   O168    1.291   .     A
C136   O169    1.289   .     A
C136   C146    1.428   .     S
C137   C138    1.420   .     A
C137   C544    1.425   .     S
C137   C560    1.413   .     S
C138   C145    1.420   .     A
C138   C142    1.415   .     A
C139   C143    1.417   .     A
C139   C140    1.419   .     A
C139   C542    1.425   1_554 S
C140   C151    1.398   .     A
C140   C546    1.393   1_554 S
C141   C142    1.388   .     A
C141   H160    1.085   .     S
C141   C545    1.393   .     S
C142   Br180   1.919   .     S
C143   C152    1.408   .     A
C143   Br179   1.939   .     S
C144   C152    1.412   .     A
C144   C151    1.390   .     A
C144   Br221   1.923   .     S
C145   C147    1.478   .     S
C145   C153    1.403   .     A
C146   C283    1.330   .     S
C146   H300    1.088   .     S
C147   O171    1.302   .     A
C147   O170    1.302   .     A
C148   C149    1.428   .     S
C149   O172    1.288   .     A
C149   O173    1.291   .     A
C150   O174    1.301   .     A
C150   O175    1.300   .     A
C150   C152    1.471   .     S
C151   H161    1.084   .     S
C153   C154    1.391   .     A
C153   H162    1.083   .     S
C154   C560    1.393   .     S
C154   H254    1.083   1_455 S
C155   H163    1.079   .     S
C155   C542    1.413   1_554 S
C155   C559    1.393   1_554 S
Cu156  O170    1.929   .     S
Cu156  O174    1.908   .     S
Cu156  N167    2.022   .     S
Cu156  O168    1.952   .     S
Cu156  O172    1.950   .     S
Cu156  Cu157   2.692   .     S
Cu157  O171    1.908   .     S
Cu157  O175    1.929   .     S
Cu157  O169    1.950   .     S
Cu157  N166    2.022   .     S
Cu157  O173    1.952   .     S
H158   C283    1.088   .     S
H159   N212    1.029   .     S
H164   C199    1.083   .     S
N166   N212    1.280   .     S
N166   O222    1.338   .     S
N167   N256    1.280   1_455 S
N167   H249    1.029   1_455 S
Br176  C234    1.923   1_455 S
O177   N256    1.338   1_455 S
O177   H268    0.988   1_455 S
H178   O222    0.988   .     S
C181   O213    1.291   .     A
C181   O214    1.289   .     A
C181   C191    1.428   .     S
C182   C183    1.420   .     A
C182   C589    1.425   .     S
C182   C605    1.413   .     S
C183   C190    1.420   .     A
C183   C187    1.415   .     A
C184   C188    1.417   .     A
C184   C185    1.419   .     A
C184   C587    1.425   1_554 S
C185   C196    1.398   .     A
C185   C591    1.393   1_554 S
C186   C187    1.388   .     A
C186   H205    1.085   .     S
C186   C590    1.393   .     S
C187   Br225   1.919   .     S
C188   C197    1.408   .     A
C188   Br224   1.939   .     S
C189   C197    1.412   .     A
C189   C196    1.390   .     A
C189   Br266   1.923   .     S
C190   C192    1.478   .     S
C190   C198    1.403   .     A
C191   C328    1.330   .     S
C191   H345    1.088   .     S
C192   O216    1.302   .     A
C192   O215    1.302   .     A
C193   C194    1.428   .     S
C194   O217    1.288   .     A
C194   O218    1.291   .     A
C195   O219    1.301   .     A
C195   O220    1.300   .     A
C195   C197    1.471   .     S
C196   H206    1.084   .     S
C198   C199    1.391   .     A
C198   H207    1.083   .     S
C199   C605    1.393   .     S
C200   H208    1.079   .     S
C200   C587    1.413   1_554 S
C200   C604    1.393   1_554 S
Cu201  O215    1.929   .     S
Cu201  O219    1.908   .     S
Cu201  N212    2.022   .     S
Cu201  O213    1.952   .     S
Cu201  O217    1.950   .     S
Cu201  Cu202   2.692   .     S
Cu202  O216    1.908   .     S
Cu202  O220    1.929   .     S
Cu202  O214    1.950   .     S
Cu202  N211    2.022   .     S
Cu202  O218    1.952   .     S
H203   C328    1.088   .     S
H204   N257    1.029   .     S
H209   C244    1.083   .     S
N211   N257    1.280   .     S
N211   O267    1.338   .     S
H223   O267    0.988   .     S
C226   O258    1.291   .     A
C226   O259    1.289   .     A
C226   C236    1.428   .     S
C227   C228    1.420   .     A
C227   C634    1.425   .     S
C227   C650    1.413   .     S
C228   C235    1.420   .     A
C228   C232    1.415   .     A
C229   C233    1.417   .     A
C229   C230    1.419   .     A
C229   C632    1.425   1_554 S
C230   C241    1.398   .     A
C230   C636    1.393   1_554 S
C231   C232    1.388   .     A
C231   H250    1.085   .     S
C231   C635    1.393   .     S
C232   Br270   1.919   .     S
C233   C242    1.408   .     A
C233   Br269   1.939   .     S
C234   C242    1.412   .     A
C234   C241    1.390   .     A
C234   Br176   1.923   1_655 S
C235   C237    1.478   .     S
C235   C243    1.403   .     A
C236   C373    1.330   .     S
C236   H390    1.088   .     S
C237   O261    1.302   .     A
C237   O260    1.302   .     A
C238   C239    1.428   .     S
C239   O262    1.288   .     A
C239   O263    1.291   .     A
C240   O264    1.301   .     A
C240   O265    1.300   .     A
C240   C242    1.471   .     S
C241   H251    1.084   .     S
C243   C244    1.391   .     A
C243   H252    1.083   .     S
C244   C650    1.393   .     S
C245   H253    1.079   .     S
C245   C632    1.413   1_554 S
C245   C649    1.393   1_554 S
Cu246  O260    1.929   .     S
Cu246  O264    1.908   .     S
Cu246  N257    2.022   .     S
Cu246  O258    1.952   .     S
Cu246  O262    1.950   .     S
Cu246  Cu247   2.692   .     S
Cu247  O261    1.908   .     S
Cu247  O265    1.929   .     S
Cu247  O259    1.950   .     S
Cu247  N256    2.022   .     S
Cu247  O263    1.952   .     S
H248   C373    1.088   .     S
H249   N167    1.029   1_655 S
H254   C154    1.083   1_655 S
N256   N167    1.280   1_655 S
N256   O177    1.338   1_655 S
H268   O177    0.988   1_655 S
C271   O303    1.291   .     A
C271   O304    1.289   .     A
C271   C281    1.428   .     S
C272   C273    1.420   .     A
C272   C679    1.425   .     S
C272   C695    1.413   .     S
C273   C280    1.420   .     A
C273   C277    1.415   .     A
C274   C278    1.417   .     A
C274   C275    1.419   .     A
C274   C677    1.425   1_554 S
C275   C286    1.398   .     A
C275   C681    1.393   1_554 S
C276   C277    1.388   .     A
C276   H295    1.085   .     S
C276   C680    1.393   .     S
C277   Br315   1.919   .     S
C278   C287    1.408   .     A
C278   Br314   1.939   .     S
C279   C287    1.412   .     A
C279   C286    1.390   .     A
C279   Br356   1.923   .     S
C280   C282    1.478   .     S
C280   C288    1.403   .     A
C281   C13     1.330   1_565 S
C281   H30     1.088   1_565 S
C282   O306    1.302   .     A
C282   O305    1.302   .     A
C283   C284    1.428   .     S
C284   O307    1.288   .     A
C284   O308    1.291   .     A
C285   O309    1.301   .     A
C285   O310    1.300   .     A
C285   C287    1.471   .     S
C286   H296    1.084   .     S
C288   C289    1.391   .     A
C288   H297    1.083   .     S
C289   C695    1.393   .     S
C289   H389    1.083   1_455 S
C290   H298    1.079   .     S
C290   C677    1.413   1_554 S
C290   C694    1.393   1_554 S
Cu291  O305    1.929   .     S
Cu291  O309    1.908   .     S
Cu291  N302    2.022   .     S
Cu291  O303    1.952   .     S
Cu291  O307    1.950   .     S
Cu291  Cu292   2.692   .     S
Cu292  O306    1.908   .     S
Cu292  O310    1.929   .     S
Cu292  O304    1.950   .     S
Cu292  N301    2.022   .     S
Cu292  O308    1.952   .     S
H293   C13     1.088   1_565 S
H294   N347    1.029   .     S
H299   C334    1.083   .     S
N301   N347    1.280   .     S
N301   O357    1.338   .     S
N302   N391    1.280   1_455 S
N302   H384    1.029   1_455 S
Br311  C369    1.923   1_455 S
O312   N391    1.338   1_455 S
O312   H403    0.988   1_455 S
H313   O357    0.988   .     S
C316   O348    1.291   .     A
C316   O349    1.289   .     A
C316   C326    1.428   .     S
C317   C318    1.420   .     A
C317   C724    1.425   .     S
C317   C740    1.413   .     S
C318   C325    1.420   .     A
C318   C322    1.415   .     A
C319   C323    1.417   .     A
C319   C320    1.419   .     A
C319   C722    1.425   1_554 S
C320   C331    1.398   .     A
C320   C726    1.393   1_554 S
C321   C322    1.388   .     A
C321   H340    1.085   .     S
C321   C725    1.393   .     S
C322   Br360   1.919   .     S
C323   C332    1.408   .     A
C323   Br359   1.939   .     S
C324   C332    1.412   .     A
C324   C331    1.390   .     A
C324   Br401   1.923   .     S
C325   C327    1.478   .     S
C325   C333    1.403   .     A
C326   C58     1.330   1_565 S
C326   H75     1.088   1_565 S
C327   O351    1.302   .     A
C327   O350    1.302   .     A
C328   C329    1.428   .     S
C329   O352    1.288   .     A
C329   O353    1.291   .     A
C330   O354    1.301   .     A
C330   O355    1.300   .     A
C330   C332    1.471   .     S
C331   H341    1.084   .     S
C333   C334    1.391   .     A
C333   H342    1.083   .     S
C334   C740    1.393   .     S
C335   H343    1.079   .     S
C335   C722    1.413   1_554 S
C335   C739    1.393   1_554 S
Cu336  O350    1.929   .     S
Cu336  O354    1.908   .     S
Cu336  N347    2.022   .     S
Cu336  O348    1.952   .     S
Cu336  O352    1.950   .     S
Cu336  Cu337   2.692   .     S
Cu337  O351    1.908   .     S
Cu337  O355    1.929   .     S
Cu337  O349    1.950   .     S
Cu337  N346    2.022   .     S
Cu337  O353    1.952   .     S
H338   C58     1.088   1_565 S
H339   N392    1.029   .     S
H344   C379    1.083   .     S
N346   N392    1.280   .     S
N346   O402    1.338   .     S
H358   O402    0.988   .     S
C361   O393    1.291   .     A
C361   O394    1.289   .     A
C361   C371    1.428   .     S
C362   C363    1.420   .     A
C362   C769    1.425   .     S
C362   C785    1.413   .     S
C363   C370    1.420   .     A
C363   C367    1.415   .     A
C364   C368    1.417   .     A
C364   C365    1.419   .     A
C364   C767    1.425   1_554 S
C365   C376    1.398   .     A
C365   C771    1.393   1_554 S
C366   C367    1.388   .     A
C366   H385    1.085   .     S
C366   C770    1.393   .     S
C367   Br405   1.919   .     S
C368   C377    1.408   .     A
C368   Br404   1.939   .     S
C369   C377    1.412   .     A
C369   C376    1.390   .     A
C369   Br311   1.923   1_655 S
C370   C372    1.478   .     S
C370   C378    1.403   .     A
C371   C103    1.330   1_565 S
C371   H120    1.088   1_565 S
C372   O396    1.302   .     A
C372   O395    1.302   .     A
C373   C374    1.428   .     S
C374   O397    1.288   .     A
C374   O398    1.291   .     A
C375   O399    1.301   .     A
C375   O400    1.300   .     A
C375   C377    1.471   .     S
C376   H386    1.084   .     S
C378   C379    1.391   .     A
C378   H387    1.083   .     S
C379   C785    1.393   .     S
C380   H388    1.079   .     S
C380   C767    1.413   1_554 S
C380   C784    1.393   1_554 S
Cu381  O395    1.929   .     S
Cu381  O399    1.908   .     S
Cu381  N392    2.022   .     S
Cu381  O393    1.952   .     S
Cu381  O397    1.950   .     S
Cu381  Cu382   2.692   .     S
Cu382  O396    1.908   .     S
Cu382  O400    1.929   .     S
Cu382  O394    1.950   .     S
Cu382  N391    2.022   .     S
Cu382  O398    1.952   .     S
H383   C103    1.088   1_565 S
H384   N302    1.029   1_655 S
H389   C289    1.083   1_655 S
N391   N302    1.280   1_655 S
N391   O312    1.338   1_655 S
H403   O312    0.988   1_655 S
C406   O438    1.291   .     A
C406   O439    1.289   .     A
C406   C416    1.428   .     S
C407   C408    1.420   .     A
C407   C4      1.425   1_556 S
C407   C20     1.413   1_556 S
C408   C415    1.420   .     A
C408   C412    1.415   .     A
C409   C413    1.417   .     A
C409   C410    1.419   .     A
C410   C421    1.398   .     A
C411   C412    1.388   .     A
C411   H430    1.085   .     S
C411   C5      1.393   1_556 S
C412   Br450   1.919   .     S
C413   C422    1.408   .     A
C413   Br449   1.939   .     S
C414   C422    1.412   .     A
C414   C421    1.390   .     A
C414   Br491   1.923   .     S
C415   C417    1.478   .     S
C415   C423    1.403   .     A
C416   C553    1.330   .     S
C416   H570    1.088   .     S
C417   O441    1.302   .     A
C417   O440    1.302   .     A
C418   C419    1.428   .     S
C418   C686    1.330   1_545 S
C418   H698    1.088   1_545 S
C419   O442    1.288   .     A
C419   O443    1.291   .     A
C420   O444    1.301   .     A
C420   O445    1.300   .     A
C420   C422    1.471   .     S
C421   H431    1.084   .     S
C423   C424    1.391   .     A
C423   H432    1.083   .     S
C424   C20     1.393   1_556 S
C424   H524    1.083   1_455 S
C425   H433    1.079   .     S
Cu426  O440    1.929   .     S
Cu426  O444    1.908   .     S
Cu426  N437    2.022   .     S
Cu426  O438    1.952   .     S
Cu426  O442    1.950   .     S
Cu426  Cu427   2.692   .     S
Cu427  O441    1.908   .     S
Cu427  O445    1.929   .     S
Cu427  O439    1.950   .     S
Cu427  N436    2.022   .     S
Cu427  O443    1.952   .     S
H428   C553    1.088   .     S
H429   N482    1.029   .     S
H434   C469    1.083   .     S
H435   C686    1.088   1_545 S
N436   N482    1.280   .     S
N436   O492    1.338   .     S
N437   N526    1.280   1_455 S
N437   H519    1.029   1_455 S
Br446  C504    1.923   1_455 S
O447   N526    1.338   1_455 S
O447   H538    0.988   1_455 S
H448   O492    0.988   .     S
C451   O483    1.291   .     A
C451   O484    1.289   .     A
C451   C461    1.428   .     S
C452   C453    1.420   .     A
C452   C49     1.425   1_556 S
C452   C65     1.413   1_556 S
C453   C460    1.420   .     A
C453   C457    1.415   .     A
C454   C458    1.417   .     A
C454   C455    1.419   .     A
C455   C466    1.398   .     A
C456   C457    1.388   .     A
C456   H475    1.085   .     S
C456   C50     1.393   1_556 S
C457   Br495   1.919   .     S
C458   C467    1.408   .     A
C458   Br494   1.939   .     S
C459   C467    1.412   .     A
C459   C466    1.390   .     A
C459   Br536   1.923   .     S
C460   C462    1.478   .     S
C460   C468    1.403   .     A
C461   C598    1.330   .     S
C461   H615    1.088   .     S
C462   O486    1.302   .     A
C462   O485    1.302   .     A
C463   C464    1.428   .     S
C463   C731    1.330   1_545 S
C463   H743    1.088   1_545 S
C464   O487    1.288   .     A
C464   O488    1.291   .     A
C465   O489    1.301   .     A
C465   O490    1.300   .     A
C465   C467    1.471   .     S
C466   H476    1.084   .     S
C468   C469    1.391   .     A
C468   H477    1.083   .     S
C469   C65     1.393   1_556 S
C470   H478    1.079   .     S
Cu471  O485    1.929   .     S
Cu471  O489    1.908   .     S
Cu471  N482    2.022   .     S
Cu471  O483    1.952   .     S
Cu471  O487    1.950   .     S
Cu471  Cu472   2.692   .     S
Cu472  O486    1.908   .     S
Cu472  O490    1.929   .     S
Cu472  O484    1.950   .     S
Cu472  N481    2.022   .     S
Cu472  O488    1.952   .     S
H473   C598    1.088   .     S
H474   N527    1.029   .     S
H479   C514    1.083   .     S
H480   C731    1.088   1_545 S
N481   N527    1.280   .     S
N481   O537    1.338   .     S
H493   O537    0.988   .     S
C496   O528    1.291   .     A
C496   O529    1.289   .     A
C496   C506    1.428   .     S
C497   C498    1.420   .     A
C497   C94     1.425   1_556 S
C497   C110    1.413   1_556 S
C498   C505    1.420   .     A
C498   C502    1.415   .     A
C499   C503    1.417   .     A
C499   C500    1.419   .     A
C500   C511    1.398   .     A
C501   C502    1.388   .     A
C501   H520    1.085   .     S
C501   C95     1.393   1_556 S
C502   Br540   1.919   .     S
C503   C512    1.408   .     A
C503   Br539   1.939   .     S
C504   C512    1.412   .     A
C504   C511    1.390   .     A
C504   Br446   1.923   1_655 S
C505   C507    1.478   .     S
C505   C513    1.403   .     A
C506   C643    1.330   .     S
C506   H660    1.088   .     S
C507   O531    1.302   .     A
C507   O530    1.302   .     A
C508   C509    1.428   .     S
C508   C776    1.330   1_545 S
C508   H788    1.088   1_545 S
C509   O532    1.288   .     A
C509   O533    1.291   .     A
C510   O534    1.301   .     A
C510   O535    1.300   .     A
C510   C512    1.471   .     S
C511   H521    1.084   .     S
C513   C514    1.391   .     A
C513   H522    1.083   .     S
C514   C110    1.393   1_556 S
C515   H523    1.079   .     S
Cu516  O530    1.929   .     S
Cu516  O534    1.908   .     S
Cu516  N527    2.022   .     S
Cu516  O528    1.952   .     S
Cu516  O532    1.950   .     S
Cu516  Cu517   2.692   .     S
Cu517  O531    1.908   .     S
Cu517  O535    1.929   .     S
Cu517  O529    1.950   .     S
Cu517  N526    2.022   .     S
Cu517  O533    1.952   .     S
H518   C643    1.088   .     S
H519   N437    1.029   1_655 S
H524   C424    1.083   1_655 S
H525   C776    1.088   1_545 S
N526   N437    1.280   1_655 S
N526   O447    1.338   1_655 S
H538   O447    0.988   1_655 S
C541   O573    1.291   .     A
C541   O574    1.289   .     A
C541   C551    1.428   .     S
C542   C543    1.420   .     A
C542   C139    1.425   1_556 S
C542   C155    1.413   1_556 S
C543   C550    1.420   .     A
C543   C547    1.415   .     A
C544   C548    1.417   .     A
C544   C545    1.419   .     A
C545   C556    1.398   .     A
C546   C547    1.388   .     A
C546   H565    1.085   .     S
C546   C140    1.393   1_556 S
C547   Br585   1.919   .     S
C548   C557    1.408   .     A
C548   Br584   1.939   .     S
C549   C557    1.412   .     A
C549   C556    1.390   .     A
C549   Br626   1.923   .     S
C550   C552    1.478   .     S
C550   C558    1.403   .     A
C551   C688    1.330   .     S
C551   H705    1.088   .     S
C552   O576    1.302   .     A
C552   O575    1.302   .     A
C553   C554    1.428   .     S
C554   O577    1.288   .     A
C554   O578    1.291   .     A
C555   O579    1.301   .     A
C555   O580    1.300   .     A
C555   C557    1.471   .     S
C556   H566    1.084   .     S
C558   C559    1.391   .     A
C558   H567    1.083   .     S
C559   C155    1.393   1_556 S
C559   H659    1.083   1_455 S
C560   H568    1.079   .     S
Cu561  O575    1.929   .     S
Cu561  O579    1.908   .     S
Cu561  N572    2.022   .     S
Cu561  O573    1.952   .     S
Cu561  O577    1.950   .     S
Cu561  Cu562   2.692   .     S
Cu562  O576    1.908   .     S
Cu562  O580    1.929   .     S
Cu562  O574    1.950   .     S
Cu562  N571    2.022   .     S
Cu562  O578    1.952   .     S
H563   C688    1.088   .     S
H564   N617    1.029   .     S
H569   C604    1.083   .     S
N571   N617    1.280   .     S
N571   O627    1.338   .     S
N572   N661    1.280   1_455 S
N572   H654    1.029   1_455 S
Br581  C639    1.923   1_455 S
O582   N661    1.338   1_455 S
O582   H673    0.988   1_455 S
H583   O627    0.988   .     S
C586   O618    1.291   .     A
C586   O619    1.289   .     A
C586   C596    1.428   .     S
C587   C588    1.420   .     A
C587   C184    1.425   1_556 S
C587   C200    1.413   1_556 S
C588   C595    1.420   .     A
C588   C592    1.415   .     A
C589   C593    1.417   .     A
C589   C590    1.419   .     A
C590   C601    1.398   .     A
C591   C592    1.388   .     A
C591   H610    1.085   .     S
C591   C185    1.393   1_556 S
C592   Br630   1.919   .     S
C593   C602    1.408   .     A
C593   Br629   1.939   .     S
C594   C602    1.412   .     A
C594   C601    1.390   .     A
C594   Br671   1.923   .     S
C595   C597    1.478   .     S
C595   C603    1.403   .     A
C596   C733    1.330   .     S
C596   H750    1.088   .     S
C597   O621    1.302   .     A
C597   O620    1.302   .     A
C598   C599    1.428   .     S
C599   O622    1.288   .     A
C599   O623    1.291   .     A
C600   O624    1.301   .     A
C600   O625    1.300   .     A
C600   C602    1.471   .     S
C601   H611    1.084   .     S
C603   C604    1.391   .     A
C603   H612    1.083   .     S
C604   C200    1.393   1_556 S
C605   H613    1.079   .     S
Cu606  O620    1.929   .     S
Cu606  O624    1.908   .     S
Cu606  N617    2.022   .     S
Cu606  O618    1.952   .     S
Cu606  O622    1.950   .     S
Cu606  Cu607   2.692   .     S
Cu607  O621    1.908   .     S
Cu607  O625    1.929   .     S
Cu607  O619    1.950   .     S
Cu607  N616    2.022   .     S
Cu607  O623    1.952   .     S
H608   C733    1.088   .     S
H609   N662    1.029   .     S
H614   C649    1.083   .     S
N616   N662    1.280   .     S
N616   O672    1.338   .     S
H628   O672    0.988   .     S
C631   O663    1.291   .     A
C631   O664    1.289   .     A
C631   C641    1.428   .     S
C632   C633    1.420   .     A
C632   C229    1.425   1_556 S
C632   C245    1.413   1_556 S
C633   C640    1.420   .     A
C633   C637    1.415   .     A
C634   C638    1.417   .     A
C634   C635    1.419   .     A
C635   C646    1.398   .     A
C636   C637    1.388   .     A
C636   H655    1.085   .     S
C636   C230    1.393   1_556 S
C637   Br675   1.919   .     S
C638   C647    1.408   .     A
C638   Br674   1.939   .     S
C639   C647    1.412   .     A
C639   C646    1.390   .     A
C639   Br581   1.923   1_655 S
C640   C642    1.478   .     S
C640   C648    1.403   .     A
C641   C778    1.330   .     S
C641   H795    1.088   .     S
C642   O666    1.302   .     A
C642   O665    1.302   .     A
C643   C644    1.428   .     S
C644   O667    1.288   .     A
C644   O668    1.291   .     A
C645   O669    1.301   .     A
C645   O670    1.300   .     A
C645   C647    1.471   .     S
C646   H656    1.084   .     S
C648   C649    1.391   .     A
C648   H657    1.083   .     S
C649   C245    1.393   1_556 S
C650   H658    1.079   .     S
Cu651  O665    1.929   .     S
Cu651  O669    1.908   .     S
Cu651  N662    2.022   .     S
Cu651  O663    1.952   .     S
Cu651  O667    1.950   .     S
Cu651  Cu652   2.692   .     S
Cu652  O666    1.908   .     S
Cu652  O670    1.929   .     S
Cu652  O664    1.950   .     S
Cu652  N661    2.022   .     S
Cu652  O668    1.952   .     S
H653   C778    1.088   .     S
H654   N572    1.029   1_655 S
H659   C559    1.083   1_655 S
N661   N572    1.280   1_655 S
N661   O582    1.338   1_655 S
H673   O582    0.988   1_655 S
C676   O708    1.291   .     A
C676   O709    1.289   .     A
C676   C686    1.428   .     S
C677   C678    1.420   .     A
C677   C274    1.425   1_556 S
C677   C290    1.413   1_556 S
C678   C685    1.420   .     A
C678   C682    1.415   .     A
C679   C683    1.417   .     A
C679   C680    1.419   .     A
C680   C691    1.398   .     A
C681   C682    1.388   .     A
C681   H700    1.085   .     S
C681   C275    1.393   1_556 S
C682   Br720   1.919   .     S
C683   C692    1.408   .     A
C683   Br719   1.939   .     S
C684   C692    1.412   .     A
C684   C691    1.390   .     A
C684   Br761   1.923   .     S
C685   C687    1.478   .     S
C685   C693    1.403   .     A
C686   C418    1.330   1_565 S
C686   H435    1.088   1_565 S
C687   O711    1.302   .     A
C687   O710    1.302   .     A
C688   C689    1.428   .     S
C689   O712    1.288   .     A
C689   O713    1.291   .     A
C690   O714    1.301   .     A
C690   O715    1.300   .     A
C690   C692    1.471   .     S
C691   H701    1.084   .     S
C693   C694    1.391   .     A
C693   H702    1.083   .     S
C694   C290    1.393   1_556 S
C694   H794    1.083   1_455 S
C695   H703    1.079   .     S
Cu696  O710    1.929   .     S
Cu696  O714    1.908   .     S
Cu696  N707    2.022   .     S
Cu696  O708    1.952   .     S
Cu696  O712    1.950   .     S
Cu696  Cu697   2.692   .     S
Cu697  O711    1.908   .     S
Cu697  O715    1.929   .     S
Cu697  O709    1.950   .     S
Cu697  N706    2.022   .     S
Cu697  O713    1.952   .     S
H698   C418    1.088   1_565 S
H699   N752    1.029   .     S
H704   C739    1.083   .     S
N706   N752    1.280   .     S
N706   O762    1.338   .     S
N707   N796    1.280   1_455 S
N707   H789    1.029   1_455 S
Br716  C774    1.923   1_455 S
O717   N796    1.338   1_455 S
O717   H808    0.988   1_455 S
H718   O762    0.988   .     S
C721   O753    1.291   .     A
C721   O754    1.289   .     A
C721   C731    1.428   .     S
C722   C723    1.420   .     A
C722   C319    1.425   1_556 S
C722   C335    1.413   1_556 S
C723   C730    1.420   .     A
C723   C727    1.415   .     A
C724   C728    1.417   .     A
C724   C725    1.419   .     A
C725   C736    1.398   .     A
C726   C727    1.388   .     A
C726   H745    1.085   .     S
C726   C320    1.393   1_556 S
C727   Br765   1.919   .     S
C728   C737    1.408   .     A
C728   Br764   1.939   .     S
C729   C737    1.412   .     A
C729   C736    1.390   .     A
C729   Br806   1.923   .     S
C730   C732    1.478   .     S
C730   C738    1.403   .     A
C731   C463    1.330   1_565 S
C731   H480    1.088   1_565 S
C732   O756    1.302   .     A
C732   O755    1.302   .     A
C733   C734    1.428   .     S
C734   O757    1.288   .     A
C734   O758    1.291   .     A
C735   O759    1.301   .     A
C735   O760    1.300   .     A
C735   C737    1.471   .     S
C736   H746    1.084   .     S
C738   C739    1.391   .     A
C738   H747    1.083   .     S
C739   C335    1.393   1_556 S
C740   H748    1.079   .     S
Cu741  O755    1.929   .     S
Cu741  O759    1.908   .     S
Cu741  N752    2.022   .     S
Cu741  O753    1.952   .     S
Cu741  O757    1.950   .     S
Cu741  Cu742   2.692   .     S
Cu742  O756    1.908   .     S
Cu742  O760    1.929   .     S
Cu742  O754    1.950   .     S
Cu742  N751    2.022   .     S
Cu742  O758    1.952   .     S
H743   C463    1.088   1_565 S
H744   N797    1.029   .     S
H749   C784    1.083   .     S
N751   N797    1.280   .     S
N751   O807    1.338   .     S
H763   O807    0.988   .     S
C766   O798    1.291   .     A
C766   O799    1.289   .     A
C766   C776    1.428   .     S
C767   C768    1.420   .     A
C767   C364    1.425   1_556 S
C767   C380    1.413   1_556 S
C768   C775    1.420   .     A
C768   C772    1.415   .     A
C769   C773    1.417   .     A
C769   C770    1.419   .     A
C770   C781    1.398   .     A
C771   C772    1.388   .     A
C771   H790    1.085   .     S
C771   C365    1.393   1_556 S
C772   Br810   1.919   .     S
C773   C782    1.408   .     A
C773   Br809   1.939   .     S
C774   C782    1.412   .     A
C774   C781    1.390   .     A
C774   Br716   1.923   1_655 S
C775   C777    1.478   .     S
C775   C783    1.403   .     A
C776   C508    1.330   1_565 S
C776   H525    1.088   1_565 S
C777   O801    1.302   .     A
C777   O800    1.302   .     A
C778   C779    1.428   .     S
C779   O802    1.288   .     A
C779   O803    1.291   .     A
C780   O804    1.301   .     A
C780   O805    1.300   .     A
C780   C782    1.471   .     S
C781   H791    1.084   .     S
C783   C784    1.391   .     A
C783   H792    1.083   .     S
C784   C380    1.393   1_556 S
C785   H793    1.079   .     S
Cu786  O800    1.929   .     S
Cu786  O804    1.908   .     S
Cu786  N797    2.022   .     S
Cu786  O798    1.952   .     S
Cu786  O802    1.950   .     S
Cu786  Cu787   2.692   .     S
Cu787  O801    1.908   .     S
Cu787  O805    1.929   .     S
Cu787  O799    1.950   .     S
Cu787  N796    2.022   .     S
Cu787  O803    1.952   .     S
H788   C508    1.088   1_565 S
H789   N707    1.029   1_655 S
H794   C694    1.083   1_655 S
N796   N707    1.280   1_655 S
N796   O717    1.338   1_655 S
H808   O717    0.988   1_655 S
