data_str_m1_o10_o18_pcu_sym.101
_audit_creation_date              2020-01-03
_audit_creation_method            'Materials Studio'
_symmetry_space_group_name_H-M    'P1'
_symmetry_Int_Tables_number       1
_symmetry_cell_setting            triclinic
loop_
_symmetry_equiv_pos_as_xyz
  x,y,z
_cell_length_a                    32.6289
_cell_length_b                    32.5731
_cell_length_c                    35.7852
_cell_angle_alpha                 98.2664
_cell_angle_beta                  73.1388
_cell_angle_gamma                 98.0397
loop_
_atom_site_label
_atom_site_type_symbol
_atom_site_fract_x
_atom_site_fract_y
_atom_site_fract_z
_atom_site_U_iso_or_equiv
_atom_site_adp_type
_atom_site_occupancy
C1     C     0.05278   0.16043   0.25846   0.00000  Uiso   1.00
C2     C     0.19917   0.13035   0.45987   0.00000  Uiso   1.00
C3     C     0.21875   0.10958   0.48007   0.00000  Uiso   1.00
C4     C     0.28089   0.17336   0.24147   0.00000  Uiso   1.00
C5     C     0.20955   0.11651   0.02093   0.00000  Uiso   1.00
C6     C     0.18058   0.14606   0.04191   0.00000  Uiso   1.00
C7     C     0.22930   0.09447   0.04104   0.00000  Uiso   1.00
C8     C     0.22180   0.10302   0.08180   0.00000  Uiso   1.00
C9     C     0.17840   0.15841   0.08204   0.00000  Uiso   1.00
C10    C     0.32661   0.17399   0.23795   0.00000  Uiso   1.00
C11    C     0.00680   0.15750   0.26418   0.00000  Uiso   1.00
C12    C     0.09961   0.21613   0.42112   0.00000  Uiso   1.00
C13    C     0.17856   0.32193   0.23860   0.00000  Uiso   1.00
C14    C     0.15015   0.01261   0.26400   0.00000  Uiso   1.00
C15    C     0.15636   0.05633   0.25866   0.00000  Uiso   1.00
C16    C     0.17647   0.27762   0.24160   0.00000  Uiso   1.00
C17    C     0.18840   0.14491   0.14425   0.00000  Uiso   1.00
C18    C     0.14547   0.18780   0.35614   0.00000  Uiso   1.00
C19    C     0.13454   0.19442   0.39922   0.00000  Uiso   1.00
C20    C     0.19690   0.13546   0.10191   0.00000  Uiso   1.00
C21    C     0.08779   0.21907   0.46197   0.00000  Uiso   1.00
C22    C     0.23452   0.02635   0.01705   0.00000  Uiso   1.00
C23    C     0.15808   0.17664   0.41857   0.00000  Uiso   1.00
C24    C     0.32741   0.11577   0.31511   0.00000  Uiso   1.00
C25    C     0.08646   0.02274   0.31404   0.00000  Uiso   1.00
C26    C     0.18971   0.22901   0.09267   0.00000  Uiso   1.00
C27    C     0.21464   0.05276   0.12290   0.00000  Uiso   1.00
C28    C     0.14585   0.17776   0.45975   0.00000  Uiso   1.00
C29    C     0.11034   0.19984   0.48141   0.00000  Uiso   1.00
C30    C     0.16762   0.15744   0.47993   0.00000  Uiso   1.00
C31    C     0.15618   0.16306   0.02170   0.00000  Uiso   1.00
C32    C     0.11903   0.18312   0.04197   0.00000  Uiso   1.00
C33    C     0.09690   0.20155   0.02218   0.00000  Uiso   1.00
H34    H     0.06875   0.21687   0.03893   0.00000  Uiso   1.00
H35    H     0.00629   0.08942   0.29298   0.00000  Uiso   1.00
H36    H     0.30089   0.10243   0.33878   0.00000  Uiso   1.00
H37    H     0.20366   0.00191   0.21483   0.00000  Uiso   1.00
H38    H     0.07069   0.02988   0.29234   0.00000  Uiso   1.00
H39    H     0.09907   0.05187   0.32921   0.00000  Uiso   1.00
H40    H     0.06145   0.00619   0.33664   0.00000  Uiso   1.00
H41    H     0.19696   0.23336   0.06105   0.00000  Uiso   1.00
H42    H     0.22001   0.22699   0.10038   0.00000  Uiso   1.00
H43    H     0.17539   0.25713   0.11001   0.00000  Uiso   1.00
H44    H     0.18374   0.04388   0.11483   0.00000  Uiso   1.00
H45    H     0.06048   0.23576   0.47840   0.00000  Uiso   1.00
H46    H     0.20758   0.06431   0.15459   0.00000  Uiso   1.00
H47    H     0.23075   0.02392   0.11851   0.00000  Uiso   1.00
H48    H     0.24168   0.08817   0.46320   0.00000  Uiso   1.00
H49    H     0.08100   0.23020   0.40669   0.00000  Uiso   1.00
H50    H     0.20803   0.12261   0.42850   0.00000  Uiso   1.00
H51    H     0.18609   0.16231   0.40066   0.00000  Uiso   1.00
H52    H     0.10498   0.18311   0.07320   0.00000  Uiso   1.00
H53    H     0.20962   0.02668   0.00144   0.00000  Uiso   1.00
H54    H     0.21933   0.01473   0.04613   0.00000  Uiso   1.00
H55    H     0.25723   0.00390   0.49941   0.00000  Uiso   1.00
H56    H     0.01642   0.18734   0.21302   0.00000  Uiso   1.00
H57    H     0.01955   0.13161   0.32869   0.00000  Uiso   1.00
O58    O     0.16667   0.16667   0.25000   0.00000  Uiso   1.00
O59    O     0.15693   0.12393   0.16625   0.00000  Uiso   1.00
O60    O     0.12687   0.20646   0.33749   0.00000  Uiso   1.00
O61    O     0.21088   0.17493   0.15877   0.00000  Uiso   1.00
O62    O     0.17198   0.16135   0.33749   0.00000  Uiso   1.00
O63    O     0.25785   0.06590   0.02076   0.00000  Uiso   1.00
O64    O     0.31099   0.14449   0.29859   0.00000  Uiso   1.00
O65    O     0.11940   0.32987   0.29617   0.00000  Uiso   1.00
O66    O     0.15982   0.19377   0.10225   0.00000  Uiso   1.00
O67    O     0.24337   0.08273   0.10064   0.00000  Uiso   1.00
O68    O     0.17849   0.08101   0.27821   0.00000  Uiso   1.00
O69    O     0.14581   0.26136   0.26767   0.00000  Uiso   1.00
O70    O     0.07452   0.13251   0.23607   0.00000  Uiso   1.00
O71    O     0.26785   0.19179   0.21806   0.00000  Uiso   1.00
O72    O     0.06990   0.18960   0.27820   0.00000  Uiso   1.00
O73    O     0.25440   0.15277   0.26768   0.00000  Uiso   1.00
O74    O     0.13800   0.06903   0.23607   0.00000  Uiso   1.00
O75    O     0.20437   0.25527   0.21806   0.00000  Uiso   1.00
Zn76   Zn    0.19244   0.14090   0.28278   0.00000  Uiso   1.00
Zn77   Zn    0.13459   0.12378   0.22258   0.00000  Uiso   1.00
Zn78   Zn    0.21166   0.19664   0.21188   0.00000  Uiso   1.00
Zn79   Zn    0.12798   0.20535   0.28277   0.00000  Uiso   1.00
C80    C     0.38611   0.16043   0.25846   0.00000  Uiso   1.00
C81    C     0.53250   0.13035   0.45987   0.00000  Uiso   1.00
C82    C     0.55208   0.10958   0.48007   0.00000  Uiso   1.00
C83    C     0.61422   0.17336   0.24147   0.00000  Uiso   1.00
C84    C     0.54288   0.11651   0.02093   0.00000  Uiso   1.00
C85    C     0.51391   0.14606   0.04191   0.00000  Uiso   1.00
C86    C     0.56263   0.09447   0.04104   0.00000  Uiso   1.00
C87    C     0.55513   0.10302   0.08180   0.00000  Uiso   1.00
C88    C     0.51174   0.15841   0.08204   0.00000  Uiso   1.00
C89    C     0.65995   0.17399   0.23795   0.00000  Uiso   1.00
C90    C     0.34014   0.15750   0.26418   0.00000  Uiso   1.00
C91    C     0.43295   0.21613   0.42112   0.00000  Uiso   1.00
C92    C     0.51189   0.32193   0.23860   0.00000  Uiso   1.00
C93    C     0.48348   0.01261   0.26400   0.00000  Uiso   1.00
C94    C     0.48970   0.05633   0.25866   0.00000  Uiso   1.00
C95    C     0.50980   0.27762   0.24160   0.00000  Uiso   1.00
C96    C     0.52174   0.14491   0.14425   0.00000  Uiso   1.00
C97    C     0.47881   0.18780   0.35614   0.00000  Uiso   1.00
C98    C     0.46787   0.19442   0.39922   0.00000  Uiso   1.00
C99    C     0.53023   0.13546   0.10191   0.00000  Uiso   1.00
C100   C     0.42113   0.21907   0.46197   0.00000  Uiso   1.00
C101   C     0.56785   0.02635   0.01705   0.00000  Uiso   1.00
C102   C     0.49142   0.17664   0.41857   0.00000  Uiso   1.00
C103   C     0.66074   0.11577   0.31511   0.00000  Uiso   1.00
C104   C     0.41980   0.02274   0.31404   0.00000  Uiso   1.00
C105   C     0.52304   0.22901   0.09267   0.00000  Uiso   1.00
C106   C     0.54797   0.05276   0.12290   0.00000  Uiso   1.00
C107   C     0.47918   0.17776   0.45975   0.00000  Uiso   1.00
C108   C     0.44367   0.19984   0.48141   0.00000  Uiso   1.00
C109   C     0.50096   0.15744   0.47993   0.00000  Uiso   1.00
C110   C     0.48951   0.16306   0.02170   0.00000  Uiso   1.00
C111   C     0.45237   0.18312   0.04197   0.00000  Uiso   1.00
C112   C     0.43024   0.20155   0.02218   0.00000  Uiso   1.00
H113   H     0.40208   0.21687   0.03893   0.00000  Uiso   1.00
H114   H     0.33963   0.08942   0.29298   0.00000  Uiso   1.00
H115   H     0.63422   0.10243   0.33878   0.00000  Uiso   1.00
H116   H     0.53699   0.00191   0.21483   0.00000  Uiso   1.00
H117   H     0.40402   0.02988   0.29234   0.00000  Uiso   1.00
H118   H     0.43240   0.05187   0.32921   0.00000  Uiso   1.00
H119   H     0.39479   0.00619   0.33664   0.00000  Uiso   1.00
H120   H     0.53030   0.23336   0.06105   0.00000  Uiso   1.00
H121   H     0.55334   0.22699   0.10038   0.00000  Uiso   1.00
H122   H     0.50872   0.25713   0.11001   0.00000  Uiso   1.00
H123   H     0.51707   0.04388   0.11483   0.00000  Uiso   1.00
H124   H     0.39382   0.23576   0.47840   0.00000  Uiso   1.00
H125   H     0.54091   0.06431   0.15459   0.00000  Uiso   1.00
H126   H     0.56408   0.02392   0.11851   0.00000  Uiso   1.00
H127   H     0.57501   0.08817   0.46320   0.00000  Uiso   1.00
H128   H     0.41434   0.23020   0.40669   0.00000  Uiso   1.00
H129   H     0.54137   0.12261   0.42850   0.00000  Uiso   1.00
H130   H     0.51942   0.16231   0.40066   0.00000  Uiso   1.00
H131   H     0.43831   0.18311   0.07320   0.00000  Uiso   1.00
H132   H     0.54296   0.02668   0.00144   0.00000  Uiso   1.00
H133   H     0.55266   0.01473   0.04613   0.00000  Uiso   1.00
H134   H     0.59056   0.00390   0.49941   0.00000  Uiso   1.00
H135   H     0.34975   0.18734   0.21302   0.00000  Uiso   1.00
H136   H     0.35289   0.13161   0.32869   0.00000  Uiso   1.00
O137   O     0.50000   0.16667   0.25000   0.00000  Uiso   1.00
O138   O     0.49027   0.12393   0.16625   0.00000  Uiso   1.00
O139   O     0.46020   0.20646   0.33749   0.00000  Uiso   1.00
O140   O     0.54421   0.17493   0.15877   0.00000  Uiso   1.00
O141   O     0.50532   0.16135   0.33749   0.00000  Uiso   1.00
O142   O     0.59119   0.06590   0.02076   0.00000  Uiso   1.00
O143   O     0.64432   0.14449   0.29859   0.00000  Uiso   1.00
O144   O     0.45274   0.32987   0.29617   0.00000  Uiso   1.00
O145   O     0.49315   0.19377   0.10225   0.00000  Uiso   1.00
O146   O     0.57671   0.08273   0.10064   0.00000  Uiso   1.00
O147   O     0.51182   0.08101   0.27821   0.00000  Uiso   1.00
O148   O     0.47914   0.26136   0.26767   0.00000  Uiso   1.00
O149   O     0.40785   0.13251   0.23607   0.00000  Uiso   1.00
O150   O     0.60119   0.19179   0.21806   0.00000  Uiso   1.00
O151   O     0.40323   0.18960   0.27820   0.00000  Uiso   1.00
O152   O     0.58773   0.15277   0.26768   0.00000  Uiso   1.00
O153   O     0.47133   0.06903   0.23607   0.00000  Uiso   1.00
O154   O     0.53771   0.25527   0.21806   0.00000  Uiso   1.00
Zn155  Zn    0.52577   0.14090   0.28278   0.00000  Uiso   1.00
Zn156  Zn    0.46792   0.12378   0.22258   0.00000  Uiso   1.00
Zn157  Zn    0.54500   0.19664   0.21188   0.00000  Uiso   1.00
Zn158  Zn    0.46131   0.20535   0.28277   0.00000  Uiso   1.00
C159   C     0.71945   0.16043   0.25846   0.00000  Uiso   1.00
C160   C     0.86583   0.13035   0.45987   0.00000  Uiso   1.00
C161   C     0.88541   0.10958   0.48007   0.00000  Uiso   1.00
C162   C     0.94756   0.17336   0.24147   0.00000  Uiso   1.00
C163   C     0.87621   0.11651   0.02093   0.00000  Uiso   1.00
C164   C     0.84725   0.14606   0.04191   0.00000  Uiso   1.00
C165   C     0.89597   0.09447   0.04104   0.00000  Uiso   1.00
C166   C     0.88847   0.10302   0.08180   0.00000  Uiso   1.00
C167   C     0.84507   0.15841   0.08204   0.00000  Uiso   1.00
C168   C     0.99328   0.17399   0.23795   0.00000  Uiso   1.00
C169   C     0.67347   0.15750   0.26418   0.00000  Uiso   1.00
C170   C     0.76628   0.21613   0.42112   0.00000  Uiso   1.00
C171   C     0.84523   0.32193   0.23860   0.00000  Uiso   1.00
C172   C     0.81682   0.01261   0.26400   0.00000  Uiso   1.00
C173   C     0.82303   0.05633   0.25866   0.00000  Uiso   1.00
C174   C     0.84313   0.27762   0.24160   0.00000  Uiso   1.00
C175   C     0.85507   0.14491   0.14425   0.00000  Uiso   1.00
C176   C     0.81214   0.18780   0.35614   0.00000  Uiso   1.00
C177   C     0.80120   0.19442   0.39922   0.00000  Uiso   1.00
C178   C     0.86356   0.13546   0.10191   0.00000  Uiso   1.00
C179   C     0.75446   0.21907   0.46197   0.00000  Uiso   1.00
C180   C     0.90118   0.02635   0.01705   0.00000  Uiso   1.00
C181   C     0.82475   0.17664   0.41857   0.00000  Uiso   1.00
C182   C     0.99408   0.11577   0.31511   0.00000  Uiso   1.00
C183   C     0.75313   0.02274   0.31404   0.00000  Uiso   1.00
C184   C     0.85637   0.22901   0.09267   0.00000  Uiso   1.00
C185   C     0.88130   0.05276   0.12290   0.00000  Uiso   1.00
C186   C     0.81251   0.17776   0.45975   0.00000  Uiso   1.00
C187   C     0.77701   0.19984   0.48141   0.00000  Uiso   1.00
C188   C     0.83429   0.15744   0.47993   0.00000  Uiso   1.00
C189   C     0.82284   0.16306   0.02170   0.00000  Uiso   1.00
C190   C     0.78570   0.18312   0.04197   0.00000  Uiso   1.00
C191   C     0.76357   0.20155   0.02218   0.00000  Uiso   1.00
H192   H     0.73541   0.21687   0.03893   0.00000  Uiso   1.00
H193   H     0.67296   0.08942   0.29298   0.00000  Uiso   1.00
H194   H     0.96756   0.10243   0.33878   0.00000  Uiso   1.00
H195   H     0.87032   0.00191   0.21483   0.00000  Uiso   1.00
H196   H     0.73735   0.02988   0.29234   0.00000  Uiso   1.00
H197   H     0.76573   0.05187   0.32921   0.00000  Uiso   1.00
H198   H     0.72812   0.00619   0.33664   0.00000  Uiso   1.00
H199   H     0.86363   0.23336   0.06105   0.00000  Uiso   1.00
H200   H     0.88668   0.22699   0.10038   0.00000  Uiso   1.00
H201   H     0.84205   0.25713   0.11001   0.00000  Uiso   1.00
H202   H     0.85040   0.04388   0.11483   0.00000  Uiso   1.00
H203   H     0.72715   0.23576   0.47840   0.00000  Uiso   1.00
H204   H     0.87425   0.06431   0.15459   0.00000  Uiso   1.00
H205   H     0.89741   0.02392   0.11851   0.00000  Uiso   1.00
H206   H     0.90835   0.08817   0.46320   0.00000  Uiso   1.00
H207   H     0.74767   0.23020   0.40669   0.00000  Uiso   1.00
H208   H     0.87470   0.12261   0.42850   0.00000  Uiso   1.00
H209   H     0.85275   0.16231   0.40066   0.00000  Uiso   1.00
H210   H     0.77164   0.18311   0.07320   0.00000  Uiso   1.00
H211   H     0.87629   0.02668   0.00144   0.00000  Uiso   1.00
H212   H     0.88599   0.01473   0.04613   0.00000  Uiso   1.00
H213   H     0.92390   0.00390   0.49941   0.00000  Uiso   1.00
H214   H     0.68309   0.18734   0.21302   0.00000  Uiso   1.00
H215   H     0.68622   0.13161   0.32869   0.00000  Uiso   1.00
O216   O     0.83333   0.16667   0.25000   0.00000  Uiso   1.00
O217   O     0.82360   0.12393   0.16625   0.00000  Uiso   1.00
O218   O     0.79354   0.20646   0.33749   0.00000  Uiso   1.00
O219   O     0.87755   0.17493   0.15877   0.00000  Uiso   1.00
O220   O     0.83865   0.16135   0.33749   0.00000  Uiso   1.00
O221   O     0.92452   0.06590   0.02076   0.00000  Uiso   1.00
O222   O     0.97766   0.14449   0.29859   0.00000  Uiso   1.00
O223   O     0.78607   0.32987   0.29617   0.00000  Uiso   1.00
O224   O     0.82649   0.19377   0.10225   0.00000  Uiso   1.00
O225   O     0.91004   0.08273   0.10064   0.00000  Uiso   1.00
O226   O     0.84515   0.08101   0.27821   0.00000  Uiso   1.00
O227   O     0.81247   0.26136   0.26767   0.00000  Uiso   1.00
O228   O     0.74119   0.13251   0.23607   0.00000  Uiso   1.00
O229   O     0.93452   0.19179   0.21806   0.00000  Uiso   1.00
O230   O     0.73656   0.18960   0.27820   0.00000  Uiso   1.00
O231   O     0.92106   0.15277   0.26768   0.00000  Uiso   1.00
O232   O     0.80467   0.06903   0.23607   0.00000  Uiso   1.00
O233   O     0.87104   0.25527   0.21806   0.00000  Uiso   1.00
Zn234  Zn    0.85910   0.14090   0.28278   0.00000  Uiso   1.00
Zn235  Zn    0.80125   0.12378   0.22258   0.00000  Uiso   1.00
Zn236  Zn    0.87833   0.19664   0.21188   0.00000  Uiso   1.00
Zn237  Zn    0.79465   0.20535   0.28277   0.00000  Uiso   1.00
C238   C     0.05278   0.49376   0.25846   0.00000  Uiso   1.00
C239   C     0.19917   0.46369   0.45987   0.00000  Uiso   1.00
C240   C     0.21875   0.44291   0.48007   0.00000  Uiso   1.00
C241   C     0.28089   0.50670   0.24147   0.00000  Uiso   1.00
C242   C     0.20955   0.44984   0.02093   0.00000  Uiso   1.00
C243   C     0.18058   0.47939   0.04191   0.00000  Uiso   1.00
C244   C     0.22930   0.42780   0.04104   0.00000  Uiso   1.00
C245   C     0.22180   0.43636   0.08180   0.00000  Uiso   1.00
C246   C     0.17840   0.49175   0.08204   0.00000  Uiso   1.00
C247   C     0.32661   0.50732   0.23795   0.00000  Uiso   1.00
C248   C     0.00680   0.49083   0.26418   0.00000  Uiso   1.00
C249   C     0.09961   0.54946   0.42112   0.00000  Uiso   1.00
C250   C     0.17856   0.65526   0.23860   0.00000  Uiso   1.00
C251   C     0.15015   0.34594   0.26400   0.00000  Uiso   1.00
C252   C     0.15636   0.38966   0.25866   0.00000  Uiso   1.00
C253   C     0.17647   0.61096   0.24160   0.00000  Uiso   1.00
C254   C     0.18840   0.47824   0.14425   0.00000  Uiso   1.00
C255   C     0.14547   0.52113   0.35614   0.00000  Uiso   1.00
C256   C     0.13454   0.52776   0.39922   0.00000  Uiso   1.00
C257   C     0.19690   0.46880   0.10191   0.00000  Uiso   1.00
C258   C     0.08779   0.55240   0.46197   0.00000  Uiso   1.00
C259   C     0.23452   0.35969   0.01705   0.00000  Uiso   1.00
C260   C     0.15808   0.50997   0.41857   0.00000  Uiso   1.00
C261   C     0.32741   0.44911   0.31511   0.00000  Uiso   1.00
C262   C     0.08646   0.35608   0.31404   0.00000  Uiso   1.00
C263   C     0.18971   0.56234   0.09267   0.00000  Uiso   1.00
C264   C     0.21464   0.38609   0.12290   0.00000  Uiso   1.00
C265   C     0.14585   0.51110   0.45975   0.00000  Uiso   1.00
C266   C     0.11034   0.53317   0.48141   0.00000  Uiso   1.00
C267   C     0.16762   0.49078   0.47993   0.00000  Uiso   1.00
C268   C     0.15618   0.49639   0.02170   0.00000  Uiso   1.00
C269   C     0.11903   0.51645   0.04197   0.00000  Uiso   1.00
C270   C     0.09690   0.53488   0.02218   0.00000  Uiso   1.00
H271   H     0.06875   0.55021   0.03893   0.00000  Uiso   1.00
H272   H     0.00629   0.42276   0.29298   0.00000  Uiso   1.00
H273   H     0.30089   0.43577   0.33878   0.00000  Uiso   1.00
H274   H     0.20366   0.33524   0.21483   0.00000  Uiso   1.00
H275   H     0.07069   0.36321   0.29234   0.00000  Uiso   1.00
H276   H     0.09907   0.38520   0.32921   0.00000  Uiso   1.00
H277   H     0.06145   0.33953   0.33664   0.00000  Uiso   1.00
H278   H     0.19696   0.56669   0.06105   0.00000  Uiso   1.00
H279   H     0.22001   0.56032   0.10038   0.00000  Uiso   1.00
H280   H     0.17539   0.59046   0.11001   0.00000  Uiso   1.00
H281   H     0.18374   0.37721   0.11483   0.00000  Uiso   1.00
H282   H     0.06048   0.56909   0.47840   0.00000  Uiso   1.00
H283   H     0.20758   0.39764   0.15459   0.00000  Uiso   1.00
H284   H     0.23075   0.35726   0.11851   0.00000  Uiso   1.00
H285   H     0.24168   0.42150   0.46320   0.00000  Uiso   1.00
H286   H     0.08100   0.56353   0.40669   0.00000  Uiso   1.00
H287   H     0.20803   0.45595   0.42850   0.00000  Uiso   1.00
H288   H     0.18609   0.49564   0.40066   0.00000  Uiso   1.00
H289   H     0.10498   0.51644   0.07320   0.00000  Uiso   1.00
H290   H     0.20962   0.36001   0.00144   0.00000  Uiso   1.00
H291   H     0.21933   0.34807   0.04613   0.00000  Uiso   1.00
H292   H     0.25723   0.33723   0.49941   0.00000  Uiso   1.00
H293   H     0.01642   0.52067   0.21302   0.00000  Uiso   1.00
H294   H     0.01955   0.46494   0.32869   0.00000  Uiso   1.00
O295   O     0.16667   0.50000   0.25000   0.00000  Uiso   1.00
O296   O     0.15693   0.45726   0.16625   0.00000  Uiso   1.00
O297   O     0.12687   0.53979   0.33749   0.00000  Uiso   1.00
O298   O     0.21088   0.50826   0.15877   0.00000  Uiso   1.00
O299   O     0.17198   0.49468   0.33749   0.00000  Uiso   1.00
O300   O     0.25785   0.39923   0.02076   0.00000  Uiso   1.00
O301   O     0.31099   0.47782   0.29859   0.00000  Uiso   1.00
O302   O     0.11940   0.66320   0.29617   0.00000  Uiso   1.00
O303   O     0.15982   0.52710   0.10225   0.00000  Uiso   1.00
O304   O     0.24337   0.41606   0.10064   0.00000  Uiso   1.00
O305   O     0.17849   0.41434   0.27821   0.00000  Uiso   1.00
O306   O     0.14581   0.59469   0.26767   0.00000  Uiso   1.00
O307   O     0.07452   0.46584   0.23607   0.00000  Uiso   1.00
O308   O     0.26785   0.52512   0.21806   0.00000  Uiso   1.00
O309   O     0.06990   0.52293   0.27820   0.00000  Uiso   1.00
O310   O     0.25440   0.48610   0.26768   0.00000  Uiso   1.00
O311   O     0.13800   0.40236   0.23607   0.00000  Uiso   1.00
O312   O     0.20437   0.58860   0.21806   0.00000  Uiso   1.00
Zn313  Zn    0.19244   0.47423   0.28278   0.00000  Uiso   1.00
Zn314  Zn    0.13459   0.45711   0.22258   0.00000  Uiso   1.00
Zn315  Zn    0.21166   0.52997   0.21188   0.00000  Uiso   1.00
Zn316  Zn    0.12798   0.53868   0.28277   0.00000  Uiso   1.00
C317   C     0.38611   0.49376   0.25846   0.00000  Uiso   1.00
C318   C     0.53250   0.46369   0.45987   0.00000  Uiso   1.00
C319   C     0.55208   0.44291   0.48007   0.00000  Uiso   1.00
C320   C     0.61422   0.50670   0.24147   0.00000  Uiso   1.00
C321   C     0.54288   0.44984   0.02093   0.00000  Uiso   1.00
C322   C     0.51391   0.47939   0.04191   0.00000  Uiso   1.00
C323   C     0.56263   0.42780   0.04104   0.00000  Uiso   1.00
C324   C     0.55513   0.43636   0.08180   0.00000  Uiso   1.00
C325   C     0.51174   0.49175   0.08204   0.00000  Uiso   1.00
C326   C     0.65995   0.50732   0.23795   0.00000  Uiso   1.00
C327   C     0.34014   0.49083   0.26418   0.00000  Uiso   1.00
C328   C     0.43295   0.54946   0.42112   0.00000  Uiso   1.00
C329   C     0.51189   0.65526   0.23860   0.00000  Uiso   1.00
C330   C     0.48348   0.34594   0.26400   0.00000  Uiso   1.00
C331   C     0.48970   0.38966   0.25866   0.00000  Uiso   1.00
C332   C     0.50980   0.61096   0.24160   0.00000  Uiso   1.00
C333   C     0.52174   0.47824   0.14425   0.00000  Uiso   1.00
C334   C     0.47881   0.52113   0.35614   0.00000  Uiso   1.00
C335   C     0.46787   0.52776   0.39922   0.00000  Uiso   1.00
C336   C     0.53023   0.46880   0.10191   0.00000  Uiso   1.00
C337   C     0.42113   0.55240   0.46197   0.00000  Uiso   1.00
C338   C     0.56785   0.35969   0.01705   0.00000  Uiso   1.00
C339   C     0.49142   0.50997   0.41857   0.00000  Uiso   1.00
C340   C     0.66074   0.44911   0.31511   0.00000  Uiso   1.00
C341   C     0.41980   0.35608   0.31404   0.00000  Uiso   1.00
C342   C     0.52304   0.56234   0.09267   0.00000  Uiso   1.00
C343   C     0.54797   0.38609   0.12290   0.00000  Uiso   1.00
C344   C     0.47918   0.51110   0.45975   0.00000  Uiso   1.00
C345   C     0.44367   0.53317   0.48141   0.00000  Uiso   1.00
C346   C     0.50096   0.49078   0.47993   0.00000  Uiso   1.00
C347   C     0.48951   0.49639   0.02170   0.00000  Uiso   1.00
C348   C     0.45237   0.51645   0.04197   0.00000  Uiso   1.00
C349   C     0.43024   0.53488   0.02218   0.00000  Uiso   1.00
H350   H     0.40208   0.55021   0.03893   0.00000  Uiso   1.00
H351   H     0.33963   0.42276   0.29298   0.00000  Uiso   1.00
H352   H     0.63422   0.43577   0.33878   0.00000  Uiso   1.00
H353   H     0.53699   0.33524   0.21483   0.00000  Uiso   1.00
H354   H     0.40402   0.36321   0.29234   0.00000  Uiso   1.00
H355   H     0.43240   0.38520   0.32921   0.00000  Uiso   1.00
H356   H     0.39479   0.33953   0.33664   0.00000  Uiso   1.00
H357   H     0.53030   0.56669   0.06105   0.00000  Uiso   1.00
H358   H     0.55334   0.56032   0.10038   0.00000  Uiso   1.00
H359   H     0.50872   0.59046   0.11001   0.00000  Uiso   1.00
H360   H     0.51707   0.37721   0.11483   0.00000  Uiso   1.00
H361   H     0.39382   0.56909   0.47840   0.00000  Uiso   1.00
H362   H     0.54091   0.39764   0.15459   0.00000  Uiso   1.00
H363   H     0.56408   0.35726   0.11851   0.00000  Uiso   1.00
H364   H     0.57501   0.42150   0.46320   0.00000  Uiso   1.00
H365   H     0.41434   0.56353   0.40669   0.00000  Uiso   1.00
H366   H     0.54137   0.45595   0.42850   0.00000  Uiso   1.00
H367   H     0.51942   0.49564   0.40066   0.00000  Uiso   1.00
H368   H     0.43831   0.51644   0.07320   0.00000  Uiso   1.00
H369   H     0.54296   0.36001   0.00144   0.00000  Uiso   1.00
H370   H     0.55266   0.34807   0.04613   0.00000  Uiso   1.00
H371   H     0.59056   0.33723   0.49941   0.00000  Uiso   1.00
H372   H     0.34975   0.52067   0.21302   0.00000  Uiso   1.00
H373   H     0.35289   0.46494   0.32869   0.00000  Uiso   1.00
O374   O     0.50000   0.50000   0.25000   0.00000  Uiso   1.00
O375   O     0.49027   0.45726   0.16625   0.00000  Uiso   1.00
O376   O     0.46020   0.53979   0.33749   0.00000  Uiso   1.00
O377   O     0.54421   0.50826   0.15877   0.00000  Uiso   1.00
O378   O     0.50532   0.49468   0.33749   0.00000  Uiso   1.00
O379   O     0.59119   0.39923   0.02076   0.00000  Uiso   1.00
O380   O     0.64432   0.47782   0.29859   0.00000  Uiso   1.00
O381   O     0.45274   0.66320   0.29617   0.00000  Uiso   1.00
O382   O     0.49315   0.52710   0.10225   0.00000  Uiso   1.00
O383   O     0.57671   0.41606   0.10064   0.00000  Uiso   1.00
O384   O     0.51182   0.41434   0.27821   0.00000  Uiso   1.00
O385   O     0.47914   0.59469   0.26767   0.00000  Uiso   1.00
O386   O     0.40785   0.46584   0.23607   0.00000  Uiso   1.00
O387   O     0.60119   0.52512   0.21806   0.00000  Uiso   1.00
O388   O     0.40323   0.52293   0.27820   0.00000  Uiso   1.00
O389   O     0.58773   0.48610   0.26768   0.00000  Uiso   1.00
O390   O     0.47133   0.40236   0.23607   0.00000  Uiso   1.00
O391   O     0.53771   0.58860   0.21806   0.00000  Uiso   1.00
Zn392  Zn    0.52577   0.47423   0.28278   0.00000  Uiso   1.00
Zn393  Zn    0.46792   0.45711   0.22258   0.00000  Uiso   1.00
Zn394  Zn    0.54500   0.52997   0.21188   0.00000  Uiso   1.00
Zn395  Zn    0.46131   0.53868   0.28277   0.00000  Uiso   1.00
C396   C     0.71945   0.49376   0.25846   0.00000  Uiso   1.00
C397   C     0.86583   0.46369   0.45987   0.00000  Uiso   1.00
C398   C     0.88541   0.44291   0.48007   0.00000  Uiso   1.00
C399   C     0.94756   0.50670   0.24147   0.00000  Uiso   1.00
C400   C     0.87621   0.44984   0.02093   0.00000  Uiso   1.00
C401   C     0.84725   0.47939   0.04191   0.00000  Uiso   1.00
C402   C     0.89597   0.42780   0.04104   0.00000  Uiso   1.00
C403   C     0.88847   0.43636   0.08180   0.00000  Uiso   1.00
C404   C     0.84507   0.49175   0.08204   0.00000  Uiso   1.00
C405   C     0.99328   0.50732   0.23795   0.00000  Uiso   1.00
C406   C     0.67347   0.49083   0.26418   0.00000  Uiso   1.00
C407   C     0.76628   0.54946   0.42112   0.00000  Uiso   1.00
C408   C     0.84523   0.65526   0.23860   0.00000  Uiso   1.00
C409   C     0.81682   0.34594   0.26400   0.00000  Uiso   1.00
C410   C     0.82303   0.38966   0.25866   0.00000  Uiso   1.00
C411   C     0.84313   0.61096   0.24160   0.00000  Uiso   1.00
C412   C     0.85507   0.47824   0.14425   0.00000  Uiso   1.00
C413   C     0.81214   0.52113   0.35614   0.00000  Uiso   1.00
C414   C     0.80120   0.52776   0.39922   0.00000  Uiso   1.00
C415   C     0.86356   0.46880   0.10191   0.00000  Uiso   1.00
C416   C     0.75446   0.55240   0.46197   0.00000  Uiso   1.00
C417   C     0.90118   0.35969   0.01705   0.00000  Uiso   1.00
C418   C     0.82475   0.50997   0.41857   0.00000  Uiso   1.00
C419   C     0.99408   0.44911   0.31511   0.00000  Uiso   1.00
C420   C     0.75313   0.35608   0.31404   0.00000  Uiso   1.00
C421   C     0.85637   0.56234   0.09267   0.00000  Uiso   1.00
C422   C     0.88130   0.38609   0.12290   0.00000  Uiso   1.00
C423   C     0.81251   0.51110   0.45975   0.00000  Uiso   1.00
C424   C     0.77701   0.53317   0.48141   0.00000  Uiso   1.00
C425   C     0.83429   0.49078   0.47993   0.00000  Uiso   1.00
C426   C     0.82284   0.49639   0.02170   0.00000  Uiso   1.00
C427   C     0.78570   0.51645   0.04197   0.00000  Uiso   1.00
C428   C     0.76357   0.53488   0.02218   0.00000  Uiso   1.00
H429   H     0.73541   0.55021   0.03893   0.00000  Uiso   1.00
H430   H     0.67296   0.42276   0.29298   0.00000  Uiso   1.00
H431   H     0.96756   0.43577   0.33878   0.00000  Uiso   1.00
H432   H     0.87032   0.33524   0.21483   0.00000  Uiso   1.00
H433   H     0.73735   0.36321   0.29234   0.00000  Uiso   1.00
H434   H     0.76573   0.38520   0.32921   0.00000  Uiso   1.00
H435   H     0.72812   0.33953   0.33664   0.00000  Uiso   1.00
H436   H     0.86363   0.56669   0.06105   0.00000  Uiso   1.00
H437   H     0.88668   0.56032   0.10038   0.00000  Uiso   1.00
H438   H     0.84205   0.59046   0.11001   0.00000  Uiso   1.00
H439   H     0.85040   0.37721   0.11483   0.00000  Uiso   1.00
H440   H     0.72715   0.56909   0.47840   0.00000  Uiso   1.00
H441   H     0.87425   0.39764   0.15459   0.00000  Uiso   1.00
H442   H     0.89741   0.35726   0.11851   0.00000  Uiso   1.00
H443   H     0.90835   0.42150   0.46320   0.00000  Uiso   1.00
H444   H     0.74767   0.56353   0.40669   0.00000  Uiso   1.00
H445   H     0.87470   0.45595   0.42850   0.00000  Uiso   1.00
H446   H     0.85275   0.49564   0.40066   0.00000  Uiso   1.00
H447   H     0.77164   0.51644   0.07320   0.00000  Uiso   1.00
H448   H     0.87629   0.36001   0.00144   0.00000  Uiso   1.00
H449   H     0.88599   0.34807   0.04613   0.00000  Uiso   1.00
H450   H     0.92390   0.33723   0.49941   0.00000  Uiso   1.00
H451   H     0.68309   0.52067   0.21302   0.00000  Uiso   1.00
H452   H     0.68622   0.46494   0.32869   0.00000  Uiso   1.00
O453   O     0.83333   0.50000   0.25000   0.00000  Uiso   1.00
O454   O     0.82360   0.45726   0.16625   0.00000  Uiso   1.00
O455   O     0.79354   0.53979   0.33749   0.00000  Uiso   1.00
O456   O     0.87755   0.50826   0.15877   0.00000  Uiso   1.00
O457   O     0.83865   0.49468   0.33749   0.00000  Uiso   1.00
O458   O     0.92452   0.39923   0.02076   0.00000  Uiso   1.00
O459   O     0.97766   0.47782   0.29859   0.00000  Uiso   1.00
O460   O     0.78607   0.66320   0.29617   0.00000  Uiso   1.00
O461   O     0.82649   0.52710   0.10225   0.00000  Uiso   1.00
O462   O     0.91004   0.41606   0.10064   0.00000  Uiso   1.00
O463   O     0.84515   0.41434   0.27821   0.00000  Uiso   1.00
O464   O     0.81247   0.59469   0.26767   0.00000  Uiso   1.00
O465   O     0.74119   0.46584   0.23607   0.00000  Uiso   1.00
O466   O     0.93452   0.52512   0.21806   0.00000  Uiso   1.00
O467   O     0.73656   0.52293   0.27820   0.00000  Uiso   1.00
O468   O     0.92106   0.48610   0.26768   0.00000  Uiso   1.00
O469   O     0.80467   0.40236   0.23607   0.00000  Uiso   1.00
O470   O     0.87104   0.58860   0.21806   0.00000  Uiso   1.00
Zn471  Zn    0.85910   0.47423   0.28278   0.00000  Uiso   1.00
Zn472  Zn    0.80125   0.45711   0.22258   0.00000  Uiso   1.00
Zn473  Zn    0.87833   0.52997   0.21188   0.00000  Uiso   1.00
Zn474  Zn    0.79465   0.53868   0.28277   0.00000  Uiso   1.00
C475   C     0.05278   0.82710   0.25846   0.00000  Uiso   1.00
C476   C     0.19917   0.79702   0.45987   0.00000  Uiso   1.00
C477   C     0.21875   0.77625   0.48007   0.00000  Uiso   1.00
C478   C     0.28089   0.84003   0.24147   0.00000  Uiso   1.00
C479   C     0.20955   0.78318   0.02093   0.00000  Uiso   1.00
C480   C     0.18058   0.81272   0.04191   0.00000  Uiso   1.00
C481   C     0.22930   0.76113   0.04104   0.00000  Uiso   1.00
C482   C     0.22180   0.76969   0.08180   0.00000  Uiso   1.00
C483   C     0.17840   0.82508   0.08204   0.00000  Uiso   1.00
C484   C     0.32661   0.84065   0.23795   0.00000  Uiso   1.00
C485   C     0.00680   0.82417   0.26418   0.00000  Uiso   1.00
C486   C     0.09961   0.88279   0.42112   0.00000  Uiso   1.00
C487   C     0.17856   0.98859   0.23860   0.00000  Uiso   1.00
C488   C     0.15015   0.67927   0.26400   0.00000  Uiso   1.00
C489   C     0.15636   0.72300   0.25866   0.00000  Uiso   1.00
C490   C     0.17647   0.94429   0.24160   0.00000  Uiso   1.00
C491   C     0.18840   0.81158   0.14425   0.00000  Uiso   1.00
C492   C     0.14547   0.85447   0.35614   0.00000  Uiso   1.00
C493   C     0.13454   0.86109   0.39922   0.00000  Uiso   1.00
C494   C     0.19690   0.80213   0.10191   0.00000  Uiso   1.00
C495   C     0.08779   0.88574   0.46197   0.00000  Uiso   1.00
C496   C     0.23452   0.69302   0.01705   0.00000  Uiso   1.00
C497   C     0.15808   0.84330   0.41857   0.00000  Uiso   1.00
C498   C     0.32741   0.78244   0.31511   0.00000  Uiso   1.00
C499   C     0.08646   0.68941   0.31404   0.00000  Uiso   1.00
C500   C     0.18971   0.89567   0.09267   0.00000  Uiso   1.00
C501   C     0.21464   0.71942   0.12290   0.00000  Uiso   1.00
C502   C     0.14585   0.84443   0.45975   0.00000  Uiso   1.00
C503   C     0.11034   0.86650   0.48141   0.00000  Uiso   1.00
C504   C     0.16762   0.82411   0.47993   0.00000  Uiso   1.00
C505   C     0.15618   0.82973   0.02170   0.00000  Uiso   1.00
C506   C     0.11903   0.84978   0.04197   0.00000  Uiso   1.00
C507   C     0.09690   0.86821   0.02218   0.00000  Uiso   1.00
H508   H     0.06875   0.88354   0.03893   0.00000  Uiso   1.00
H509   H     0.00629   0.75609   0.29298   0.00000  Uiso   1.00
H510   H     0.30089   0.76910   0.33878   0.00000  Uiso   1.00
H511   H     0.20366   0.66857   0.21483   0.00000  Uiso   1.00
H512   H     0.07069   0.69654   0.29234   0.00000  Uiso   1.00
H513   H     0.09907   0.71854   0.32921   0.00000  Uiso   1.00
H514   H     0.06145   0.67286   0.33664   0.00000  Uiso   1.00
H515   H     0.19696   0.90003   0.06105   0.00000  Uiso   1.00
H516   H     0.22001   0.89365   0.10038   0.00000  Uiso   1.00
H517   H     0.17539   0.92380   0.11001   0.00000  Uiso   1.00
H518   H     0.18374   0.71054   0.11483   0.00000  Uiso   1.00
H519   H     0.06048   0.90242   0.47840   0.00000  Uiso   1.00
H520   H     0.20758   0.73098   0.15459   0.00000  Uiso   1.00
H521   H     0.23075   0.69059   0.11851   0.00000  Uiso   1.00
H522   H     0.24168   0.75483   0.46320   0.00000  Uiso   1.00
H523   H     0.08100   0.89686   0.40669   0.00000  Uiso   1.00
H524   H     0.20803   0.78928   0.42850   0.00000  Uiso   1.00
H525   H     0.18609   0.82898   0.40066   0.00000  Uiso   1.00
H526   H     0.10498   0.84978   0.07320   0.00000  Uiso   1.00
H527   H     0.20962   0.69335   0.00144   0.00000  Uiso   1.00
H528   H     0.21933   0.68140   0.04613   0.00000  Uiso   1.00
H529   H     0.25723   0.67057   0.49941   0.00000  Uiso   1.00
H530   H     0.01642   0.85400   0.21302   0.00000  Uiso   1.00
H531   H     0.01955   0.79828   0.32869   0.00000  Uiso   1.00
O532   O     0.16667   0.83333   0.25000   0.00000  Uiso   1.00
O533   O     0.15693   0.79060   0.16625   0.00000  Uiso   1.00
O534   O     0.12687   0.87313   0.33749   0.00000  Uiso   1.00
O535   O     0.21088   0.84159   0.15877   0.00000  Uiso   1.00
O536   O     0.17198   0.82802   0.33749   0.00000  Uiso   1.00
O537   O     0.25785   0.73256   0.02076   0.00000  Uiso   1.00
O538   O     0.31099   0.81116   0.29859   0.00000  Uiso   1.00
O539   O     0.11940   0.99654   0.29617   0.00000  Uiso   1.00
O540   O     0.15982   0.86044   0.10225   0.00000  Uiso   1.00
O541   O     0.24337   0.74939   0.10064   0.00000  Uiso   1.00
O542   O     0.17849   0.74768   0.27821   0.00000  Uiso   1.00
O543   O     0.14581   0.92803   0.26767   0.00000  Uiso   1.00
O544   O     0.07452   0.79917   0.23607   0.00000  Uiso   1.00
O545   O     0.26785   0.85845   0.21806   0.00000  Uiso   1.00
O546   O     0.06990   0.85627   0.27820   0.00000  Uiso   1.00
O547   O     0.25440   0.81944   0.26768   0.00000  Uiso   1.00
O548   O     0.13800   0.73570   0.23607   0.00000  Uiso   1.00
O549   O     0.20437   0.92193   0.21806   0.00000  Uiso   1.00
Zn550  Zn    0.19244   0.80756   0.28278   0.00000  Uiso   1.00
Zn551  Zn    0.13459   0.79044   0.22258   0.00000  Uiso   1.00
Zn552  Zn    0.21166   0.86331   0.21188   0.00000  Uiso   1.00
Zn553  Zn    0.12798   0.87202   0.28277   0.00000  Uiso   1.00
C554   C     0.38611   0.82710   0.25846   0.00000  Uiso   1.00
C555   C     0.53250   0.79702   0.45987   0.00000  Uiso   1.00
C556   C     0.55208   0.77625   0.48007   0.00000  Uiso   1.00
C557   C     0.61422   0.84003   0.24147   0.00000  Uiso   1.00
C558   C     0.54288   0.78318   0.02093   0.00000  Uiso   1.00
C559   C     0.51391   0.81272   0.04191   0.00000  Uiso   1.00
C560   C     0.56263   0.76113   0.04104   0.00000  Uiso   1.00
C561   C     0.55513   0.76969   0.08180   0.00000  Uiso   1.00
C562   C     0.51174   0.82508   0.08204   0.00000  Uiso   1.00
C563   C     0.65995   0.84065   0.23795   0.00000  Uiso   1.00
C564   C     0.34014   0.82417   0.26418   0.00000  Uiso   1.00
C565   C     0.43295   0.88279   0.42112   0.00000  Uiso   1.00
C566   C     0.51189   0.98859   0.23860   0.00000  Uiso   1.00
C567   C     0.48348   0.67927   0.26400   0.00000  Uiso   1.00
C568   C     0.48970   0.72300   0.25866   0.00000  Uiso   1.00
C569   C     0.50980   0.94429   0.24160   0.00000  Uiso   1.00
C570   C     0.52174   0.81158   0.14425   0.00000  Uiso   1.00
C571   C     0.47881   0.85447   0.35614   0.00000  Uiso   1.00
C572   C     0.46787   0.86109   0.39922   0.00000  Uiso   1.00
C573   C     0.53023   0.80213   0.10191   0.00000  Uiso   1.00
C574   C     0.42113   0.88574   0.46197   0.00000  Uiso   1.00
C575   C     0.56785   0.69302   0.01705   0.00000  Uiso   1.00
C576   C     0.49142   0.84330   0.41857   0.00000  Uiso   1.00
C577   C     0.66074   0.78244   0.31511   0.00000  Uiso   1.00
C578   C     0.41980   0.68941   0.31404   0.00000  Uiso   1.00
C579   C     0.52304   0.89567   0.09267   0.00000  Uiso   1.00
C580   C     0.54797   0.71942   0.12290   0.00000  Uiso   1.00
C581   C     0.47918   0.84443   0.45975   0.00000  Uiso   1.00
C582   C     0.44367   0.86650   0.48141   0.00000  Uiso   1.00
C583   C     0.50096   0.82411   0.47993   0.00000  Uiso   1.00
C584   C     0.48951   0.82973   0.02170   0.00000  Uiso   1.00
C585   C     0.45237   0.84978   0.04197   0.00000  Uiso   1.00
C586   C     0.43024   0.86821   0.02218   0.00000  Uiso   1.00
H587   H     0.40208   0.88354   0.03893   0.00000  Uiso   1.00
H588   H     0.33963   0.75609   0.29298   0.00000  Uiso   1.00
H589   H     0.63422   0.76910   0.33878   0.00000  Uiso   1.00
H590   H     0.53699   0.66857   0.21483   0.00000  Uiso   1.00
H591   H     0.40402   0.69654   0.29234   0.00000  Uiso   1.00
H592   H     0.43240   0.71854   0.32921   0.00000  Uiso   1.00
H593   H     0.39479   0.67286   0.33664   0.00000  Uiso   1.00
H594   H     0.53030   0.90003   0.06105   0.00000  Uiso   1.00
H595   H     0.55334   0.89365   0.10038   0.00000  Uiso   1.00
H596   H     0.50872   0.92380   0.11001   0.00000  Uiso   1.00
H597   H     0.51707   0.71054   0.11483   0.00000  Uiso   1.00
H598   H     0.39382   0.90242   0.47840   0.00000  Uiso   1.00
H599   H     0.54091   0.73098   0.15459   0.00000  Uiso   1.00
H600   H     0.56408   0.69059   0.11851   0.00000  Uiso   1.00
H601   H     0.57501   0.75483   0.46320   0.00000  Uiso   1.00
H602   H     0.41434   0.89686   0.40669   0.00000  Uiso   1.00
H603   H     0.54137   0.78928   0.42850   0.00000  Uiso   1.00
H604   H     0.51942   0.82898   0.40066   0.00000  Uiso   1.00
H605   H     0.43831   0.84978   0.07320   0.00000  Uiso   1.00
H606   H     0.54296   0.69335   0.00144   0.00000  Uiso   1.00
H607   H     0.55266   0.68140   0.04613   0.00000  Uiso   1.00
H608   H     0.59056   0.67057   0.49941   0.00000  Uiso   1.00
H609   H     0.34975   0.85400   0.21302   0.00000  Uiso   1.00
H610   H     0.35289   0.79828   0.32869   0.00000  Uiso   1.00
O611   O     0.50000   0.83333   0.25000   0.00000  Uiso   1.00
O612   O     0.49027   0.79060   0.16625   0.00000  Uiso   1.00
O613   O     0.46020   0.87313   0.33749   0.00000  Uiso   1.00
O614   O     0.54421   0.84159   0.15877   0.00000  Uiso   1.00
O615   O     0.50532   0.82802   0.33749   0.00000  Uiso   1.00
O616   O     0.59119   0.73256   0.02076   0.00000  Uiso   1.00
O617   O     0.64432   0.81116   0.29859   0.00000  Uiso   1.00
O618   O     0.45274   0.99654   0.29617   0.00000  Uiso   1.00
O619   O     0.49315   0.86044   0.10225   0.00000  Uiso   1.00
O620   O     0.57671   0.74939   0.10064   0.00000  Uiso   1.00
O621   O     0.51182   0.74768   0.27821   0.00000  Uiso   1.00
O622   O     0.47914   0.92803   0.26767   0.00000  Uiso   1.00
O623   O     0.40785   0.79917   0.23607   0.00000  Uiso   1.00
O624   O     0.60119   0.85845   0.21806   0.00000  Uiso   1.00
O625   O     0.40323   0.85627   0.27820   0.00000  Uiso   1.00
O626   O     0.58773   0.81944   0.26768   0.00000  Uiso   1.00
O627   O     0.47133   0.73570   0.23607   0.00000  Uiso   1.00
O628   O     0.53771   0.92193   0.21806   0.00000  Uiso   1.00
Zn629  Zn    0.52577   0.80756   0.28278   0.00000  Uiso   1.00
Zn630  Zn    0.46792   0.79044   0.22258   0.00000  Uiso   1.00
Zn631  Zn    0.54500   0.86331   0.21188   0.00000  Uiso   1.00
Zn632  Zn    0.46131   0.87202   0.28277   0.00000  Uiso   1.00
C633   C     0.71945   0.82710   0.25846   0.00000  Uiso   1.00
C634   C     0.86583   0.79702   0.45987   0.00000  Uiso   1.00
C635   C     0.88541   0.77625   0.48007   0.00000  Uiso   1.00
C636   C     0.94756   0.84003   0.24147   0.00000  Uiso   1.00
C637   C     0.87621   0.78318   0.02093   0.00000  Uiso   1.00
C638   C     0.84725   0.81272   0.04191   0.00000  Uiso   1.00
C639   C     0.89597   0.76113   0.04104   0.00000  Uiso   1.00
C640   C     0.88847   0.76969   0.08180   0.00000  Uiso   1.00
C641   C     0.84507   0.82508   0.08204   0.00000  Uiso   1.00
C642   C     0.99328   0.84065   0.23795   0.00000  Uiso   1.00
C643   C     0.67347   0.82417   0.26418   0.00000  Uiso   1.00
C644   C     0.76628   0.88279   0.42112   0.00000  Uiso   1.00
C645   C     0.84523   0.98859   0.23860   0.00000  Uiso   1.00
C646   C     0.81682   0.67927   0.26400   0.00000  Uiso   1.00
C647   C     0.82303   0.72300   0.25866   0.00000  Uiso   1.00
C648   C     0.84313   0.94429   0.24160   0.00000  Uiso   1.00
C649   C     0.85507   0.81158   0.14425   0.00000  Uiso   1.00
C650   C     0.81214   0.85447   0.35614   0.00000  Uiso   1.00
C651   C     0.80120   0.86109   0.39922   0.00000  Uiso   1.00
C652   C     0.86356   0.80213   0.10191   0.00000  Uiso   1.00
C653   C     0.75446   0.88574   0.46197   0.00000  Uiso   1.00
C654   C     0.90118   0.69302   0.01705   0.00000  Uiso   1.00
C655   C     0.82475   0.84330   0.41857   0.00000  Uiso   1.00
C656   C     0.99408   0.78244   0.31511   0.00000  Uiso   1.00
C657   C     0.75313   0.68941   0.31404   0.00000  Uiso   1.00
C658   C     0.85637   0.89567   0.09267   0.00000  Uiso   1.00
C659   C     0.88130   0.71942   0.12290   0.00000  Uiso   1.00
C660   C     0.81251   0.84443   0.45975   0.00000  Uiso   1.00
C661   C     0.77701   0.86650   0.48141   0.00000  Uiso   1.00
C662   C     0.83429   0.82411   0.47993   0.00000  Uiso   1.00
C663   C     0.82284   0.82973   0.02170   0.00000  Uiso   1.00
C664   C     0.78570   0.84978   0.04197   0.00000  Uiso   1.00
C665   C     0.76357   0.86821   0.02218   0.00000  Uiso   1.00
H666   H     0.73541   0.88354   0.03893   0.00000  Uiso   1.00
H667   H     0.67296   0.75609   0.29298   0.00000  Uiso   1.00
H668   H     0.96756   0.76910   0.33878   0.00000  Uiso   1.00
H669   H     0.87032   0.66857   0.21483   0.00000  Uiso   1.00
H670   H     0.73735   0.69654   0.29234   0.00000  Uiso   1.00
H671   H     0.76573   0.71854   0.32921   0.00000  Uiso   1.00
H672   H     0.72812   0.67286   0.33664   0.00000  Uiso   1.00
H673   H     0.86363   0.90003   0.06105   0.00000  Uiso   1.00
H674   H     0.88668   0.89365   0.10038   0.00000  Uiso   1.00
H675   H     0.84205   0.92380   0.11001   0.00000  Uiso   1.00
H676   H     0.85040   0.71054   0.11483   0.00000  Uiso   1.00
H677   H     0.72715   0.90242   0.47840   0.00000  Uiso   1.00
H678   H     0.87425   0.73098   0.15459   0.00000  Uiso   1.00
H679   H     0.89741   0.69059   0.11851   0.00000  Uiso   1.00
H680   H     0.90835   0.75483   0.46320   0.00000  Uiso   1.00
H681   H     0.74767   0.89686   0.40669   0.00000  Uiso   1.00
H682   H     0.87470   0.78928   0.42850   0.00000  Uiso   1.00
H683   H     0.85275   0.82898   0.40066   0.00000  Uiso   1.00
H684   H     0.77164   0.84978   0.07320   0.00000  Uiso   1.00
H685   H     0.87629   0.69335   0.00144   0.00000  Uiso   1.00
H686   H     0.88599   0.68140   0.04613   0.00000  Uiso   1.00
H687   H     0.92390   0.67057   0.49941   0.00000  Uiso   1.00
H688   H     0.68309   0.85400   0.21302   0.00000  Uiso   1.00
H689   H     0.68622   0.79828   0.32869   0.00000  Uiso   1.00
O690   O     0.83333   0.83333   0.25000   0.00000  Uiso   1.00
O691   O     0.82360   0.79060   0.16625   0.00000  Uiso   1.00
O692   O     0.79354   0.87313   0.33749   0.00000  Uiso   1.00
O693   O     0.87755   0.84159   0.15877   0.00000  Uiso   1.00
O694   O     0.83865   0.82802   0.33749   0.00000  Uiso   1.00
O695   O     0.92452   0.73256   0.02076   0.00000  Uiso   1.00
O696   O     0.97766   0.81116   0.29859   0.00000  Uiso   1.00
O697   O     0.78607   0.99654   0.29617   0.00000  Uiso   1.00
O698   O     0.82649   0.86044   0.10225   0.00000  Uiso   1.00
O699   O     0.91004   0.74939   0.10064   0.00000  Uiso   1.00
O700   O     0.84515   0.74768   0.27821   0.00000  Uiso   1.00
O701   O     0.81247   0.92803   0.26767   0.00000  Uiso   1.00
O702   O     0.74119   0.79917   0.23607   0.00000  Uiso   1.00
O703   O     0.93452   0.85845   0.21806   0.00000  Uiso   1.00
O704   O     0.73656   0.85627   0.27820   0.00000  Uiso   1.00
O705   O     0.92106   0.81944   0.26768   0.00000  Uiso   1.00
O706   O     0.80467   0.73570   0.23607   0.00000  Uiso   1.00
O707   O     0.87104   0.92193   0.21806   0.00000  Uiso   1.00
Zn708  Zn    0.85910   0.80756   0.28278   0.00000  Uiso   1.00
Zn709  Zn    0.80125   0.79044   0.22258   0.00000  Uiso   1.00
Zn710  Zn    0.87833   0.86331   0.21188   0.00000  Uiso   1.00
Zn711  Zn    0.79465   0.87202   0.28277   0.00000  Uiso   1.00
C712   C     0.05278   0.16043   0.75846   0.00000  Uiso   1.00
C713   C     0.19917   0.13035   0.95987   0.00000  Uiso   1.00
C714   C     0.21875   0.10958   0.98007   0.00000  Uiso   1.00
C715   C     0.28089   0.17336   0.74147   0.00000  Uiso   1.00
C716   C     0.20955   0.11651   0.52093   0.00000  Uiso   1.00
C717   C     0.18058   0.14606   0.54191   0.00000  Uiso   1.00
C718   C     0.22930   0.09447   0.54104   0.00000  Uiso   1.00
C719   C     0.22180   0.10302   0.58180   0.00000  Uiso   1.00
C720   C     0.17840   0.15841   0.58204   0.00000  Uiso   1.00
C721   C     0.32661   0.17399   0.73795   0.00000  Uiso   1.00
C722   C     0.00680   0.15750   0.76418   0.00000  Uiso   1.00
C723   C     0.09961   0.21613   0.92112   0.00000  Uiso   1.00
C724   C     0.17856   0.32193   0.73860   0.00000  Uiso   1.00
C725   C     0.15015   0.01261   0.76400   0.00000  Uiso   1.00
C726   C     0.15636   0.05633   0.75866   0.00000  Uiso   1.00
C727   C     0.17647   0.27762   0.74160   0.00000  Uiso   1.00
C728   C     0.18840   0.14491   0.64425   0.00000  Uiso   1.00
C729   C     0.14547   0.18780   0.85614   0.00000  Uiso   1.00
C730   C     0.13454   0.19442   0.89922   0.00000  Uiso   1.00
C731   C     0.19690   0.13546   0.60191   0.00000  Uiso   1.00
C732   C     0.08779   0.21907   0.96197   0.00000  Uiso   1.00
C733   C     0.23452   0.02635   0.51705   0.00000  Uiso   1.00
C734   C     0.15808   0.17664   0.91857   0.00000  Uiso   1.00
C735   C     0.32741   0.11577   0.81511   0.00000  Uiso   1.00
C736   C     0.08646   0.02274   0.81404   0.00000  Uiso   1.00
C737   C     0.18971   0.22901   0.59267   0.00000  Uiso   1.00
C738   C     0.21464   0.05276   0.62290   0.00000  Uiso   1.00
C739   C     0.14585   0.17776   0.95975   0.00000  Uiso   1.00
C740   C     0.11034   0.19984   0.98141   0.00000  Uiso   1.00
C741   C     0.16762   0.15744   0.97993   0.00000  Uiso   1.00
C742   C     0.15618   0.16306   0.52170   0.00000  Uiso   1.00
C743   C     0.11903   0.18312   0.54197   0.00000  Uiso   1.00
C744   C     0.09690   0.20155   0.52218   0.00000  Uiso   1.00
H745   H     0.06875   0.21687   0.53893   0.00000  Uiso   1.00
H746   H     0.00629   0.08942   0.79298   0.00000  Uiso   1.00
H747   H     0.30089   0.10243   0.83878   0.00000  Uiso   1.00
H748   H     0.20366   0.00191   0.71483   0.00000  Uiso   1.00
H749   H     0.07069   0.02988   0.79234   0.00000  Uiso   1.00
H750   H     0.09907   0.05187   0.82921   0.00000  Uiso   1.00
H751   H     0.06145   0.00619   0.83664   0.00000  Uiso   1.00
H752   H     0.19696   0.23336   0.56105   0.00000  Uiso   1.00
H753   H     0.22001   0.22699   0.60038   0.00000  Uiso   1.00
H754   H     0.17539   0.25713   0.61001   0.00000  Uiso   1.00
H755   H     0.18374   0.04388   0.61483   0.00000  Uiso   1.00
H756   H     0.06048   0.23576   0.97840   0.00000  Uiso   1.00
H757   H     0.20758   0.06431   0.65459   0.00000  Uiso   1.00
H758   H     0.23075   0.02392   0.61851   0.00000  Uiso   1.00
H759   H     0.24168   0.08817   0.96320   0.00000  Uiso   1.00
H760   H     0.08100   0.23020   0.90669   0.00000  Uiso   1.00
H761   H     0.20803   0.12261   0.92850   0.00000  Uiso   1.00
H762   H     0.18609   0.16231   0.90066   0.00000  Uiso   1.00
H763   H     0.10498   0.18311   0.57320   0.00000  Uiso   1.00
H764   H     0.20962   0.02668   0.50144   0.00000  Uiso   1.00
H765   H     0.21933   0.01473   0.54613   0.00000  Uiso   1.00
H766   H     0.25723   0.00390   0.99941   0.00000  Uiso   1.00
H767   H     0.01642   0.18734   0.71302   0.00000  Uiso   1.00
H768   H     0.01955   0.13161   0.82869   0.00000  Uiso   1.00
O769   O     0.16667   0.16667   0.75000   0.00000  Uiso   1.00
O770   O     0.15693   0.12393   0.66625   0.00000  Uiso   1.00
O771   O     0.12687   0.20646   0.83749   0.00000  Uiso   1.00
O772   O     0.21088   0.17493   0.65877   0.00000  Uiso   1.00
O773   O     0.17198   0.16135   0.83749   0.00000  Uiso   1.00
O774   O     0.25785   0.06590   0.52076   0.00000  Uiso   1.00
O775   O     0.31099   0.14449   0.79859   0.00000  Uiso   1.00
O776   O     0.11940   0.32987   0.79617   0.00000  Uiso   1.00
O777   O     0.15982   0.19377   0.60225   0.00000  Uiso   1.00
O778   O     0.24337   0.08273   0.60064   0.00000  Uiso   1.00
O779   O     0.17849   0.08101   0.77821   0.00000  Uiso   1.00
O780   O     0.14581   0.26136   0.76767   0.00000  Uiso   1.00
O781   O     0.07452   0.13251   0.73607   0.00000  Uiso   1.00
O782   O     0.26785   0.19179   0.71806   0.00000  Uiso   1.00
O783   O     0.06990   0.18960   0.77820   0.00000  Uiso   1.00
O784   O     0.25440   0.15277   0.76768   0.00000  Uiso   1.00
O785   O     0.13800   0.06903   0.73607   0.00000  Uiso   1.00
O786   O     0.20437   0.25527   0.71806   0.00000  Uiso   1.00
Zn787  Zn    0.19244   0.14090   0.78278   0.00000  Uiso   1.00
Zn788  Zn    0.13459   0.12378   0.72258   0.00000  Uiso   1.00
Zn789  Zn    0.21166   0.19664   0.71188   0.00000  Uiso   1.00
Zn790  Zn    0.12798   0.20535   0.78277   0.00000  Uiso   1.00
C791   C     0.38611   0.16043   0.75846   0.00000  Uiso   1.00
C792   C     0.53250   0.13035   0.95987   0.00000  Uiso   1.00
C793   C     0.55208   0.10958   0.98007   0.00000  Uiso   1.00
C794   C     0.61422   0.17336   0.74147   0.00000  Uiso   1.00
C795   C     0.54288   0.11651   0.52093   0.00000  Uiso   1.00
C796   C     0.51391   0.14606   0.54191   0.00000  Uiso   1.00
C797   C     0.56263   0.09447   0.54104   0.00000  Uiso   1.00
C798   C     0.55513   0.10302   0.58180   0.00000  Uiso   1.00
C799   C     0.51174   0.15841   0.58204   0.00000  Uiso   1.00
C800   C     0.65995   0.17399   0.73795   0.00000  Uiso   1.00
C801   C     0.34014   0.15750   0.76418   0.00000  Uiso   1.00
C802   C     0.43295   0.21613   0.92112   0.00000  Uiso   1.00
C803   C     0.51189   0.32193   0.73860   0.00000  Uiso   1.00
C804   C     0.48348   0.01261   0.76400   0.00000  Uiso   1.00
C805   C     0.48970   0.05633   0.75866   0.00000  Uiso   1.00
C806   C     0.50980   0.27762   0.74160   0.00000  Uiso   1.00
C807   C     0.52174   0.14491   0.64425   0.00000  Uiso   1.00
C808   C     0.47881   0.18780   0.85614   0.00000  Uiso   1.00
C809   C     0.46787   0.19442   0.89922   0.00000  Uiso   1.00
C810   C     0.53023   0.13546   0.60191   0.00000  Uiso   1.00
C811   C     0.42113   0.21907   0.96197   0.00000  Uiso   1.00
C812   C     0.56785   0.02635   0.51705   0.00000  Uiso   1.00
C813   C     0.49142   0.17664   0.91857   0.00000  Uiso   1.00
C814   C     0.66074   0.11577   0.81511   0.00000  Uiso   1.00
C815   C     0.41980   0.02274   0.81404   0.00000  Uiso   1.00
C816   C     0.52304   0.22901   0.59267   0.00000  Uiso   1.00
C817   C     0.54797   0.05276   0.62290   0.00000  Uiso   1.00
C818   C     0.47918   0.17776   0.95975   0.00000  Uiso   1.00
C819   C     0.44367   0.19984   0.98141   0.00000  Uiso   1.00
C820   C     0.50096   0.15744   0.97993   0.00000  Uiso   1.00
C821   C     0.48951   0.16306   0.52170   0.00000  Uiso   1.00
C822   C     0.45237   0.18312   0.54197   0.00000  Uiso   1.00
C823   C     0.43024   0.20155   0.52218   0.00000  Uiso   1.00
H824   H     0.40208   0.21687   0.53893   0.00000  Uiso   1.00
H825   H     0.33963   0.08942   0.79298   0.00000  Uiso   1.00
H826   H     0.63422   0.10243   0.83878   0.00000  Uiso   1.00
H827   H     0.53699   0.00191   0.71483   0.00000  Uiso   1.00
H828   H     0.40402   0.02988   0.79234   0.00000  Uiso   1.00
H829   H     0.43240   0.05187   0.82921   0.00000  Uiso   1.00
H830   H     0.39479   0.00619   0.83664   0.00000  Uiso   1.00
H831   H     0.53030   0.23336   0.56105   0.00000  Uiso   1.00
H832   H     0.55334   0.22699   0.60038   0.00000  Uiso   1.00
H833   H     0.50872   0.25713   0.61001   0.00000  Uiso   1.00
H834   H     0.51707   0.04388   0.61483   0.00000  Uiso   1.00
H835   H     0.39382   0.23576   0.97840   0.00000  Uiso   1.00
H836   H     0.54091   0.06431   0.65459   0.00000  Uiso   1.00
H837   H     0.56408   0.02392   0.61851   0.00000  Uiso   1.00
H838   H     0.57501   0.08817   0.96320   0.00000  Uiso   1.00
H839   H     0.41434   0.23020   0.90669   0.00000  Uiso   1.00
H840   H     0.54137   0.12261   0.92850   0.00000  Uiso   1.00
H841   H     0.51942   0.16231   0.90066   0.00000  Uiso   1.00
H842   H     0.43831   0.18311   0.57320   0.00000  Uiso   1.00
H843   H     0.54296   0.02668   0.50144   0.00000  Uiso   1.00
H844   H     0.55266   0.01473   0.54613   0.00000  Uiso   1.00
H845   H     0.59056   0.00390   0.99941   0.00000  Uiso   1.00
H846   H     0.34975   0.18734   0.71302   0.00000  Uiso   1.00
H847   H     0.35289   0.13161   0.82869   0.00000  Uiso   1.00
O848   O     0.50000   0.16667   0.75000   0.00000  Uiso   1.00
O849   O     0.49027   0.12393   0.66625   0.00000  Uiso   1.00
O850   O     0.46020   0.20646   0.83749   0.00000  Uiso   1.00
O851   O     0.54421   0.17493   0.65877   0.00000  Uiso   1.00
O852   O     0.50532   0.16135   0.83749   0.00000  Uiso   1.00
O853   O     0.59119   0.06590   0.52076   0.00000  Uiso   1.00
O854   O     0.64432   0.14449   0.79859   0.00000  Uiso   1.00
O855   O     0.45274   0.32987   0.79617   0.00000  Uiso   1.00
O856   O     0.49315   0.19377   0.60225   0.00000  Uiso   1.00
O857   O     0.57671   0.08273   0.60064   0.00000  Uiso   1.00
O858   O     0.51182   0.08101   0.77821   0.00000  Uiso   1.00
O859   O     0.47914   0.26136   0.76767   0.00000  Uiso   1.00
O860   O     0.40785   0.13251   0.73607   0.00000  Uiso   1.00
O861   O     0.60119   0.19179   0.71806   0.00000  Uiso   1.00
O862   O     0.40323   0.18960   0.77820   0.00000  Uiso   1.00
O863   O     0.58773   0.15277   0.76768   0.00000  Uiso   1.00
O864   O     0.47133   0.06903   0.73607   0.00000  Uiso   1.00
O865   O     0.53771   0.25527   0.71806   0.00000  Uiso   1.00
Zn866  Zn    0.52577   0.14090   0.78278   0.00000  Uiso   1.00
Zn867  Zn    0.46792   0.12378   0.72258   0.00000  Uiso   1.00
Zn868  Zn    0.54500   0.19664   0.71188   0.00000  Uiso   1.00
Zn869  Zn    0.46131   0.20535   0.78277   0.00000  Uiso   1.00
C870   C     0.71945   0.16043   0.75846   0.00000  Uiso   1.00
C871   C     0.86583   0.13035   0.95987   0.00000  Uiso   1.00
C872   C     0.88541   0.10958   0.98007   0.00000  Uiso   1.00
C873   C     0.94756   0.17336   0.74147   0.00000  Uiso   1.00
C874   C     0.87621   0.11651   0.52093   0.00000  Uiso   1.00
C875   C     0.84725   0.14606   0.54191   0.00000  Uiso   1.00
C876   C     0.89597   0.09447   0.54104   0.00000  Uiso   1.00
C877   C     0.88847   0.10302   0.58180   0.00000  Uiso   1.00
C878   C     0.84507   0.15841   0.58204   0.00000  Uiso   1.00
C879   C     0.99328   0.17399   0.73795   0.00000  Uiso   1.00
C880   C     0.67347   0.15750   0.76418   0.00000  Uiso   1.00
C881   C     0.76628   0.21613   0.92112   0.00000  Uiso   1.00
C882   C     0.84523   0.32193   0.73860   0.00000  Uiso   1.00
C883   C     0.81682   0.01261   0.76400   0.00000  Uiso   1.00
C884   C     0.82303   0.05633   0.75866   0.00000  Uiso   1.00
C885   C     0.84313   0.27762   0.74160   0.00000  Uiso   1.00
C886   C     0.85507   0.14491   0.64425   0.00000  Uiso   1.00
C887   C     0.81214   0.18780   0.85614   0.00000  Uiso   1.00
C888   C     0.80120   0.19442   0.89922   0.00000  Uiso   1.00
C889   C     0.86356   0.13546   0.60191   0.00000  Uiso   1.00
C890   C     0.75446   0.21907   0.96197   0.00000  Uiso   1.00
C891   C     0.90118   0.02635   0.51705   0.00000  Uiso   1.00
C892   C     0.82475   0.17664   0.91857   0.00000  Uiso   1.00
C893   C     0.99408   0.11577   0.81511   0.00000  Uiso   1.00
C894   C     0.75313   0.02274   0.81404   0.00000  Uiso   1.00
C895   C     0.85637   0.22901   0.59267   0.00000  Uiso   1.00
C896   C     0.88130   0.05276   0.62290   0.00000  Uiso   1.00
C897   C     0.81251   0.17776   0.95975   0.00000  Uiso   1.00
C898   C     0.77701   0.19984   0.98141   0.00000  Uiso   1.00
C899   C     0.83429   0.15744   0.97993   0.00000  Uiso   1.00
C900   C     0.82284   0.16306   0.52170   0.00000  Uiso   1.00
C901   C     0.78570   0.18312   0.54197   0.00000  Uiso   1.00
C902   C     0.76357   0.20155   0.52218   0.00000  Uiso   1.00
H903   H     0.73541   0.21687   0.53893   0.00000  Uiso   1.00
H904   H     0.67296   0.08942   0.79298   0.00000  Uiso   1.00
H905   H     0.96756   0.10243   0.83878   0.00000  Uiso   1.00
H906   H     0.87032   0.00191   0.71483   0.00000  Uiso   1.00
H907   H     0.73735   0.02988   0.79234   0.00000  Uiso   1.00
H908   H     0.76573   0.05187   0.82921   0.00000  Uiso   1.00
H909   H     0.72812   0.00619   0.83664   0.00000  Uiso   1.00
H910   H     0.86363   0.23336   0.56105   0.00000  Uiso   1.00
H911   H     0.88668   0.22699   0.60038   0.00000  Uiso   1.00
H912   H     0.84205   0.25713   0.61001   0.00000  Uiso   1.00
H913   H     0.85040   0.04388   0.61483   0.00000  Uiso   1.00
H914   H     0.72715   0.23576   0.97840   0.00000  Uiso   1.00
H915   H     0.87425   0.06431   0.65459   0.00000  Uiso   1.00
H916   H     0.89741   0.02392   0.61851   0.00000  Uiso   1.00
H917   H     0.90835   0.08817   0.96320   0.00000  Uiso   1.00
H918   H     0.74767   0.23020   0.90669   0.00000  Uiso   1.00
H919   H     0.87470   0.12261   0.92850   0.00000  Uiso   1.00
H920   H     0.85275   0.16231   0.90066   0.00000  Uiso   1.00
H921   H     0.77164   0.18311   0.57320   0.00000  Uiso   1.00
H922   H     0.87629   0.02668   0.50144   0.00000  Uiso   1.00
H923   H     0.88599   0.01473   0.54613   0.00000  Uiso   1.00
H924   H     0.92390   0.00390   0.99941   0.00000  Uiso   1.00
H925   H     0.68309   0.18734   0.71302   0.00000  Uiso   1.00
H926   H     0.68622   0.13161   0.82869   0.00000  Uiso   1.00
O927   O     0.83333   0.16667   0.75000   0.00000  Uiso   1.00
O928   O     0.82360   0.12393   0.66625   0.00000  Uiso   1.00
O929   O     0.79354   0.20646   0.83749   0.00000  Uiso   1.00
O930   O     0.87755   0.17493   0.65877   0.00000  Uiso   1.00
O931   O     0.83865   0.16135   0.83749   0.00000  Uiso   1.00
O932   O     0.92452   0.06590   0.52076   0.00000  Uiso   1.00
O933   O     0.97766   0.14449   0.79859   0.00000  Uiso   1.00
O934   O     0.78607   0.32987   0.79617   0.00000  Uiso   1.00
O935   O     0.82649   0.19377   0.60225   0.00000  Uiso   1.00
O936   O     0.91004   0.08273   0.60064   0.00000  Uiso   1.00
O937   O     0.84515   0.08101   0.77821   0.00000  Uiso   1.00
O938   O     0.81247   0.26136   0.76767   0.00000  Uiso   1.00
O939   O     0.74119   0.13251   0.73607   0.00000  Uiso   1.00
O940   O     0.93452   0.19179   0.71806   0.00000  Uiso   1.00
O941   O     0.73656   0.18960   0.77820   0.00000  Uiso   1.00
O942   O     0.92106   0.15277   0.76768   0.00000  Uiso   1.00
O943   O     0.80467   0.06903   0.73607   0.00000  Uiso   1.00
O944   O     0.87104   0.25527   0.71806   0.00000  Uiso   1.00
Zn945  Zn    0.85910   0.14090   0.78278   0.00000  Uiso   1.00
Zn946  Zn    0.80125   0.12378   0.72258   0.00000  Uiso   1.00
Zn947  Zn    0.87833   0.19664   0.71188   0.00000  Uiso   1.00
Zn948  Zn    0.79465   0.20535   0.78277   0.00000  Uiso   1.00
C949   C     0.05278   0.49376   0.75846   0.00000  Uiso   1.00
C950   C     0.19917   0.46369   0.95987   0.00000  Uiso   1.00
C951   C     0.21875   0.44291   0.98007   0.00000  Uiso   1.00
C952   C     0.28089   0.50670   0.74147   0.00000  Uiso   1.00
C953   C     0.20955   0.44984   0.52093   0.00000  Uiso   1.00
C954   C     0.18058   0.47939   0.54191   0.00000  Uiso   1.00
C955   C     0.22930   0.42780   0.54104   0.00000  Uiso   1.00
C956   C     0.22180   0.43636   0.58180   0.00000  Uiso   1.00
C957   C     0.17840   0.49175   0.58204   0.00000  Uiso   1.00
C958   C     0.32661   0.50732   0.73795   0.00000  Uiso   1.00
C959   C     0.00680   0.49083   0.76418   0.00000  Uiso   1.00
C960   C     0.09961   0.54946   0.92112   0.00000  Uiso   1.00
C961   C     0.17856   0.65526   0.73860   0.00000  Uiso   1.00
C962   C     0.15015   0.34594   0.76400   0.00000  Uiso   1.00
C963   C     0.15636   0.38966   0.75866   0.00000  Uiso   1.00
C964   C     0.17647   0.61096   0.74160   0.00000  Uiso   1.00
C965   C     0.18840   0.47824   0.64425   0.00000  Uiso   1.00
C966   C     0.14547   0.52113   0.85614   0.00000  Uiso   1.00
C967   C     0.13454   0.52776   0.89922   0.00000  Uiso   1.00
C968   C     0.19690   0.46880   0.60191   0.00000  Uiso   1.00
C969   C     0.08779   0.55240   0.96197   0.00000  Uiso   1.00
C970   C     0.23452   0.35969   0.51705   0.00000  Uiso   1.00
C971   C     0.15808   0.50997   0.91857   0.00000  Uiso   1.00
C972   C     0.32741   0.44911   0.81511   0.00000  Uiso   1.00
C973   C     0.08646   0.35608   0.81404   0.00000  Uiso   1.00
C974   C     0.18971   0.56234   0.59267   0.00000  Uiso   1.00
C975   C     0.21464   0.38609   0.62290   0.00000  Uiso   1.00
C976   C     0.14585   0.51110   0.95975   0.00000  Uiso   1.00
C977   C     0.11034   0.53317   0.98141   0.00000  Uiso   1.00
C978   C     0.16762   0.49078   0.97993   0.00000  Uiso   1.00
C979   C     0.15618   0.49639   0.52170   0.00000  Uiso   1.00
C980   C     0.11903   0.51645   0.54197   0.00000  Uiso   1.00
C981   C     0.09690   0.53488   0.52218   0.00000  Uiso   1.00
H982   H     0.06875   0.55021   0.53893   0.00000  Uiso   1.00
H983   H     0.00629   0.42276   0.79298   0.00000  Uiso   1.00
H984   H     0.30089   0.43577   0.83878   0.00000  Uiso   1.00
H985   H     0.20366   0.33524   0.71483   0.00000  Uiso   1.00
H986   H     0.07069   0.36321   0.79234   0.00000  Uiso   1.00
H987   H     0.09907   0.38520   0.82921   0.00000  Uiso   1.00
H988   H     0.06145   0.33953   0.83664   0.00000  Uiso   1.00
H989   H     0.19696   0.56669   0.56105   0.00000  Uiso   1.00
H990   H     0.22001   0.56032   0.60038   0.00000  Uiso   1.00
H991   H     0.17539   0.59046   0.61001   0.00000  Uiso   1.00
H992   H     0.18374   0.37721   0.61483   0.00000  Uiso   1.00
H993   H     0.06048   0.56909   0.97840   0.00000  Uiso   1.00
H994   H     0.20758   0.39764   0.65459   0.00000  Uiso   1.00
H995   H     0.23075   0.35726   0.61851   0.00000  Uiso   1.00
H996   H     0.24168   0.42150   0.96320   0.00000  Uiso   1.00
H997   H     0.08100   0.56353   0.90669   0.00000  Uiso   1.00
H998   H     0.20803   0.45595   0.92850   0.00000  Uiso   1.00
H999   H     0.18609   0.49564   0.90066   0.00000  Uiso   1.00
H1000  H     0.10498   0.51644   0.57320   0.00000  Uiso   1.00
H1001  H     0.20962   0.36001   0.50144   0.00000  Uiso   1.00
H1002  H     0.21933   0.34807   0.54613   0.00000  Uiso   1.00
H1003  H     0.25723   0.33723   0.99941   0.00000  Uiso   1.00
H1004  H     0.01642   0.52067   0.71302   0.00000  Uiso   1.00
H1005  H     0.01955   0.46494   0.82869   0.00000  Uiso   1.00
O1006  O     0.16667   0.50000   0.75000   0.00000  Uiso   1.00
O1007  O     0.15693   0.45726   0.66625   0.00000  Uiso   1.00
O1008  O     0.12687   0.53979   0.83749   0.00000  Uiso   1.00
O1009  O     0.21088   0.50826   0.65877   0.00000  Uiso   1.00
O1010  O     0.17198   0.49468   0.83749   0.00000  Uiso   1.00
O1011  O     0.25785   0.39923   0.52076   0.00000  Uiso   1.00
O1012  O     0.31099   0.47782   0.79859   0.00000  Uiso   1.00
O1013  O     0.11940   0.66320   0.79617   0.00000  Uiso   1.00
O1014  O     0.15982   0.52710   0.60225   0.00000  Uiso   1.00
O1015  O     0.24337   0.41606   0.60064   0.00000  Uiso   1.00
O1016  O     0.17849   0.41434   0.77821   0.00000  Uiso   1.00
O1017  O     0.14581   0.59469   0.76767   0.00000  Uiso   1.00
O1018  O     0.07452   0.46584   0.73607   0.00000  Uiso   1.00
O1019  O     0.26785   0.52512   0.71806   0.00000  Uiso   1.00
O1020  O     0.06990   0.52293   0.77820   0.00000  Uiso   1.00
O1021  O     0.25440   0.48610   0.76768   0.00000  Uiso   1.00
O1022  O     0.13800   0.40236   0.73607   0.00000  Uiso   1.00
O1023  O     0.20437   0.58860   0.71806   0.00000  Uiso   1.00
Zn1024 Zn    0.19244   0.47423   0.78278   0.00000  Uiso   1.00
Zn1025 Zn    0.13459   0.45711   0.72258   0.00000  Uiso   1.00
Zn1026 Zn    0.21166   0.52997   0.71188   0.00000  Uiso   1.00
Zn1027 Zn    0.12798   0.53868   0.78277   0.00000  Uiso   1.00
C1028  C     0.38611   0.49376   0.75846   0.00000  Uiso   1.00
C1029  C     0.53250   0.46369   0.95987   0.00000  Uiso   1.00
C1030  C     0.55208   0.44291   0.98007   0.00000  Uiso   1.00
C1031  C     0.61422   0.50670   0.74147   0.00000  Uiso   1.00
C1032  C     0.54288   0.44984   0.52093   0.00000  Uiso   1.00
C1033  C     0.51391   0.47939   0.54191   0.00000  Uiso   1.00
C1034  C     0.56263   0.42780   0.54104   0.00000  Uiso   1.00
C1035  C     0.55513   0.43636   0.58180   0.00000  Uiso   1.00
C1036  C     0.51174   0.49175   0.58204   0.00000  Uiso   1.00
C1037  C     0.65995   0.50732   0.73795   0.00000  Uiso   1.00
C1038  C     0.34014   0.49083   0.76418   0.00000  Uiso   1.00
C1039  C     0.43295   0.54946   0.92112   0.00000  Uiso   1.00
C1040  C     0.51189   0.65526   0.73860   0.00000  Uiso   1.00
C1041  C     0.48348   0.34594   0.76400   0.00000  Uiso   1.00
C1042  C     0.48970   0.38966   0.75866   0.00000  Uiso   1.00
C1043  C     0.50980   0.61096   0.74160   0.00000  Uiso   1.00
C1044  C     0.52174   0.47824   0.64425   0.00000  Uiso   1.00
C1045  C     0.47881   0.52113   0.85614   0.00000  Uiso   1.00
C1046  C     0.46787   0.52776   0.89922   0.00000  Uiso   1.00
C1047  C     0.53023   0.46880   0.60191   0.00000  Uiso   1.00
C1048  C     0.42113   0.55240   0.96197   0.00000  Uiso   1.00
C1049  C     0.56785   0.35969   0.51705   0.00000  Uiso   1.00
C1050  C     0.49142   0.50997   0.91857   0.00000  Uiso   1.00
C1051  C     0.66074   0.44911   0.81511   0.00000  Uiso   1.00
C1052  C     0.41980   0.35608   0.81404   0.00000  Uiso   1.00
C1053  C     0.52304   0.56234   0.59267   0.00000  Uiso   1.00
C1054  C     0.54797   0.38609   0.62290   0.00000  Uiso   1.00
C1055  C     0.47918   0.51110   0.95975   0.00000  Uiso   1.00
C1056  C     0.44367   0.53317   0.98141   0.00000  Uiso   1.00
C1057  C     0.50096   0.49078   0.97993   0.00000  Uiso   1.00
C1058  C     0.48951   0.49639   0.52170   0.00000  Uiso   1.00
C1059  C     0.45237   0.51645   0.54197   0.00000  Uiso   1.00
C1060  C     0.43024   0.53488   0.52218   0.00000  Uiso   1.00
H1061  H     0.40208   0.55021   0.53893   0.00000  Uiso   1.00
H1062  H     0.33963   0.42276   0.79298   0.00000  Uiso   1.00
H1063  H     0.63422   0.43577   0.83878   0.00000  Uiso   1.00
H1064  H     0.53699   0.33524   0.71483   0.00000  Uiso   1.00
H1065  H     0.40402   0.36321   0.79234   0.00000  Uiso   1.00
H1066  H     0.43240   0.38520   0.82921   0.00000  Uiso   1.00
H1067  H     0.39479   0.33953   0.83664   0.00000  Uiso   1.00
H1068  H     0.53030   0.56669   0.56105   0.00000  Uiso   1.00
H1069  H     0.55334   0.56032   0.60038   0.00000  Uiso   1.00
H1070  H     0.50872   0.59046   0.61001   0.00000  Uiso   1.00
H1071  H     0.51707   0.37721   0.61483   0.00000  Uiso   1.00
H1072  H     0.39382   0.56909   0.97840   0.00000  Uiso   1.00
H1073  H     0.54091   0.39764   0.65459   0.00000  Uiso   1.00
H1074  H     0.56408   0.35726   0.61851   0.00000  Uiso   1.00
H1075  H     0.57501   0.42150   0.96320   0.00000  Uiso   1.00
H1076  H     0.41434   0.56353   0.90669   0.00000  Uiso   1.00
H1077  H     0.54137   0.45595   0.92850   0.00000  Uiso   1.00
H1078  H     0.51942   0.49564   0.90066   0.00000  Uiso   1.00
H1079  H     0.43831   0.51644   0.57320   0.00000  Uiso   1.00
H1080  H     0.54296   0.36001   0.50144   0.00000  Uiso   1.00
H1081  H     0.55266   0.34807   0.54613   0.00000  Uiso   1.00
H1082  H     0.59056   0.33723   0.99941   0.00000  Uiso   1.00
H1083  H     0.34975   0.52067   0.71302   0.00000  Uiso   1.00
H1084  H     0.35289   0.46494   0.82869   0.00000  Uiso   1.00
O1085  O     0.50000   0.50000   0.75000   0.00000  Uiso   1.00
O1086  O     0.49027   0.45726   0.66625   0.00000  Uiso   1.00
O1087  O     0.46020   0.53979   0.83749   0.00000  Uiso   1.00
O1088  O     0.54421   0.50826   0.65877   0.00000  Uiso   1.00
O1089  O     0.50532   0.49468   0.83749   0.00000  Uiso   1.00
O1090  O     0.59119   0.39923   0.52076   0.00000  Uiso   1.00
O1091  O     0.64432   0.47782   0.79859   0.00000  Uiso   1.00
O1092  O     0.45274   0.66320   0.79617   0.00000  Uiso   1.00
O1093  O     0.49315   0.52710   0.60225   0.00000  Uiso   1.00
O1094  O     0.57671   0.41606   0.60064   0.00000  Uiso   1.00
O1095  O     0.51182   0.41434   0.77821   0.00000  Uiso   1.00
O1096  O     0.47914   0.59469   0.76767   0.00000  Uiso   1.00
O1097  O     0.40785   0.46584   0.73607   0.00000  Uiso   1.00
O1098  O     0.60119   0.52512   0.71806   0.00000  Uiso   1.00
O1099  O     0.40323   0.52293   0.77820   0.00000  Uiso   1.00
O1100  O     0.58773   0.48610   0.76768   0.00000  Uiso   1.00
O1101  O     0.47133   0.40236   0.73607   0.00000  Uiso   1.00
O1102  O     0.53771   0.58860   0.71806   0.00000  Uiso   1.00
Zn1103 Zn    0.52577   0.47423   0.78278   0.00000  Uiso   1.00
Zn1104 Zn    0.46792   0.45711   0.72258   0.00000  Uiso   1.00
Zn1105 Zn    0.54500   0.52997   0.71188   0.00000  Uiso   1.00
Zn1106 Zn    0.46131   0.53868   0.78277   0.00000  Uiso   1.00
C1107  C     0.71945   0.49376   0.75846   0.00000  Uiso   1.00
C1108  C     0.86583   0.46369   0.95987   0.00000  Uiso   1.00
C1109  C     0.88541   0.44291   0.98007   0.00000  Uiso   1.00
C1110  C     0.94756   0.50670   0.74147   0.00000  Uiso   1.00
C1111  C     0.87621   0.44984   0.52093   0.00000  Uiso   1.00
C1112  C     0.84725   0.47939   0.54191   0.00000  Uiso   1.00
C1113  C     0.89597   0.42780   0.54104   0.00000  Uiso   1.00
C1114  C     0.88847   0.43636   0.58180   0.00000  Uiso   1.00
C1115  C     0.84507   0.49175   0.58204   0.00000  Uiso   1.00
C1116  C     0.99328   0.50732   0.73795   0.00000  Uiso   1.00
C1117  C     0.67347   0.49083   0.76418   0.00000  Uiso   1.00
C1118  C     0.76628   0.54946   0.92112   0.00000  Uiso   1.00
C1119  C     0.84523   0.65526   0.73860   0.00000  Uiso   1.00
C1120  C     0.81682   0.34594   0.76400   0.00000  Uiso   1.00
C1121  C     0.82303   0.38966   0.75866   0.00000  Uiso   1.00
C1122  C     0.84313   0.61096   0.74160   0.00000  Uiso   1.00
C1123  C     0.85507   0.47824   0.64425   0.00000  Uiso   1.00
C1124  C     0.81214   0.52113   0.85614   0.00000  Uiso   1.00
C1125  C     0.80120   0.52776   0.89922   0.00000  Uiso   1.00
C1126  C     0.86356   0.46880   0.60191   0.00000  Uiso   1.00
C1127  C     0.75446   0.55240   0.96197   0.00000  Uiso   1.00
C1128  C     0.90118   0.35969   0.51705   0.00000  Uiso   1.00
C1129  C     0.82475   0.50997   0.91857   0.00000  Uiso   1.00
C1130  C     0.99408   0.44911   0.81511   0.00000  Uiso   1.00
C1131  C     0.75313   0.35608   0.81404   0.00000  Uiso   1.00
C1132  C     0.85637   0.56234   0.59267   0.00000  Uiso   1.00
C1133  C     0.88130   0.38609   0.62290   0.00000  Uiso   1.00
C1134  C     0.81251   0.51110   0.95975   0.00000  Uiso   1.00
C1135  C     0.77701   0.53317   0.98141   0.00000  Uiso   1.00
C1136  C     0.83429   0.49078   0.97993   0.00000  Uiso   1.00
C1137  C     0.82284   0.49639   0.52170   0.00000  Uiso   1.00
C1138  C     0.78570   0.51645   0.54197   0.00000  Uiso   1.00
C1139  C     0.76357   0.53488   0.52218   0.00000  Uiso   1.00
H1140  H     0.73541   0.55021   0.53893   0.00000  Uiso   1.00
H1141  H     0.67296   0.42276   0.79298   0.00000  Uiso   1.00
H1142  H     0.96756   0.43577   0.83878   0.00000  Uiso   1.00
H1143  H     0.87032   0.33524   0.71483   0.00000  Uiso   1.00
H1144  H     0.73735   0.36321   0.79234   0.00000  Uiso   1.00
H1145  H     0.76573   0.38520   0.82921   0.00000  Uiso   1.00
H1146  H     0.72812   0.33953   0.83664   0.00000  Uiso   1.00
H1147  H     0.86363   0.56669   0.56105   0.00000  Uiso   1.00
H1148  H     0.88668   0.56032   0.60038   0.00000  Uiso   1.00
H1149  H     0.84205   0.59046   0.61001   0.00000  Uiso   1.00
H1150  H     0.85040   0.37721   0.61483   0.00000  Uiso   1.00
H1151  H     0.72715   0.56909   0.97840   0.00000  Uiso   1.00
H1152  H     0.87425   0.39764   0.65459   0.00000  Uiso   1.00
H1153  H     0.89741   0.35726   0.61851   0.00000  Uiso   1.00
H1154  H     0.90835   0.42150   0.96320   0.00000  Uiso   1.00
H1155  H     0.74767   0.56353   0.90669   0.00000  Uiso   1.00
H1156  H     0.87470   0.45595   0.92850   0.00000  Uiso   1.00
H1157  H     0.85275   0.49564   0.90066   0.00000  Uiso   1.00
H1158  H     0.77164   0.51644   0.57320   0.00000  Uiso   1.00
H1159  H     0.87629   0.36001   0.50144   0.00000  Uiso   1.00
H1160  H     0.88599   0.34807   0.54613   0.00000  Uiso   1.00
H1161  H     0.92390   0.33723   0.99941   0.00000  Uiso   1.00
H1162  H     0.68309   0.52067   0.71302   0.00000  Uiso   1.00
H1163  H     0.68622   0.46494   0.82869   0.00000  Uiso   1.00
O1164  O     0.83333   0.50000   0.75000   0.00000  Uiso   1.00
O1165  O     0.82360   0.45726   0.66625   0.00000  Uiso   1.00
O1166  O     0.79354   0.53979   0.83749   0.00000  Uiso   1.00
O1167  O     0.87755   0.50826   0.65877   0.00000  Uiso   1.00
O1168  O     0.83865   0.49468   0.83749   0.00000  Uiso   1.00
O1169  O     0.92452   0.39923   0.52076   0.00000  Uiso   1.00
O1170  O     0.97766   0.47782   0.79859   0.00000  Uiso   1.00
O1171  O     0.78607   0.66320   0.79617   0.00000  Uiso   1.00
O1172  O     0.82649   0.52710   0.60225   0.00000  Uiso   1.00
O1173  O     0.91004   0.41606   0.60064   0.00000  Uiso   1.00
O1174  O     0.84515   0.41434   0.77821   0.00000  Uiso   1.00
O1175  O     0.81247   0.59469   0.76767   0.00000  Uiso   1.00
O1176  O     0.74119   0.46584   0.73607   0.00000  Uiso   1.00
O1177  O     0.93452   0.52512   0.71806   0.00000  Uiso   1.00
O1178  O     0.73656   0.52293   0.77820   0.00000  Uiso   1.00
O1179  O     0.92106   0.48610   0.76768   0.00000  Uiso   1.00
O1180  O     0.80467   0.40236   0.73607   0.00000  Uiso   1.00
O1181  O     0.87104   0.58860   0.71806   0.00000  Uiso   1.00
Zn1182 Zn    0.85910   0.47423   0.78278   0.00000  Uiso   1.00
Zn1183 Zn    0.80125   0.45711   0.72258   0.00000  Uiso   1.00
Zn1184 Zn    0.87833   0.52997   0.71188   0.00000  Uiso   1.00
Zn1185 Zn    0.79465   0.53868   0.78277   0.00000  Uiso   1.00
C1186  C     0.05278   0.82710   0.75846   0.00000  Uiso   1.00
C1187  C     0.19917   0.79702   0.95987   0.00000  Uiso   1.00
C1188  C     0.21875   0.77625   0.98007   0.00000  Uiso   1.00
C1189  C     0.28089   0.84003   0.74147   0.00000  Uiso   1.00
C1190  C     0.20955   0.78318   0.52093   0.00000  Uiso   1.00
C1191  C     0.18058   0.81272   0.54191   0.00000  Uiso   1.00
C1192  C     0.22930   0.76113   0.54104   0.00000  Uiso   1.00
C1193  C     0.22180   0.76969   0.58180   0.00000  Uiso   1.00
C1194  C     0.17840   0.82508   0.58204   0.00000  Uiso   1.00
C1195  C     0.32661   0.84065   0.73795   0.00000  Uiso   1.00
C1196  C     0.00680   0.82417   0.76418   0.00000  Uiso   1.00
C1197  C     0.09961   0.88279   0.92112   0.00000  Uiso   1.00
C1198  C     0.17856   0.98859   0.73860   0.00000  Uiso   1.00
C1199  C     0.15015   0.67927   0.76400   0.00000  Uiso   1.00
C1200  C     0.15636   0.72300   0.75866   0.00000  Uiso   1.00
C1201  C     0.17647   0.94429   0.74160   0.00000  Uiso   1.00
C1202  C     0.18840   0.81158   0.64425   0.00000  Uiso   1.00
C1203  C     0.14547   0.85447   0.85614   0.00000  Uiso   1.00
C1204  C     0.13454   0.86109   0.89922   0.00000  Uiso   1.00
C1205  C     0.19690   0.80213   0.60191   0.00000  Uiso   1.00
C1206  C     0.08779   0.88574   0.96197   0.00000  Uiso   1.00
C1207  C     0.23452   0.69302   0.51705   0.00000  Uiso   1.00
C1208  C     0.15808   0.84330   0.91857   0.00000  Uiso   1.00
C1209  C     0.32741   0.78244   0.81511   0.00000  Uiso   1.00
C1210  C     0.08646   0.68941   0.81404   0.00000  Uiso   1.00
C1211  C     0.18971   0.89567   0.59267   0.00000  Uiso   1.00
C1212  C     0.21464   0.71942   0.62290   0.00000  Uiso   1.00
C1213  C     0.14585   0.84443   0.95975   0.00000  Uiso   1.00
C1214  C     0.11034   0.86650   0.98141   0.00000  Uiso   1.00
C1215  C     0.16762   0.82411   0.97993   0.00000  Uiso   1.00
C1216  C     0.15618   0.82973   0.52170   0.00000  Uiso   1.00
C1217  C     0.11903   0.84978   0.54197   0.00000  Uiso   1.00
C1218  C     0.09690   0.86821   0.52218   0.00000  Uiso   1.00
H1219  H     0.06875   0.88354   0.53893   0.00000  Uiso   1.00
H1220  H     0.00629   0.75609   0.79298   0.00000  Uiso   1.00
H1221  H     0.30089   0.76910   0.83878   0.00000  Uiso   1.00
H1222  H     0.20366   0.66857   0.71483   0.00000  Uiso   1.00
H1223  H     0.07069   0.69654   0.79234   0.00000  Uiso   1.00
H1224  H     0.09907   0.71854   0.82921   0.00000  Uiso   1.00
H1225  H     0.06145   0.67286   0.83664   0.00000  Uiso   1.00
H1226  H     0.19696   0.90003   0.56105   0.00000  Uiso   1.00
H1227  H     0.22001   0.89365   0.60038   0.00000  Uiso   1.00
H1228  H     0.17539   0.92380   0.61001   0.00000  Uiso   1.00
H1229  H     0.18374   0.71054   0.61483   0.00000  Uiso   1.00
H1230  H     0.06048   0.90242   0.97840   0.00000  Uiso   1.00
H1231  H     0.20758   0.73098   0.65459   0.00000  Uiso   1.00
H1232  H     0.23075   0.69059   0.61851   0.00000  Uiso   1.00
H1233  H     0.24168   0.75483   0.96320   0.00000  Uiso   1.00
H1234  H     0.08100   0.89686   0.90669   0.00000  Uiso   1.00
H1235  H     0.20803   0.78928   0.92850   0.00000  Uiso   1.00
H1236  H     0.18609   0.82898   0.90066   0.00000  Uiso   1.00
H1237  H     0.10498   0.84978   0.57320   0.00000  Uiso   1.00
H1238  H     0.20962   0.69335   0.50144   0.00000  Uiso   1.00
H1239  H     0.21933   0.68140   0.54613   0.00000  Uiso   1.00
H1240  H     0.25723   0.67057   0.99941   0.00000  Uiso   1.00
H1241  H     0.01642   0.85400   0.71302   0.00000  Uiso   1.00
H1242  H     0.01955   0.79828   0.82869   0.00000  Uiso   1.00
O1243  O     0.16667   0.83333   0.75000   0.00000  Uiso   1.00
O1244  O     0.15693   0.79060   0.66625   0.00000  Uiso   1.00
O1245  O     0.12687   0.87313   0.83749   0.00000  Uiso   1.00
O1246  O     0.21088   0.84159   0.65877   0.00000  Uiso   1.00
O1247  O     0.17198   0.82802   0.83749   0.00000  Uiso   1.00
O1248  O     0.25785   0.73256   0.52076   0.00000  Uiso   1.00
O1249  O     0.31099   0.81116   0.79859   0.00000  Uiso   1.00
O1250  O     0.11940   0.99654   0.79617   0.00000  Uiso   1.00
O1251  O     0.15982   0.86044   0.60225   0.00000  Uiso   1.00
O1252  O     0.24337   0.74939   0.60064   0.00000  Uiso   1.00
O1253  O     0.17849   0.74768   0.77821   0.00000  Uiso   1.00
O1254  O     0.14581   0.92803   0.76767   0.00000  Uiso   1.00
O1255  O     0.07452   0.79917   0.73607   0.00000  Uiso   1.00
O1256  O     0.26785   0.85845   0.71806   0.00000  Uiso   1.00
O1257  O     0.06990   0.85627   0.77820   0.00000  Uiso   1.00
O1258  O     0.25440   0.81944   0.76768   0.00000  Uiso   1.00
O1259  O     0.13800   0.73570   0.73607   0.00000  Uiso   1.00
O1260  O     0.20437   0.92193   0.71806   0.00000  Uiso   1.00
Zn1261 Zn    0.19244   0.80756   0.78278   0.00000  Uiso   1.00
Zn1262 Zn    0.13459   0.79044   0.72258   0.00000  Uiso   1.00
Zn1263 Zn    0.21166   0.86331   0.71188   0.00000  Uiso   1.00
Zn1264 Zn    0.12798   0.87202   0.78277   0.00000  Uiso   1.00
C1265  C     0.38611   0.82710   0.75846   0.00000  Uiso   1.00
C1266  C     0.53250   0.79702   0.95987   0.00000  Uiso   1.00
C1267  C     0.55208   0.77625   0.98007   0.00000  Uiso   1.00
C1268  C     0.61422   0.84003   0.74147   0.00000  Uiso   1.00
C1269  C     0.54288   0.78318   0.52093   0.00000  Uiso   1.00
C1270  C     0.51391   0.81272   0.54191   0.00000  Uiso   1.00
C1271  C     0.56263   0.76113   0.54104   0.00000  Uiso   1.00
C1272  C     0.55513   0.76969   0.58180   0.00000  Uiso   1.00
C1273  C     0.51174   0.82508   0.58204   0.00000  Uiso   1.00
C1274  C     0.65995   0.84065   0.73795   0.00000  Uiso   1.00
C1275  C     0.34014   0.82417   0.76418   0.00000  Uiso   1.00
C1276  C     0.43295   0.88279   0.92112   0.00000  Uiso   1.00
C1277  C     0.51189   0.98859   0.73860   0.00000  Uiso   1.00
C1278  C     0.48348   0.67927   0.76400   0.00000  Uiso   1.00
C1279  C     0.48970   0.72300   0.75866   0.00000  Uiso   1.00
C1280  C     0.50980   0.94429   0.74160   0.00000  Uiso   1.00
C1281  C     0.52174   0.81158   0.64425   0.00000  Uiso   1.00
C1282  C     0.47881   0.85447   0.85614   0.00000  Uiso   1.00
C1283  C     0.46787   0.86109   0.89922   0.00000  Uiso   1.00
C1284  C     0.53023   0.80213   0.60191   0.00000  Uiso   1.00
C1285  C     0.42113   0.88574   0.96197   0.00000  Uiso   1.00
C1286  C     0.56785   0.69302   0.51705   0.00000  Uiso   1.00
C1287  C     0.49142   0.84330   0.91857   0.00000  Uiso   1.00
C1288  C     0.66074   0.78244   0.81511   0.00000  Uiso   1.00
C1289  C     0.41980   0.68941   0.81404   0.00000  Uiso   1.00
C1290  C     0.52304   0.89567   0.59267   0.00000  Uiso   1.00
C1291  C     0.54797   0.71942   0.62290   0.00000  Uiso   1.00
C1292  C     0.47918   0.84443   0.95975   0.00000  Uiso   1.00
C1293  C     0.44367   0.86650   0.98141   0.00000  Uiso   1.00
C1294  C     0.50096   0.82411   0.97993   0.00000  Uiso   1.00
C1295  C     0.48951   0.82973   0.52170   0.00000  Uiso   1.00
C1296  C     0.45237   0.84978   0.54197   0.00000  Uiso   1.00
C1297  C     0.43024   0.86821   0.52218   0.00000  Uiso   1.00
H1298  H     0.40208   0.88354   0.53893   0.00000  Uiso   1.00
H1299  H     0.33963   0.75609   0.79298   0.00000  Uiso   1.00
H1300  H     0.63422   0.76910   0.83878   0.00000  Uiso   1.00
H1301  H     0.53699   0.66857   0.71483   0.00000  Uiso   1.00
H1302  H     0.40402   0.69654   0.79234   0.00000  Uiso   1.00
H1303  H     0.43240   0.71854   0.82921   0.00000  Uiso   1.00
H1304  H     0.39479   0.67286   0.83664   0.00000  Uiso   1.00
H1305  H     0.53030   0.90003   0.56105   0.00000  Uiso   1.00
H1306  H     0.55334   0.89365   0.60038   0.00000  Uiso   1.00
H1307  H     0.50872   0.92380   0.61001   0.00000  Uiso   1.00
H1308  H     0.51707   0.71054   0.61483   0.00000  Uiso   1.00
H1309  H     0.39382   0.90242   0.97840   0.00000  Uiso   1.00
H1310  H     0.54091   0.73098   0.65459   0.00000  Uiso   1.00
H1311  H     0.56408   0.69059   0.61851   0.00000  Uiso   1.00
H1312  H     0.57501   0.75483   0.96320   0.00000  Uiso   1.00
H1313  H     0.41434   0.89686   0.90669   0.00000  Uiso   1.00
H1314  H     0.54137   0.78928   0.92850   0.00000  Uiso   1.00
H1315  H     0.51942   0.82898   0.90066   0.00000  Uiso   1.00
H1316  H     0.43831   0.84978   0.57320   0.00000  Uiso   1.00
H1317  H     0.54296   0.69335   0.50144   0.00000  Uiso   1.00
H1318  H     0.55266   0.68140   0.54613   0.00000  Uiso   1.00
H1319  H     0.59056   0.67057   0.99941   0.00000  Uiso   1.00
H1320  H     0.34975   0.85400   0.71302   0.00000  Uiso   1.00
H1321  H     0.35289   0.79828   0.82869   0.00000  Uiso   1.00
O1322  O     0.50000   0.83333   0.75000   0.00000  Uiso   1.00
O1323  O     0.49027   0.79060   0.66625   0.00000  Uiso   1.00
O1324  O     0.46020   0.87313   0.83749   0.00000  Uiso   1.00
O1325  O     0.54421   0.84159   0.65877   0.00000  Uiso   1.00
O1326  O     0.50532   0.82802   0.83749   0.00000  Uiso   1.00
O1327  O     0.59119   0.73256   0.52076   0.00000  Uiso   1.00
O1328  O     0.64432   0.81116   0.79859   0.00000  Uiso   1.00
O1329  O     0.45274   0.99654   0.79617   0.00000  Uiso   1.00
O1330  O     0.49315   0.86044   0.60225   0.00000  Uiso   1.00
O1331  O     0.57671   0.74939   0.60064   0.00000  Uiso   1.00
O1332  O     0.51182   0.74768   0.77821   0.00000  Uiso   1.00
O1333  O     0.47914   0.92803   0.76767   0.00000  Uiso   1.00
O1334  O     0.40785   0.79917   0.73607   0.00000  Uiso   1.00
O1335  O     0.60119   0.85845   0.71806   0.00000  Uiso   1.00
O1336  O     0.40323   0.85627   0.77820   0.00000  Uiso   1.00
O1337  O     0.58773   0.81944   0.76768   0.00000  Uiso   1.00
O1338  O     0.47133   0.73570   0.73607   0.00000  Uiso   1.00
O1339  O     0.53771   0.92193   0.71806   0.00000  Uiso   1.00
Zn1340 Zn    0.52577   0.80756   0.78278   0.00000  Uiso   1.00
Zn1341 Zn    0.46792   0.79044   0.72258   0.00000  Uiso   1.00
Zn1342 Zn    0.54500   0.86331   0.71188   0.00000  Uiso   1.00
Zn1343 Zn    0.46131   0.87202   0.78277   0.00000  Uiso   1.00
C1344  C     0.71945   0.82710   0.75846   0.00000  Uiso   1.00
C1345  C     0.86583   0.79702   0.95987   0.00000  Uiso   1.00
C1346  C     0.88541   0.77625   0.98007   0.00000  Uiso   1.00
C1347  C     0.94756   0.84003   0.74147   0.00000  Uiso   1.00
C1348  C     0.87621   0.78318   0.52093   0.00000  Uiso   1.00
C1349  C     0.84725   0.81272   0.54191   0.00000  Uiso   1.00
C1350  C     0.89597   0.76113   0.54104   0.00000  Uiso   1.00
C1351  C     0.88847   0.76969   0.58180   0.00000  Uiso   1.00
C1352  C     0.84507   0.82508   0.58204   0.00000  Uiso   1.00
C1353  C     0.99328   0.84065   0.73795   0.00000  Uiso   1.00
C1354  C     0.67347   0.82417   0.76418   0.00000  Uiso   1.00
C1355  C     0.76628   0.88279   0.92112   0.00000  Uiso   1.00
C1356  C     0.84523   0.98859   0.73860   0.00000  Uiso   1.00
C1357  C     0.81682   0.67927   0.76400   0.00000  Uiso   1.00
C1358  C     0.82303   0.72300   0.75866   0.00000  Uiso   1.00
C1359  C     0.84313   0.94429   0.74160   0.00000  Uiso   1.00
C1360  C     0.85507   0.81158   0.64425   0.00000  Uiso   1.00
C1361  C     0.81214   0.85447   0.85614   0.00000  Uiso   1.00
C1362  C     0.80120   0.86109   0.89922   0.00000  Uiso   1.00
C1363  C     0.86356   0.80213   0.60191   0.00000  Uiso   1.00
C1364  C     0.75446   0.88574   0.96197   0.00000  Uiso   1.00
C1365  C     0.90118   0.69302   0.51705   0.00000  Uiso   1.00
C1366  C     0.82475   0.84330   0.91857   0.00000  Uiso   1.00
C1367  C     0.99408   0.78244   0.81511   0.00000  Uiso   1.00
C1368  C     0.75313   0.68941   0.81404   0.00000  Uiso   1.00
C1369  C     0.85637   0.89567   0.59267   0.00000  Uiso   1.00
C1370  C     0.88130   0.71942   0.62290   0.00000  Uiso   1.00
C1371  C     0.81251   0.84443   0.95975   0.00000  Uiso   1.00
C1372  C     0.77701   0.86650   0.98141   0.00000  Uiso   1.00
C1373  C     0.83429   0.82411   0.97993   0.00000  Uiso   1.00
C1374  C     0.82284   0.82973   0.52170   0.00000  Uiso   1.00
C1375  C     0.78570   0.84978   0.54197   0.00000  Uiso   1.00
C1376  C     0.76357   0.86821   0.52218   0.00000  Uiso   1.00
H1377  H     0.73541   0.88354   0.53893   0.00000  Uiso   1.00
H1378  H     0.67296   0.75609   0.79298   0.00000  Uiso   1.00
H1379  H     0.96756   0.76910   0.83878   0.00000  Uiso   1.00
H1380  H     0.87032   0.66857   0.71483   0.00000  Uiso   1.00
H1381  H     0.73735   0.69654   0.79234   0.00000  Uiso   1.00
H1382  H     0.76573   0.71854   0.82921   0.00000  Uiso   1.00
H1383  H     0.72812   0.67286   0.83664   0.00000  Uiso   1.00
H1384  H     0.86363   0.90003   0.56105   0.00000  Uiso   1.00
H1385  H     0.88668   0.89365   0.60038   0.00000  Uiso   1.00
H1386  H     0.84205   0.92380   0.61001   0.00000  Uiso   1.00
H1387  H     0.85040   0.71054   0.61483   0.00000  Uiso   1.00
H1388  H     0.72715   0.90242   0.97840   0.00000  Uiso   1.00
H1389  H     0.87425   0.73098   0.65459   0.00000  Uiso   1.00
H1390  H     0.89741   0.69059   0.61851   0.00000  Uiso   1.00
H1391  H     0.90835   0.75483   0.96320   0.00000  Uiso   1.00
H1392  H     0.74767   0.89686   0.90669   0.00000  Uiso   1.00
H1393  H     0.87470   0.78928   0.92850   0.00000  Uiso   1.00
H1394  H     0.85275   0.82898   0.90066   0.00000  Uiso   1.00
H1395  H     0.77164   0.84978   0.57320   0.00000  Uiso   1.00
H1396  H     0.87629   0.69335   0.50144   0.00000  Uiso   1.00
H1397  H     0.88599   0.68140   0.54613   0.00000  Uiso   1.00
H1398  H     0.92390   0.67057   0.99941   0.00000  Uiso   1.00
H1399  H     0.68309   0.85400   0.71302   0.00000  Uiso   1.00
H1400  H     0.68622   0.79828   0.82869   0.00000  Uiso   1.00
O1401  O     0.83333   0.83333   0.75000   0.00000  Uiso   1.00
O1402  O     0.82360   0.79060   0.66625   0.00000  Uiso   1.00
O1403  O     0.79354   0.87313   0.83749   0.00000  Uiso   1.00
O1404  O     0.87755   0.84159   0.65877   0.00000  Uiso   1.00
O1405  O     0.83865   0.82802   0.83749   0.00000  Uiso   1.00
O1406  O     0.92452   0.73256   0.52076   0.00000  Uiso   1.00
O1407  O     0.97766   0.81116   0.79859   0.00000  Uiso   1.00
O1408  O     0.78607   0.99654   0.79617   0.00000  Uiso   1.00
O1409  O     0.82649   0.86044   0.60225   0.00000  Uiso   1.00
O1410  O     0.91004   0.74939   0.60064   0.00000  Uiso   1.00
O1411  O     0.84515   0.74768   0.77821   0.00000  Uiso   1.00
O1412  O     0.81247   0.92803   0.76767   0.00000  Uiso   1.00
O1413  O     0.74119   0.79917   0.73607   0.00000  Uiso   1.00
O1414  O     0.93452   0.85845   0.71806   0.00000  Uiso   1.00
O1415  O     0.73656   0.85627   0.77820   0.00000  Uiso   1.00
O1416  O     0.92106   0.81944   0.76768   0.00000  Uiso   1.00
O1417  O     0.80467   0.73570   0.73607   0.00000  Uiso   1.00
O1418  O     0.87104   0.92193   0.71806   0.00000  Uiso   1.00
Zn1419 Zn    0.85910   0.80756   0.78278   0.00000  Uiso   1.00
Zn1420 Zn    0.80125   0.79044   0.72258   0.00000  Uiso   1.00
Zn1421 Zn    0.87833   0.86331   0.71188   0.00000  Uiso   1.00
Zn1422 Zn    0.79465   0.87202   0.78277   0.00000  Uiso   1.00
loop_
_geom_bond_atom_site_label_1
_geom_bond_atom_site_label_2
_geom_bond_distance
_geom_bond_site_symmetry_2
_ccdc_geom_bond_type
C1     C11     1.445   .     S
C1     O72     1.265   .     A
C1     O70     1.270   .     A
C2     H50     1.076   .     S
C2     C30     1.413   .     A
C2     C3      1.385   .     A
C3     H48     1.083   .     S
C3     C716    1.396   .     S
C4     O73     1.275   .     A
C4     C10     1.458   .     S
C4     O71     1.291   .     A
C5     C7      1.413   .     A
C5     C6      1.421   .     A
C5     C714    1.396   1_554 S
C6     C9      1.418   .     A
C6     C31     1.427   .     A
C7     C8      1.400   .     A
C7     O63     1.384   .     S
C8     C20     1.406   .     A
C8     O67     1.386   .     S
C9     O66     1.385   .     S
C9     C20     1.399   .     A
C10    C90     1.348   .     S
C10    H135    1.088   .     S
C11    C168    1.348   1_455 S
C11    O222    1.399   1_455 S
C12    H49     1.083   .     S
C12    C21     1.392   .     A
C12    C19     1.400   .     A
C13    C16     1.453   .     S
C13    C251    1.344   .     S
C13    H274    1.089   .     S
C14    C15     1.443   .     S
C14    C487    1.344   1_545 S
C14    O539    1.401   1_545 S
C15    O68     1.275   .     A
C15    O74     1.277   .     A
C16    O75     1.278   .     A
C16    O69     1.267   .     A
C17    C20     1.454   .     S
C17    O61     1.280   .     A
C17    O59     1.277   .     A
C18    C19     1.469   .     S
C18    O62     1.282   .     A
C18    O60     1.280   .     A
C19    C23     1.398   .     A
C21    H45     1.084   .     S
C21    C29     1.403   .     A
C22    H54     1.111   .     S
C22    O63     1.411   .     S
C22    H53     1.113   .     S
C22    H766    1.109   1_554 S
C23    H51     1.076   .     S
C23    C28     1.407   .     A
C24    H36     1.109   .     S
C24    O64     1.412   .     S
C24    H114    1.113   .     S
C24    H136    1.112   .     S
C25    H40     1.109   .     S
C25    H38     1.113   .     S
C25    H39     1.112   .     S
C25    O539    1.412   1_545 S
C26    H43     1.109   .     S
C26    O66     1.411   .     S
C26    H42     1.113   .     S
C26    H41     1.113   .     S
C27    H44     1.117   .     S
C27    H46     1.110   .     S
C27    H47     1.109   .     S
C27    O67     1.415   .     S
C28    C29     1.418   .     A
C28    C30     1.425   .     A
C29    C744    1.391   .     S
C30    C742    1.423   .     S
C31    C32     1.413   .     A
C31    C741    1.423   1_554 S
C32    H52     1.078   .     S
C32    C33     1.387   .     A
C33    H34     1.084   .     S
C33    C740    1.391   1_554 S
H35    C182    1.113   1_455 S
H37    C487    1.089   1_545 S
H55    C733    1.109   .     S
H56    C168    1.088   1_455 S
H57    C182    1.112   1_455 S
O58    Zn76    1.960   .     S
O58    Zn77    1.950   .     S
O58    Zn79    1.928   .     S
O58    Zn78    1.947   .     S
O59    Zn77    1.935   .     S
O60    Zn79    1.943   .     S
O61    Zn78    1.936   .     S
O62    Zn76    1.927   .     S
O64    C90     1.399   .     S
O65    C251    1.401   .     S
O65    C262    1.412   .     S
O68    Zn76    1.934   .     S
O69    Zn79    1.940   .     S
O70    Zn77    1.929   .     S
O71    Zn78    1.939   .     S
O72    Zn79    1.940   .     S
O73    Zn76    1.933   .     S
O74    Zn77    1.939   .     S
O75    Zn78    1.931   .     S
C80    C90     1.445   .     S
C80    O151    1.265   .     A
C80    O149    1.270   .     A
C81    H129    1.076   .     S
C81    C109    1.413   .     A
C81    C82     1.385   .     A
C82    H127    1.083   .     S
C82    C795    1.396   .     S
C83    O152    1.275   .     A
C83    C89     1.458   .     S
C83    O150    1.291   .     A
C84    C86     1.413   .     A
C84    C85     1.421   .     A
C84    C793    1.396   1_554 S
C85    C88     1.418   .     A
C85    C110    1.427   .     A
C86    C87     1.400   .     A
C86    O142    1.384   .     S
C87    C99     1.406   .     A
C87    O146    1.386   .     S
C88    O145    1.385   .     S
C88    C99     1.399   .     A
C89    C169    1.348   .     S
C89    H214    1.088   .     S
C91    H128    1.083   .     S
C91    C100    1.392   .     A
C91    C98     1.400   .     A
C92    C95     1.453   .     S
C92    C330    1.344   .     S
C92    H353    1.089   .     S
C93    C94     1.443   .     S
C93    C566    1.344   1_545 S
C93    O618    1.401   1_545 S
C94    O147    1.275   .     A
C94    O153    1.277   .     A
C95    O154    1.278   .     A
C95    O148    1.267   .     A
C96    C99     1.454   .     S
C96    O140    1.280   .     A
C96    O138    1.277   .     A
C97    C98     1.469   .     S
C97    O141    1.282   .     A
C97    O139    1.280   .     A
C98    C102    1.398   .     A
C100   H124    1.084   .     S
C100   C108    1.403   .     A
C101   H133    1.111   .     S
C101   O142    1.411   .     S
C101   H132    1.113   .     S
C101   H845    1.109   1_554 S
C102   H130    1.076   .     S
C102   C107    1.407   .     A
C103   H115    1.109   .     S
C103   O143    1.412   .     S
C103   H193    1.113   .     S
C103   H215    1.112   .     S
C104   H119    1.109   .     S
C104   H117    1.113   .     S
C104   H118    1.112   .     S
C104   O618    1.412   1_545 S
C105   H122    1.109   .     S
C105   O145    1.411   .     S
C105   H121    1.113   .     S
C105   H120    1.113   .     S
C106   H123    1.117   .     S
C106   H125    1.110   .     S
C106   H126    1.109   .     S
C106   O146    1.415   .     S
C107   C108    1.418   .     A
C107   C109    1.425   .     A
C108   C823    1.391   .     S
C109   C821    1.423   .     S
C110   C111    1.413   .     A
C110   C820    1.423   1_554 S
C111   H131    1.078   .     S
C111   C112    1.387   .     A
C112   H113    1.084   .     S
C112   C819    1.391   1_554 S
H116   C566    1.089   1_545 S
H134   C812    1.109   .     S
O137   Zn155   1.960   .     S
O137   Zn156   1.950   .     S
O137   Zn158   1.928   .     S
O137   Zn157   1.947   .     S
O138   Zn156   1.935   .     S
O139   Zn158   1.943   .     S
O140   Zn157   1.936   .     S
O141   Zn155   1.927   .     S
O143   C169    1.399   .     S
O144   C330    1.401   .     S
O144   C341    1.412   .     S
O147   Zn155   1.934   .     S
O148   Zn158   1.940   .     S
O149   Zn156   1.929   .     S
O150   Zn157   1.939   .     S
O151   Zn158   1.940   .     S
O152   Zn155   1.933   .     S
O153   Zn156   1.939   .     S
O154   Zn157   1.931   .     S
C159   C169    1.445   .     S
C159   O230    1.265   .     A
C159   O228    1.270   .     A
C160   H208    1.076   .     S
C160   C188    1.413   .     A
C160   C161    1.385   .     A
C161   H206    1.083   .     S
C161   C874    1.396   .     S
C162   O231    1.275   .     A
C162   C168    1.458   .     S
C162   O229    1.291   .     A
C163   C165    1.413   .     A
C163   C164    1.421   .     A
C163   C872    1.396   1_554 S
C164   C167    1.418   .     A
C164   C189    1.427   .     A
C165   C166    1.400   .     A
C165   O221    1.384   .     S
C166   C178    1.406   .     A
C166   O225    1.386   .     S
C167   O224    1.385   .     S
C167   C178    1.399   .     A
C168   C11     1.348   1_655 S
C168   H56     1.088   1_655 S
C170   H207    1.083   .     S
C170   C179    1.392   .     A
C170   C177    1.400   .     A
C171   C174    1.453   .     S
C171   C409    1.344   .     S
C171   H432    1.089   .     S
C172   C173    1.443   .     S
C172   C645    1.344   1_545 S
C172   O697    1.401   1_545 S
C173   O226    1.275   .     A
C173   O232    1.277   .     A
C174   O233    1.278   .     A
C174   O227    1.267   .     A
C175   C178    1.454   .     S
C175   O219    1.280   .     A
C175   O217    1.277   .     A
C176   C177    1.469   .     S
C176   O220    1.282   .     A
C176   O218    1.280   .     A
C177   C181    1.398   .     A
C179   H203    1.084   .     S
C179   C187    1.403   .     A
C180   H212    1.111   .     S
C180   O221    1.411   .     S
C180   H211    1.113   .     S
C180   H924    1.109   1_554 S
C181   H209    1.076   .     S
C181   C186    1.407   .     A
C182   H194    1.109   .     S
C182   O222    1.412   .     S
C182   H35     1.113   1_655 S
C182   H57     1.112   1_655 S
C183   H198    1.109   .     S
C183   H196    1.113   .     S
C183   H197    1.112   .     S
C183   O697    1.412   1_545 S
C184   H201    1.109   .     S
C184   O224    1.411   .     S
C184   H200    1.113   .     S
C184   H199    1.113   .     S
C185   H202    1.117   .     S
C185   H204    1.110   .     S
C185   H205    1.109   .     S
C185   O225    1.415   .     S
C186   C187    1.418   .     A
C186   C188    1.425   .     A
C187   C902    1.391   .     S
C188   C900    1.423   .     S
C189   C190    1.413   .     A
C189   C899    1.423   1_554 S
C190   H210    1.078   .     S
C190   C191    1.387   .     A
C191   H192    1.084   .     S
C191   C898    1.391   1_554 S
H195   C645    1.089   1_545 S
H213   C891    1.109   .     S
O216   Zn234   1.960   .     S
O216   Zn235   1.950   .     S
O216   Zn237   1.928   .     S
O216   Zn236   1.947   .     S
O217   Zn235   1.935   .     S
O218   Zn237   1.943   .     S
O219   Zn236   1.936   .     S
O220   Zn234   1.927   .     S
O222   C11     1.399   1_655 S
O223   C409    1.401   .     S
O223   C420    1.412   .     S
O226   Zn234   1.934   .     S
O227   Zn237   1.940   .     S
O228   Zn235   1.929   .     S
O229   Zn236   1.939   .     S
O230   Zn237   1.940   .     S
O231   Zn234   1.933   .     S
O232   Zn235   1.939   .     S
O233   Zn236   1.931   .     S
C238   C248    1.445   .     S
C238   O309    1.265   .     A
C238   O307    1.270   .     A
C239   H287    1.076   .     S
C239   C267    1.413   .     A
C239   C240    1.385   .     A
C240   H285    1.083   .     S
C240   C953    1.396   .     S
C241   O310    1.275   .     A
C241   C247    1.458   .     S
C241   O308    1.291   .     A
C242   C244    1.413   .     A
C242   C243    1.421   .     A
C242   C951    1.396   1_554 S
C243   C246    1.418   .     A
C243   C268    1.427   .     A
C244   C245    1.400   .     A
C244   O300    1.384   .     S
C245   C257    1.406   .     A
C245   O304    1.386   .     S
C246   O303    1.385   .     S
C246   C257    1.399   .     A
C247   C327    1.348   .     S
C247   H372    1.088   .     S
C248   C405    1.348   1_455 S
C248   O459    1.399   1_455 S
C249   H286    1.083   .     S
C249   C258    1.392   .     A
C249   C256    1.400   .     A
C250   C253    1.453   .     S
C250   C488    1.344   .     S
C250   H511    1.089   .     S
C251   C252    1.443   .     S
C252   O305    1.275   .     A
C252   O311    1.277   .     A
C253   O312    1.278   .     A
C253   O306    1.267   .     A
C254   C257    1.454   .     S
C254   O298    1.280   .     A
C254   O296    1.277   .     A
C255   C256    1.469   .     S
C255   O299    1.282   .     A
C255   O297    1.280   .     A
C256   C260    1.398   .     A
C258   H282    1.084   .     S
C258   C266    1.403   .     A
C259   H291    1.111   .     S
C259   O300    1.411   .     S
C259   H290    1.113   .     S
C259   H1003   1.109   1_554 S
C260   H288    1.076   .     S
C260   C265    1.407   .     A
C261   H273    1.109   .     S
C261   O301    1.412   .     S
C261   H351    1.113   .     S
C261   H373    1.112   .     S
C262   H277    1.109   .     S
C262   H275    1.113   .     S
C262   H276    1.112   .     S
C263   H280    1.109   .     S
C263   O303    1.411   .     S
C263   H279    1.113   .     S
C263   H278    1.113   .     S
C264   H281    1.117   .     S
C264   H283    1.110   .     S
C264   H284    1.109   .     S
C264   O304    1.415   .     S
C265   C266    1.418   .     A
C265   C267    1.425   .     A
C266   C981    1.391   .     S
C267   C979    1.423   .     S
C268   C269    1.413   .     A
C268   C978    1.423   1_554 S
C269   H289    1.078   .     S
C269   C270    1.387   .     A
C270   H271    1.084   .     S
C270   C977    1.391   1_554 S
H272   C419    1.113   1_455 S
H292   C970    1.109   .     S
H293   C405    1.088   1_455 S
H294   C419    1.112   1_455 S
O295   Zn313   1.960   .     S
O295   Zn314   1.950   .     S
O295   Zn316   1.928   .     S
O295   Zn315   1.947   .     S
O296   Zn314   1.935   .     S
O297   Zn316   1.943   .     S
O298   Zn315   1.936   .     S
O299   Zn313   1.927   .     S
O301   C327    1.399   .     S
O302   C488    1.401   .     S
O302   C499    1.412   .     S
O305   Zn313   1.934   .     S
O306   Zn316   1.940   .     S
O307   Zn314   1.929   .     S
O308   Zn315   1.939   .     S
O309   Zn316   1.940   .     S
O310   Zn313   1.933   .     S
O311   Zn314   1.939   .     S
O312   Zn315   1.931   .     S
C317   C327    1.445   .     S
C317   O388    1.265   .     A
C317   O386    1.270   .     A
C318   H366    1.076   .     S
C318   C346    1.413   .     A
C318   C319    1.385   .     A
C319   H364    1.083   .     S
C319   C1032   1.396   .     S
C320   O389    1.275   .     A
C320   C326    1.458   .     S
C320   O387    1.291   .     A
C321   C323    1.413   .     A
C321   C322    1.421   .     A
C321   C1030   1.396   1_554 S
C322   C325    1.418   .     A
C322   C347    1.427   .     A
C323   C324    1.400   .     A
C323   O379    1.384   .     S
C324   C336    1.406   .     A
C324   O383    1.386   .     S
C325   O382    1.385   .     S
C325   C336    1.399   .     A
C326   C406    1.348   .     S
C326   H451    1.088   .     S
C328   H365    1.083   .     S
C328   C337    1.392   .     A
C328   C335    1.400   .     A
C329   C332    1.453   .     S
C329   C567    1.344   .     S
C329   H590    1.089   .     S
C330   C331    1.443   .     S
C331   O384    1.275   .     A
C331   O390    1.277   .     A
C332   O391    1.278   .     A
C332   O385    1.267   .     A
C333   C336    1.454   .     S
C333   O377    1.280   .     A
C333   O375    1.277   .     A
C334   C335    1.469   .     S
C334   O378    1.282   .     A
C334   O376    1.280   .     A
C335   C339    1.398   .     A
C337   H361    1.084   .     S
C337   C345    1.403   .     A
C338   H370    1.111   .     S
C338   O379    1.411   .     S
C338   H369    1.113   .     S
C338   H1082   1.109   1_554 S
C339   H367    1.076   .     S
C339   C344    1.407   .     A
C340   H352    1.109   .     S
C340   O380    1.412   .     S
C340   H430    1.113   .     S
C340   H452    1.112   .     S
C341   H356    1.109   .     S
C341   H354    1.113   .     S
C341   H355    1.112   .     S
C342   H359    1.109   .     S
C342   O382    1.411   .     S
C342   H358    1.113   .     S
C342   H357    1.113   .     S
C343   H360    1.117   .     S
C343   H362    1.110   .     S
C343   H363    1.109   .     S
C343   O383    1.415   .     S
C344   C345    1.418   .     A
C344   C346    1.425   .     A
C345   C1060   1.391   .     S
C346   C1058   1.423   .     S
C347   C348    1.413   .     A
C347   C1057   1.423   1_554 S
C348   H368    1.078   .     S
C348   C349    1.387   .     A
C349   H350    1.084   .     S
C349   C1056   1.391   1_554 S
H371   C1049   1.109   .     S
O374   Zn392   1.960   .     S
O374   Zn393   1.950   .     S
O374   Zn395   1.928   .     S
O374   Zn394   1.947   .     S
O375   Zn393   1.935   .     S
O376   Zn395   1.943   .     S
O377   Zn394   1.936   .     S
O378   Zn392   1.927   .     S
O380   C406    1.399   .     S
O381   C567    1.401   .     S
O381   C578    1.412   .     S
O384   Zn392   1.934   .     S
O385   Zn395   1.940   .     S
O386   Zn393   1.929   .     S
O387   Zn394   1.939   .     S
O388   Zn395   1.940   .     S
O389   Zn392   1.933   .     S
O390   Zn393   1.939   .     S
O391   Zn394   1.931   .     S
C396   C406    1.445   .     S
C396   O467    1.265   .     A
C396   O465    1.270   .     A
C397   H445    1.076   .     S
C397   C425    1.413   .     A
C397   C398    1.385   .     A
C398   H443    1.083   .     S
C398   C1111   1.396   .     S
C399   O468    1.275   .     A
C399   C405    1.458   .     S
C399   O466    1.291   .     A
C400   C402    1.413   .     A
C400   C401    1.421   .     A
C400   C1109   1.396   1_554 S
C401   C404    1.418   .     A
C401   C426    1.427   .     A
C402   C403    1.400   .     A
C402   O458    1.384   .     S
C403   C415    1.406   .     A
C403   O462    1.386   .     S
C404   O461    1.385   .     S
C404   C415    1.399   .     A
C405   C248    1.348   1_655 S
C405   H293    1.088   1_655 S
C407   H444    1.083   .     S
C407   C416    1.392   .     A
C407   C414    1.400   .     A
C408   C411    1.453   .     S
C408   C646    1.344   .     S
C408   H669    1.089   .     S
C409   C410    1.443   .     S
C410   O463    1.275   .     A
C410   O469    1.277   .     A
C411   O470    1.278   .     A
C411   O464    1.267   .     A
C412   C415    1.454   .     S
C412   O456    1.280   .     A
C412   O454    1.277   .     A
C413   C414    1.469   .     S
C413   O457    1.282   .     A
C413   O455    1.280   .     A
C414   C418    1.398   .     A
C416   H440    1.084   .     S
C416   C424    1.403   .     A
C417   H449    1.111   .     S
C417   O458    1.411   .     S
C417   H448    1.113   .     S
C417   H1161   1.109   1_554 S
C418   H446    1.076   .     S
C418   C423    1.407   .     A
C419   H431    1.109   .     S
C419   O459    1.412   .     S
C419   H272    1.113   1_655 S
C419   H294    1.112   1_655 S
C420   H435    1.109   .     S
C420   H433    1.113   .     S
C420   H434    1.112   .     S
C421   H438    1.109   .     S
C421   O461    1.411   .     S
C421   H437    1.113   .     S
C421   H436    1.113   .     S
C422   H439    1.117   .     S
C422   H441    1.110   .     S
C422   H442    1.109   .     S
C422   O462    1.415   .     S
C423   C424    1.418   .     A
C423   C425    1.425   .     A
C424   C1139   1.391   .     S
C425   C1137   1.423   .     S
C426   C427    1.413   .     A
C426   C1136   1.423   1_554 S
C427   H447    1.078   .     S
C427   C428    1.387   .     A
C428   H429    1.084   .     S
C428   C1135   1.391   1_554 S
H450   C1128   1.109   .     S
O453   Zn471   1.960   .     S
O453   Zn472   1.950   .     S
O453   Zn474   1.928   .     S
O453   Zn473   1.947   .     S
O454   Zn472   1.935   .     S
O455   Zn474   1.943   .     S
O456   Zn473   1.936   .     S
O457   Zn471   1.927   .     S
O459   C248    1.399   1_655 S
O460   C646    1.401   .     S
O460   C657    1.412   .     S
O463   Zn471   1.934   .     S
O464   Zn474   1.940   .     S
O465   Zn472   1.929   .     S
O466   Zn473   1.939   .     S
O467   Zn474   1.940   .     S
O468   Zn471   1.933   .     S
O469   Zn472   1.939   .     S
O470   Zn473   1.931   .     S
C475   C485    1.445   .     S
C475   O546    1.265   .     A
C475   O544    1.270   .     A
C476   H524    1.076   .     S
C476   C504    1.413   .     A
C476   C477    1.385   .     A
C477   H522    1.083   .     S
C477   C1190   1.396   .     S
C478   O547    1.275   .     A
C478   C484    1.458   .     S
C478   O545    1.291   .     A
C479   C481    1.413   .     A
C479   C480    1.421   .     A
C479   C1188   1.396   1_554 S
C480   C483    1.418   .     A
C480   C505    1.427   .     A
C481   C482    1.400   .     A
C481   O537    1.384   .     S
C482   C494    1.406   .     A
C482   O541    1.386   .     S
C483   O540    1.385   .     S
C483   C494    1.399   .     A
C484   C564    1.348   .     S
C484   H609    1.088   .     S
C485   C642    1.348   1_455 S
C485   O696    1.399   1_455 S
C486   H523    1.083   .     S
C486   C495    1.392   .     A
C486   C493    1.400   .     A
C487   C490    1.453   .     S
C487   C14     1.344   1_565 S
C487   H37     1.089   1_565 S
C488   C489    1.443   .     S
C489   O542    1.275   .     A
C489   O548    1.277   .     A
C490   O549    1.278   .     A
C490   O543    1.267   .     A
C491   C494    1.454   .     S
C491   O535    1.280   .     A
C491   O533    1.277   .     A
C492   C493    1.469   .     S
C492   O536    1.282   .     A
C492   O534    1.280   .     A
C493   C497    1.398   .     A
C495   H519    1.084   .     S
C495   C503    1.403   .     A
C496   H528    1.111   .     S
C496   O537    1.411   .     S
C496   H527    1.113   .     S
C496   H1240   1.109   1_554 S
C497   H525    1.076   .     S
C497   C502    1.407   .     A
C498   H510    1.109   .     S
C498   O538    1.412   .     S
C498   H588    1.113   .     S
C498   H610    1.112   .     S
C499   H514    1.109   .     S
C499   H512    1.113   .     S
C499   H513    1.112   .     S
C500   H517    1.109   .     S
C500   O540    1.411   .     S
C500   H516    1.113   .     S
C500   H515    1.113   .     S
C501   H518    1.117   .     S
C501   H520    1.110   .     S
C501   H521    1.109   .     S
C501   O541    1.415   .     S
C502   C503    1.418   .     A
C502   C504    1.425   .     A
C503   C1218   1.391   .     S
C504   C1216   1.423   .     S
C505   C506    1.413   .     A
C505   C1215   1.423   1_554 S
C506   H526    1.078   .     S
C506   C507    1.387   .     A
C507   H508    1.084   .     S
C507   C1214   1.391   1_554 S
H509   C656    1.113   1_455 S
H529   C1207   1.109   .     S
H530   C642    1.088   1_455 S
H531   C656    1.112   1_455 S
O532   Zn550   1.960   .     S
O532   Zn551   1.950   .     S
O532   Zn553   1.928   .     S
O532   Zn552   1.947   .     S
O533   Zn551   1.935   .     S
O534   Zn553   1.943   .     S
O535   Zn552   1.936   .     S
O536   Zn550   1.927   .     S
O538   C564    1.399   .     S
O539   C14     1.401   1_565 S
O539   C25     1.412   1_565 S
O542   Zn550   1.934   .     S
O543   Zn553   1.940   .     S
O544   Zn551   1.929   .     S
O545   Zn552   1.939   .     S
O546   Zn553   1.940   .     S
O547   Zn550   1.933   .     S
O548   Zn551   1.939   .     S
O549   Zn552   1.931   .     S
C554   C564    1.445   .     S
C554   O625    1.265   .     A
C554   O623    1.270   .     A
C555   H603    1.076   .     S
C555   C583    1.413   .     A
C555   C556    1.385   .     A
C556   H601    1.083   .     S
C556   C1269   1.396   .     S
C557   O626    1.275   .     A
C557   C563    1.458   .     S
C557   O624    1.291   .     A
C558   C560    1.413   .     A
C558   C559    1.421   .     A
C558   C1267   1.396   1_554 S
C559   C562    1.418   .     A
C559   C584    1.427   .     A
C560   C561    1.400   .     A
C560   O616    1.384   .     S
C561   C573    1.406   .     A
C561   O620    1.386   .     S
C562   O619    1.385   .     S
C562   C573    1.399   .     A
C563   C643    1.348   .     S
C563   H688    1.088   .     S
C565   H602    1.083   .     S
C565   C574    1.392   .     A
C565   C572    1.400   .     A
C566   C569    1.453   .     S
C566   C93     1.344   1_565 S
C566   H116    1.089   1_565 S
C567   C568    1.443   .     S
C568   O621    1.275   .     A
C568   O627    1.277   .     A
C569   O628    1.278   .     A
C569   O622    1.267   .     A
C570   C573    1.454   .     S
C570   O614    1.280   .     A
C570   O612    1.277   .     A
C571   C572    1.469   .     S
C571   O615    1.282   .     A
C571   O613    1.280   .     A
C572   C576    1.398   .     A
C574   H598    1.084   .     S
C574   C582    1.403   .     A
C575   H607    1.111   .     S
C575   O616    1.411   .     S
C575   H606    1.113   .     S
C575   H1319   1.109   1_554 S
C576   H604    1.076   .     S
C576   C581    1.407   .     A
C577   H589    1.109   .     S
C577   O617    1.412   .     S
C577   H667    1.113   .     S
C577   H689    1.112   .     S
C578   H593    1.109   .     S
C578   H591    1.113   .     S
C578   H592    1.112   .     S
C579   H596    1.109   .     S
C579   O619    1.411   .     S
C579   H595    1.113   .     S
C579   H594    1.113   .     S
C580   H597    1.117   .     S
C580   H599    1.110   .     S
C580   H600    1.109   .     S
C580   O620    1.415   .     S
C581   C582    1.418   .     A
C581   C583    1.425   .     A
C582   C1297   1.391   .     S
C583   C1295   1.423   .     S
C584   C585    1.413   .     A
C584   C1294   1.423   1_554 S
C585   H605    1.078   .     S
C585   C586    1.387   .     A
C586   H587    1.084   .     S
C586   C1293   1.391   1_554 S
H608   C1286   1.109   .     S
O611   Zn629   1.960   .     S
O611   Zn630   1.950   .     S
O611   Zn632   1.928   .     S
O611   Zn631   1.947   .     S
O612   Zn630   1.935   .     S
O613   Zn632   1.943   .     S
O614   Zn631   1.936   .     S
O615   Zn629   1.927   .     S
O617   C643    1.399   .     S
O618   C93     1.401   1_565 S
O618   C104    1.412   1_565 S
O621   Zn629   1.934   .     S
O622   Zn632   1.940   .     S
O623   Zn630   1.929   .     S
O624   Zn631   1.939   .     S
O625   Zn632   1.940   .     S
O626   Zn629   1.933   .     S
O627   Zn630   1.939   .     S
O628   Zn631   1.931   .     S
C633   C643    1.445   .     S
C633   O704    1.265   .     A
C633   O702    1.270   .     A
C634   H682    1.076   .     S
C634   C662    1.413   .     A
C634   C635    1.385   .     A
C635   H680    1.083   .     S
C635   C1348   1.396   .     S
C636   O705    1.275   .     A
C636   C642    1.458   .     S
C636   O703    1.291   .     A
C637   C639    1.413   .     A
C637   C638    1.421   .     A
C637   C1346   1.396   1_554 S
C638   C641    1.418   .     A
C638   C663    1.427   .     A
C639   C640    1.400   .     A
C639   O695    1.384   .     S
C640   C652    1.406   .     A
C640   O699    1.386   .     S
C641   O698    1.385   .     S
C641   C652    1.399   .     A
C642   C485    1.348   1_655 S
C642   H530    1.088   1_655 S
C644   H681    1.083   .     S
C644   C653    1.392   .     A
C644   C651    1.400   .     A
C645   C648    1.453   .     S
C645   C172    1.344   1_565 S
C645   H195    1.089   1_565 S
C646   C647    1.443   .     S
C647   O700    1.275   .     A
C647   O706    1.277   .     A
C648   O707    1.278   .     A
C648   O701    1.267   .     A
C649   C652    1.454   .     S
C649   O693    1.280   .     A
C649   O691    1.277   .     A
C650   C651    1.469   .     S
C650   O694    1.282   .     A
C650   O692    1.280   .     A
C651   C655    1.398   .     A
C653   H677    1.084   .     S
C653   C661    1.403   .     A
C654   H686    1.111   .     S
C654   O695    1.411   .     S
C654   H685    1.113   .     S
C654   H1398   1.109   1_554 S
C655   H683    1.076   .     S
C655   C660    1.407   .     A
C656   H668    1.109   .     S
C656   O696    1.412   .     S
C656   H509    1.113   1_655 S
C656   H531    1.112   1_655 S
C657   H672    1.109   .     S
C657   H670    1.113   .     S
C657   H671    1.112   .     S
C658   H675    1.109   .     S
C658   O698    1.411   .     S
C658   H674    1.113   .     S
C658   H673    1.113   .     S
C659   H676    1.117   .     S
C659   H678    1.110   .     S
C659   H679    1.109   .     S
C659   O699    1.415   .     S
C660   C661    1.418   .     A
C660   C662    1.425   .     A
C661   C1376   1.391   .     S
C662   C1374   1.423   .     S
C663   C664    1.413   .     A
C663   C1373   1.423   1_554 S
C664   H684    1.078   .     S
C664   C665    1.387   .     A
C665   H666    1.084   .     S
C665   C1372   1.391   1_554 S
H687   C1365   1.109   .     S
O690   Zn708   1.960   .     S
O690   Zn709   1.950   .     S
O690   Zn711   1.928   .     S
O690   Zn710   1.947   .     S
O691   Zn709   1.935   .     S
O692   Zn711   1.943   .     S
O693   Zn710   1.936   .     S
O694   Zn708   1.927   .     S
O696   C485    1.399   1_655 S
O697   C172    1.401   1_565 S
O697   C183    1.412   1_565 S
O700   Zn708   1.934   .     S
O701   Zn711   1.940   .     S
O702   Zn709   1.929   .     S
O703   Zn710   1.939   .     S
O704   Zn711   1.940   .     S
O705   Zn708   1.933   .     S
O706   Zn709   1.939   .     S
O707   Zn710   1.931   .     S
C712   C722    1.445   .     S
C712   O783    1.265   .     A
C712   O781    1.270   .     A
C713   H761    1.076   .     S
C713   C741    1.413   .     A
C713   C714    1.385   .     A
C714   H759    1.083   .     S
C714   C5      1.396   1_556 S
C715   O784    1.275   .     A
C715   C721    1.458   .     S
C715   O782    1.291   .     A
C716   C718    1.413   .     A
C716   C717    1.421   .     A
C717   C720    1.418   .     A
C717   C742    1.427   .     A
C718   C719    1.400   .     A
C718   O774    1.384   .     S
C719   C731    1.406   .     A
C719   O778    1.386   .     S
C720   O777    1.385   .     S
C720   C731    1.399   .     A
C721   C801    1.348   .     S
C721   H846    1.088   .     S
C722   C879    1.348   1_455 S
C722   O933    1.399   1_455 S
C723   H760    1.083   .     S
C723   C732    1.392   .     A
C723   C730    1.400   .     A
C724   C727    1.453   .     S
C724   C962    1.344   .     S
C724   H985    1.089   .     S
C725   C726    1.443   .     S
C725   C1198   1.344   1_545 S
C725   O1250   1.401   1_545 S
C726   O779    1.275   .     A
C726   O785    1.277   .     A
C727   O786    1.278   .     A
C727   O780    1.267   .     A
C728   C731    1.454   .     S
C728   O772    1.280   .     A
C728   O770    1.277   .     A
C729   C730    1.469   .     S
C729   O773    1.282   .     A
C729   O771    1.280   .     A
C730   C734    1.398   .     A
C732   H756    1.084   .     S
C732   C740    1.403   .     A
C733   H765    1.111   .     S
C733   O774    1.411   .     S
C733   H764    1.113   .     S
C734   H762    1.076   .     S
C734   C739    1.407   .     A
C735   H747    1.109   .     S
C735   O775    1.412   .     S
C735   H825    1.113   .     S
C735   H847    1.112   .     S
C736   H751    1.109   .     S
C736   H749    1.113   .     S
C736   H750    1.112   .     S
C736   O1250   1.412   1_545 S
C737   H754    1.109   .     S
C737   O777    1.411   .     S
C737   H753    1.113   .     S
C737   H752    1.113   .     S
C738   H755    1.117   .     S
C738   H757    1.110   .     S
C738   H758    1.109   .     S
C738   O778    1.415   .     S
C739   C740    1.418   .     A
C739   C741    1.425   .     A
C740   C33     1.391   1_556 S
C741   C31     1.423   1_556 S
C742   C743    1.413   .     A
C743   H763    1.078   .     S
C743   C744    1.387   .     A
C744   H745    1.084   .     S
H746   C893    1.113   1_455 S
H748   C1198   1.089   1_545 S
H766   C22     1.109   1_556 S
H767   C879    1.088   1_455 S
H768   C893    1.112   1_455 S
O769   Zn787   1.960   .     S
O769   Zn788   1.950   .     S
O769   Zn790   1.928   .     S
O769   Zn789   1.947   .     S
O770   Zn788   1.935   .     S
O771   Zn790   1.943   .     S
O772   Zn789   1.936   .     S
O773   Zn787   1.927   .     S
O775   C801    1.399   .     S
O776   C962    1.401   .     S
O776   C973    1.412   .     S
O779   Zn787   1.934   .     S
O780   Zn790   1.940   .     S
O781   Zn788   1.929   .     S
O782   Zn789   1.939   .     S
O783   Zn790   1.940   .     S
O784   Zn787   1.933   .     S
O785   Zn788   1.939   .     S
O786   Zn789   1.931   .     S
C791   C801    1.445   .     S
C791   O862    1.265   .     A
C791   O860    1.270   .     A
C792   H840    1.076   .     S
C792   C820    1.413   .     A
C792   C793    1.385   .     A
C793   H838    1.083   .     S
C793   C84     1.396   1_556 S
C794   O863    1.275   .     A
C794   C800    1.458   .     S
C794   O861    1.291   .     A
C795   C797    1.413   .     A
C795   C796    1.421   .     A
C796   C799    1.418   .     A
C796   C821    1.427   .     A
C797   C798    1.400   .     A
C797   O853    1.384   .     S
C798   C810    1.406   .     A
C798   O857    1.386   .     S
C799   O856    1.385   .     S
C799   C810    1.399   .     A
C800   C880    1.348   .     S
C800   H925    1.088   .     S
C802   H839    1.083   .     S
C802   C811    1.392   .     A
C802   C809    1.400   .     A
C803   C806    1.453   .     S
C803   C1041   1.344   .     S
C803   H1064   1.089   .     S
C804   C805    1.443   .     S
C804   C1277   1.344   1_545 S
C804   O1329   1.401   1_545 S
C805   O858    1.275   .     A
C805   O864    1.277   .     A
C806   O865    1.278   .     A
C806   O859    1.267   .     A
C807   C810    1.454   .     S
C807   O851    1.280   .     A
C807   O849    1.277   .     A
C808   C809    1.469   .     S
C808   O852    1.282   .     A
C808   O850    1.280   .     A
C809   C813    1.398   .     A
C811   H835    1.084   .     S
C811   C819    1.403   .     A
C812   H844    1.111   .     S
C812   O853    1.411   .     S
C812   H843    1.113   .     S
C813   H841    1.076   .     S
C813   C818    1.407   .     A
C814   H826    1.109   .     S
C814   O854    1.412   .     S
C814   H904    1.113   .     S
C814   H926    1.112   .     S
C815   H830    1.109   .     S
C815   H828    1.113   .     S
C815   H829    1.112   .     S
C815   O1329   1.412   1_545 S
C816   H833    1.109   .     S
C816   O856    1.411   .     S
C816   H832    1.113   .     S
C816   H831    1.113   .     S
C817   H834    1.117   .     S
C817   H836    1.110   .     S
C817   H837    1.109   .     S
C817   O857    1.415   .     S
C818   C819    1.418   .     A
C818   C820    1.425   .     A
C819   C112    1.391   1_556 S
C820   C110    1.423   1_556 S
C821   C822    1.413   .     A
C822   H842    1.078   .     S
C822   C823    1.387   .     A
C823   H824    1.084   .     S
H827   C1277   1.089   1_545 S
H845   C101    1.109   1_556 S
O848   Zn866   1.960   .     S
O848   Zn867   1.950   .     S
O848   Zn869   1.928   .     S
O848   Zn868   1.947   .     S
O849   Zn867   1.935   .     S
O850   Zn869   1.943   .     S
O851   Zn868   1.936   .     S
O852   Zn866   1.927   .     S
O854   C880    1.399   .     S
O855   C1041   1.401   .     S
O855   C1052   1.412   .     S
O858   Zn866   1.934   .     S
O859   Zn869   1.940   .     S
O860   Zn867   1.929   .     S
O861   Zn868   1.939   .     S
O862   Zn869   1.940   .     S
O863   Zn866   1.933   .     S
O864   Zn867   1.939   .     S
O865   Zn868   1.931   .     S
C870   C880    1.445   .     S
C870   O941    1.265   .     A
C870   O939    1.270   .     A
C871   H919    1.076   .     S
C871   C899    1.413   .     A
C871   C872    1.385   .     A
C872   H917    1.083   .     S
C872   C163    1.396   1_556 S
C873   O942    1.275   .     A
C873   C879    1.458   .     S
C873   O940    1.291   .     A
C874   C876    1.413   .     A
C874   C875    1.421   .     A
C875   C878    1.418   .     A
C875   C900    1.427   .     A
C876   C877    1.400   .     A
C876   O932    1.384   .     S
C877   C889    1.406   .     A
C877   O936    1.386   .     S
C878   O935    1.385   .     S
C878   C889    1.399   .     A
C879   C722    1.348   1_655 S
C879   H767    1.088   1_655 S
C881   H918    1.083   .     S
C881   C890    1.392   .     A
C881   C888    1.400   .     A
C882   C885    1.453   .     S
C882   C1120   1.344   .     S
C882   H1143   1.089   .     S
C883   C884    1.443   .     S
C883   C1356   1.344   1_545 S
C883   O1408   1.401   1_545 S
C884   O937    1.275   .     A
C884   O943    1.277   .     A
C885   O944    1.278   .     A
C885   O938    1.267   .     A
C886   C889    1.454   .     S
C886   O930    1.280   .     A
C886   O928    1.277   .     A
C887   C888    1.469   .     S
C887   O931    1.282   .     A
C887   O929    1.280   .     A
C888   C892    1.398   .     A
C890   H914    1.084   .     S
C890   C898    1.403   .     A
C891   H923    1.111   .     S
C891   O932    1.411   .     S
C891   H922    1.113   .     S
C892   H920    1.076   .     S
C892   C897    1.407   .     A
C893   H905    1.109   .     S
C893   O933    1.412   .     S
C893   H746    1.113   1_655 S
C893   H768    1.112   1_655 S
C894   H909    1.109   .     S
C894   H907    1.113   .     S
C894   H908    1.112   .     S
C894   O1408   1.412   1_545 S
C895   H912    1.109   .     S
C895   O935    1.411   .     S
C895   H911    1.113   .     S
C895   H910    1.113   .     S
C896   H913    1.117   .     S
C896   H915    1.110   .     S
C896   H916    1.109   .     S
C896   O936    1.415   .     S
C897   C898    1.418   .     A
C897   C899    1.425   .     A
C898   C191    1.391   1_556 S
C899   C189    1.423   1_556 S
C900   C901    1.413   .     A
C901   H921    1.078   .     S
C901   C902    1.387   .     A
C902   H903    1.084   .     S
H906   C1356   1.089   1_545 S
H924   C180    1.109   1_556 S
O927   Zn945   1.960   .     S
O927   Zn946   1.950   .     S
O927   Zn948   1.928   .     S
O927   Zn947   1.947   .     S
O928   Zn946   1.935   .     S
O929   Zn948   1.943   .     S
O930   Zn947   1.936   .     S
O931   Zn945   1.927   .     S
O933   C722    1.399   1_655 S
O934   C1120   1.401   .     S
O934   C1131   1.412   .     S
O937   Zn945   1.934   .     S
O938   Zn948   1.940   .     S
O939   Zn946   1.929   .     S
O940   Zn947   1.939   .     S
O941   Zn948   1.940   .     S
O942   Zn945   1.933   .     S
O943   Zn946   1.939   .     S
O944   Zn947   1.931   .     S
C949   C959    1.445   .     S
C949   O1020   1.265   .     A
C949   O1018   1.270   .     A
C950   H998    1.076   .     S
C950   C978    1.413   .     A
C950   C951    1.385   .     A
C951   H996    1.083   .     S
C951   C242    1.396   1_556 S
C952   O1021   1.275   .     A
C952   C958    1.458   .     S
C952   O1019   1.291   .     A
C953   C955    1.413   .     A
C953   C954    1.421   .     A
C954   C957    1.418   .     A
C954   C979    1.427   .     A
C955   C956    1.400   .     A
C955   O1011   1.384   .     S
C956   C968    1.406   .     A
C956   O1015   1.386   .     S
C957   O1014   1.385   .     S
C957   C968    1.399   .     A
C958   C1038   1.348   .     S
C958   H1083   1.088   .     S
C959   C1116   1.348   1_455 S
C959   O1170   1.399   1_455 S
C960   H997    1.083   .     S
C960   C969    1.392   .     A
C960   C967    1.400   .     A
C961   C964    1.453   .     S
C961   C1199   1.344   .     S
C961   H1222   1.089   .     S
C962   C963    1.443   .     S
C963   O1016   1.275   .     A
C963   O1022   1.277   .     A
C964   O1023   1.278   .     A
C964   O1017   1.267   .     A
C965   C968    1.454   .     S
C965   O1009   1.280   .     A
C965   O1007   1.277   .     A
C966   C967    1.469   .     S
C966   O1010   1.282   .     A
C966   O1008   1.280   .     A
C967   C971    1.398   .     A
C969   H993    1.084   .     S
C969   C977    1.403   .     A
C970   H1002   1.111   .     S
C970   O1011   1.411   .     S
C970   H1001   1.113   .     S
C971   H999    1.076   .     S
C971   C976    1.407   .     A
C972   H984    1.109   .     S
C972   O1012   1.412   .     S
C972   H1062   1.113   .     S
C972   H1084   1.112   .     S
C973   H988    1.109   .     S
C973   H986    1.113   .     S
C973   H987    1.112   .     S
C974   H991    1.109   .     S
C974   O1014   1.411   .     S
C974   H990    1.113   .     S
C974   H989    1.113   .     S
C975   H992    1.117   .     S
C975   H994    1.110   .     S
C975   H995    1.109   .     S
C975   O1015   1.415   .     S
C976   C977    1.418   .     A
C976   C978    1.425   .     A
C977   C270    1.391   1_556 S
C978   C268    1.423   1_556 S
C979   C980    1.413   .     A
C980   H1000   1.078   .     S
C980   C981    1.387   .     A
C981   H982    1.084   .     S
H983   C1130   1.113   1_455 S
H1003  C259    1.109   1_556 S
H1004  C1116   1.088   1_455 S
H1005  C1130   1.112   1_455 S
O1006  Zn1024  1.960   .     S
O1006  Zn1025  1.950   .     S
O1006  Zn1027  1.928   .     S
O1006  Zn1026  1.947   .     S
O1007  Zn1025  1.935   .     S
O1008  Zn1027  1.943   .     S
O1009  Zn1026  1.936   .     S
O1010  Zn1024  1.927   .     S
O1012  C1038   1.399   .     S
O1013  C1199   1.401   .     S
O1013  C1210   1.412   .     S
O1016  Zn1024  1.934   .     S
O1017  Zn1027  1.940   .     S
O1018  Zn1025  1.929   .     S
O1019  Zn1026  1.939   .     S
O1020  Zn1027  1.940   .     S
O1021  Zn1024  1.933   .     S
O1022  Zn1025  1.939   .     S
O1023  Zn1026  1.931   .     S
C1028  C1038   1.445   .     S
C1028  O1099   1.265   .     A
C1028  O1097   1.270   .     A
C1029  H1077   1.076   .     S
C1029  C1057   1.413   .     A
C1029  C1030   1.385   .     A
C1030  H1075   1.083   .     S
C1030  C321    1.396   1_556 S
C1031  O1100   1.275   .     A
C1031  C1037   1.458   .     S
C1031  O1098   1.291   .     A
C1032  C1034   1.413   .     A
C1032  C1033   1.421   .     A
C1033  C1036   1.418   .     A
C1033  C1058   1.427   .     A
C1034  C1035   1.400   .     A
C1034  O1090   1.384   .     S
C1035  C1047   1.406   .     A
C1035  O1094   1.386   .     S
C1036  O1093   1.385   .     S
C1036  C1047   1.399   .     A
C1037  C1117   1.348   .     S
C1037  H1162   1.088   .     S
C1039  H1076   1.083   .     S
C1039  C1048   1.392   .     A
C1039  C1046   1.400   .     A
C1040  C1043   1.453   .     S
C1040  C1278   1.344   .     S
C1040  H1301   1.089   .     S
C1041  C1042   1.443   .     S
C1042  O1095   1.275   .     A
C1042  O1101   1.277   .     A
C1043  O1102   1.278   .     A
C1043  O1096   1.267   .     A
C1044  C1047   1.454   .     S
C1044  O1088   1.280   .     A
C1044  O1086   1.277   .     A
C1045  C1046   1.469   .     S
C1045  O1089   1.282   .     A
C1045  O1087   1.280   .     A
C1046  C1050   1.398   .     A
C1048  H1072   1.084   .     S
C1048  C1056   1.403   .     A
C1049  H1081   1.111   .     S
C1049  O1090   1.411   .     S
C1049  H1080   1.113   .     S
C1050  H1078   1.076   .     S
C1050  C1055   1.407   .     A
C1051  H1063   1.109   .     S
C1051  O1091   1.412   .     S
C1051  H1141   1.113   .     S
C1051  H1163   1.112   .     S
C1052  H1067   1.109   .     S
C1052  H1065   1.113   .     S
C1052  H1066   1.112   .     S
C1053  H1070   1.109   .     S
C1053  O1093   1.411   .     S
C1053  H1069   1.113   .     S
C1053  H1068   1.113   .     S
C1054  H1071   1.117   .     S
C1054  H1073   1.110   .     S
C1054  H1074   1.109   .     S
C1054  O1094   1.415   .     S
C1055  C1056   1.418   .     A
C1055  C1057   1.425   .     A
C1056  C349    1.391   1_556 S
C1057  C347    1.423   1_556 S
C1058  C1059   1.413   .     A
C1059  H1079   1.078   .     S
C1059  C1060   1.387   .     A
C1060  H1061   1.084   .     S
H1082  C338    1.109   1_556 S
O1085  Zn1103  1.960   .     S
O1085  Zn1104  1.950   .     S
O1085  Zn1106  1.928   .     S
O1085  Zn1105  1.947   .     S
O1086  Zn1104  1.935   .     S
O1087  Zn1106  1.943   .     S
O1088  Zn1105  1.936   .     S
O1089  Zn1103  1.927   .     S
O1091  C1117   1.399   .     S
O1092  C1278   1.401   .     S
O1092  C1289   1.412   .     S
O1095  Zn1103  1.934   .     S
O1096  Zn1106  1.940   .     S
O1097  Zn1104  1.929   .     S
O1098  Zn1105  1.939   .     S
O1099  Zn1106  1.940   .     S
O1100  Zn1103  1.933   .     S
O1101  Zn1104  1.939   .     S
O1102  Zn1105  1.931   .     S
C1107  C1117   1.445   .     S
C1107  O1178   1.265   .     A
C1107  O1176   1.270   .     A
C1108  H1156   1.076   .     S
C1108  C1136   1.413   .     A
C1108  C1109   1.385   .     A
C1109  H1154   1.083   .     S
C1109  C400    1.396   1_556 S
C1110  O1179   1.275   .     A
C1110  C1116   1.458   .     S
C1110  O1177   1.291   .     A
C1111  C1113   1.413   .     A
C1111  C1112   1.421   .     A
C1112  C1115   1.418   .     A
C1112  C1137   1.427   .     A
C1113  C1114   1.400   .     A
C1113  O1169   1.384   .     S
C1114  C1126   1.406   .     A
C1114  O1173   1.386   .     S
C1115  O1172   1.385   .     S
C1115  C1126   1.399   .     A
C1116  C959    1.348   1_655 S
C1116  H1004   1.088   1_655 S
C1118  H1155   1.083   .     S
C1118  C1127   1.392   .     A
C1118  C1125   1.400   .     A
C1119  C1122   1.453   .     S
C1119  C1357   1.344   .     S
C1119  H1380   1.089   .     S
C1120  C1121   1.443   .     S
C1121  O1174   1.275   .     A
C1121  O1180   1.277   .     A
C1122  O1181   1.278   .     A
C1122  O1175   1.267   .     A
C1123  C1126   1.454   .     S
C1123  O1167   1.280   .     A
C1123  O1165   1.277   .     A
C1124  C1125   1.469   .     S
C1124  O1168   1.282   .     A
C1124  O1166   1.280   .     A
C1125  C1129   1.398   .     A
C1127  H1151   1.084   .     S
C1127  C1135   1.403   .     A
C1128  H1160   1.111   .     S
C1128  O1169   1.411   .     S
C1128  H1159   1.113   .     S
C1129  H1157   1.076   .     S
C1129  C1134   1.407   .     A
C1130  H1142   1.109   .     S
C1130  O1170   1.412   .     S
C1130  H983    1.113   1_655 S
C1130  H1005   1.112   1_655 S
C1131  H1146   1.109   .     S
C1131  H1144   1.113   .     S
C1131  H1145   1.112   .     S
C1132  H1149   1.109   .     S
C1132  O1172   1.411   .     S
C1132  H1148   1.113   .     S
C1132  H1147   1.113   .     S
C1133  H1150   1.117   .     S
C1133  H1152   1.110   .     S
C1133  H1153   1.109   .     S
C1133  O1173   1.415   .     S
C1134  C1135   1.418   .     A
C1134  C1136   1.425   .     A
C1135  C428    1.391   1_556 S
C1136  C426    1.423   1_556 S
C1137  C1138   1.413   .     A
C1138  H1158   1.078   .     S
C1138  C1139   1.387   .     A
C1139  H1140   1.084   .     S
H1161  C417    1.109   1_556 S
O1164  Zn1182  1.960   .     S
O1164  Zn1183  1.950   .     S
O1164  Zn1185  1.928   .     S
O1164  Zn1184  1.947   .     S
O1165  Zn1183  1.935   .     S
O1166  Zn1185  1.943   .     S
O1167  Zn1184  1.936   .     S
O1168  Zn1182  1.927   .     S
O1170  C959    1.399   1_655 S
O1171  C1357   1.401   .     S
O1171  C1368   1.412   .     S
O1174  Zn1182  1.934   .     S
O1175  Zn1185  1.940   .     S
O1176  Zn1183  1.929   .     S
O1177  Zn1184  1.939   .     S
O1178  Zn1185  1.940   .     S
O1179  Zn1182  1.933   .     S
O1180  Zn1183  1.939   .     S
O1181  Zn1184  1.931   .     S
C1186  C1196   1.445   .     S
C1186  O1257   1.265   .     A
C1186  O1255   1.270   .     A
C1187  H1235   1.076   .     S
C1187  C1215   1.413   .     A
C1187  C1188   1.385   .     A
C1188  H1233   1.083   .     S
C1188  C479    1.396   1_556 S
C1189  O1258   1.275   .     A
C1189  C1195   1.458   .     S
C1189  O1256   1.291   .     A
C1190  C1192   1.413   .     A
C1190  C1191   1.421   .     A
C1191  C1194   1.418   .     A
C1191  C1216   1.427   .     A
C1192  C1193   1.400   .     A
C1192  O1248   1.384   .     S
C1193  C1205   1.406   .     A
C1193  O1252   1.386   .     S
C1194  O1251   1.385   .     S
C1194  C1205   1.399   .     A
C1195  C1275   1.348   .     S
C1195  H1320   1.088   .     S
C1196  C1353   1.348   1_455 S
C1196  O1407   1.399   1_455 S
C1197  H1234   1.083   .     S
C1197  C1206   1.392   .     A
C1197  C1204   1.400   .     A
C1198  C1201   1.453   .     S
C1198  C725    1.344   1_565 S
C1198  H748    1.089   1_565 S
C1199  C1200   1.443   .     S
C1200  O1253   1.275   .     A
C1200  O1259   1.277   .     A
C1201  O1260   1.278   .     A
C1201  O1254   1.267   .     A
C1202  C1205   1.454   .     S
C1202  O1246   1.280   .     A
C1202  O1244   1.277   .     A
C1203  C1204   1.469   .     S
C1203  O1247   1.282   .     A
C1203  O1245   1.280   .     A
C1204  C1208   1.398   .     A
C1206  H1230   1.084   .     S
C1206  C1214   1.403   .     A
C1207  H1239   1.111   .     S
C1207  O1248   1.411   .     S
C1207  H1238   1.113   .     S
C1208  H1236   1.076   .     S
C1208  C1213   1.407   .     A
C1209  H1221   1.109   .     S
C1209  O1249   1.412   .     S
C1209  H1299   1.113   .     S
C1209  H1321   1.112   .     S
C1210  H1225   1.109   .     S
C1210  H1223   1.113   .     S
C1210  H1224   1.112   .     S
C1211  H1228   1.109   .     S
C1211  O1251   1.411   .     S
C1211  H1227   1.113   .     S
C1211  H1226   1.113   .     S
C1212  H1229   1.117   .     S
C1212  H1231   1.110   .     S
C1212  H1232   1.109   .     S
C1212  O1252   1.415   .     S
C1213  C1214   1.418   .     A
C1213  C1215   1.425   .     A
C1214  C507    1.391   1_556 S
C1215  C505    1.423   1_556 S
C1216  C1217   1.413   .     A
C1217  H1237   1.078   .     S
C1217  C1218   1.387   .     A
C1218  H1219   1.084   .     S
H1220  C1367   1.113   1_455 S
H1240  C496    1.109   1_556 S
H1241  C1353   1.088   1_455 S
H1242  C1367   1.112   1_455 S
O1243  Zn1261  1.960   .     S
O1243  Zn1262  1.950   .     S
O1243  Zn1264  1.928   .     S
O1243  Zn1263  1.947   .     S
O1244  Zn1262  1.935   .     S
O1245  Zn1264  1.943   .     S
O1246  Zn1263  1.936   .     S
O1247  Zn1261  1.927   .     S
O1249  C1275   1.399   .     S
O1250  C725    1.401   1_565 S
O1250  C736    1.412   1_565 S
O1253  Zn1261  1.934   .     S
O1254  Zn1264  1.940   .     S
O1255  Zn1262  1.929   .     S
O1256  Zn1263  1.939   .     S
O1257  Zn1264  1.940   .     S
O1258  Zn1261  1.933   .     S
O1259  Zn1262  1.939   .     S
O1260  Zn1263  1.931   .     S
C1265  C1275   1.445   .     S
C1265  O1336   1.265   .     A
C1265  O1334   1.270   .     A
C1266  H1314   1.076   .     S
C1266  C1294   1.413   .     A
C1266  C1267   1.385   .     A
C1267  H1312   1.083   .     S
C1267  C558    1.396   1_556 S
C1268  O1337   1.275   .     A
C1268  C1274   1.458   .     S
C1268  O1335   1.291   .     A
C1269  C1271   1.413   .     A
C1269  C1270   1.421   .     A
C1270  C1273   1.418   .     A
C1270  C1295   1.427   .     A
C1271  C1272   1.400   .     A
C1271  O1327   1.384   .     S
C1272  C1284   1.406   .     A
C1272  O1331   1.386   .     S
C1273  O1330   1.385   .     S
C1273  C1284   1.399   .     A
C1274  C1354   1.348   .     S
C1274  H1399   1.088   .     S
C1276  H1313   1.083   .     S
C1276  C1285   1.392   .     A
C1276  C1283   1.400   .     A
C1277  C1280   1.453   .     S
C1277  C804    1.344   1_565 S
C1277  H827    1.089   1_565 S
C1278  C1279   1.443   .     S
C1279  O1332   1.275   .     A
C1279  O1338   1.277   .     A
C1280  O1339   1.278   .     A
C1280  O1333   1.267   .     A
C1281  C1284   1.454   .     S
C1281  O1325   1.280   .     A
C1281  O1323   1.277   .     A
C1282  C1283   1.469   .     S
C1282  O1326   1.282   .     A
C1282  O1324   1.280   .     A
C1283  C1287   1.398   .     A
C1285  H1309   1.084   .     S
C1285  C1293   1.403   .     A
C1286  H1318   1.111   .     S
C1286  O1327   1.411   .     S
C1286  H1317   1.113   .     S
C1287  H1315   1.076   .     S
C1287  C1292   1.407   .     A
C1288  H1300   1.109   .     S
C1288  O1328   1.412   .     S
C1288  H1378   1.113   .     S
C1288  H1400   1.112   .     S
C1289  H1304   1.109   .     S
C1289  H1302   1.113   .     S
C1289  H1303   1.112   .     S
C1290  H1307   1.109   .     S
C1290  O1330   1.411   .     S
C1290  H1306   1.113   .     S
C1290  H1305   1.113   .     S
C1291  H1308   1.117   .     S
C1291  H1310   1.110   .     S
C1291  H1311   1.109   .     S
C1291  O1331   1.415   .     S
C1292  C1293   1.418   .     A
C1292  C1294   1.425   .     A
C1293  C586    1.391   1_556 S
C1294  C584    1.423   1_556 S
C1295  C1296   1.413   .     A
C1296  H1316   1.078   .     S
C1296  C1297   1.387   .     A
C1297  H1298   1.084   .     S
H1319  C575    1.109   1_556 S
O1322  Zn1340  1.960   .     S
O1322  Zn1341  1.950   .     S
O1322  Zn1343  1.928   .     S
O1322  Zn1342  1.947   .     S
O1323  Zn1341  1.935   .     S
O1324  Zn1343  1.943   .     S
O1325  Zn1342  1.936   .     S
O1326  Zn1340  1.927   .     S
O1328  C1354   1.399   .     S
O1329  C804    1.401   1_565 S
O1329  C815    1.412   1_565 S
O1332  Zn1340  1.934   .     S
O1333  Zn1343  1.940   .     S
O1334  Zn1341  1.929   .     S
O1335  Zn1342  1.939   .     S
O1336  Zn1343  1.940   .     S
O1337  Zn1340  1.933   .     S
O1338  Zn1341  1.939   .     S
O1339  Zn1342  1.931   .     S
C1344  C1354   1.445   .     S
C1344  O1415   1.265   .     A
C1344  O1413   1.270   .     A
C1345  H1393   1.076   .     S
C1345  C1373   1.413   .     A
C1345  C1346   1.385   .     A
C1346  H1391   1.083   .     S
C1346  C637    1.396   1_556 S
C1347  O1416   1.275   .     A
C1347  C1353   1.458   .     S
C1347  O1414   1.291   .     A
C1348  C1350   1.413   .     A
C1348  C1349   1.421   .     A
C1349  C1352   1.418   .     A
C1349  C1374   1.427   .     A
C1350  C1351   1.400   .     A
C1350  O1406   1.384   .     S
C1351  C1363   1.406   .     A
C1351  O1410   1.386   .     S
C1352  O1409   1.385   .     S
C1352  C1363   1.399   .     A
C1353  C1196   1.348   1_655 S
C1353  H1241   1.088   1_655 S
C1355  H1392   1.083   .     S
C1355  C1364   1.392   .     A
C1355  C1362   1.400   .     A
C1356  C1359   1.453   .     S
C1356  C883    1.344   1_565 S
C1356  H906    1.089   1_565 S
C1357  C1358   1.443   .     S
C1358  O1411   1.275   .     A
C1358  O1417   1.277   .     A
C1359  O1418   1.278   .     A
C1359  O1412   1.267   .     A
C1360  C1363   1.454   .     S
C1360  O1404   1.280   .     A
C1360  O1402   1.277   .     A
C1361  C1362   1.469   .     S
C1361  O1405   1.282   .     A
C1361  O1403   1.280   .     A
C1362  C1366   1.398   .     A
C1364  H1388   1.084   .     S
C1364  C1372   1.403   .     A
C1365  H1397   1.111   .     S
C1365  O1406   1.411   .     S
C1365  H1396   1.113   .     S
C1366  H1394   1.076   .     S
C1366  C1371   1.407   .     A
C1367  H1379   1.109   .     S
C1367  O1407   1.412   .     S
C1367  H1220   1.113   1_655 S
C1367  H1242   1.112   1_655 S
C1368  H1383   1.109   .     S
C1368  H1381   1.113   .     S
C1368  H1382   1.112   .     S
C1369  H1386   1.109   .     S
C1369  O1409   1.411   .     S
C1369  H1385   1.113   .     S
C1369  H1384   1.113   .     S
C1370  H1387   1.117   .     S
C1370  H1389   1.110   .     S
C1370  H1390   1.109   .     S
C1370  O1410   1.415   .     S
C1371  C1372   1.418   .     A
C1371  C1373   1.425   .     A
C1372  C665    1.391   1_556 S
C1373  C663    1.423   1_556 S
C1374  C1375   1.413   .     A
C1375  H1395   1.078   .     S
C1375  C1376   1.387   .     A
C1376  H1377   1.084   .     S
H1398  C654    1.109   1_556 S
O1401  Zn1419  1.960   .     S
O1401  Zn1420  1.950   .     S
O1401  Zn1422  1.928   .     S
O1401  Zn1421  1.947   .     S
O1402  Zn1420  1.935   .     S
O1403  Zn1422  1.943   .     S
O1404  Zn1421  1.936   .     S
O1405  Zn1419  1.927   .     S
O1407  C1196   1.399   1_655 S
O1408  C883    1.401   1_565 S
O1408  C894    1.412   1_565 S
O1411  Zn1419  1.934   .     S
O1412  Zn1422  1.940   .     S
O1413  Zn1420  1.929   .     S
O1414  Zn1421  1.939   .     S
O1415  Zn1422  1.940   .     S
O1416  Zn1419  1.933   .     S
O1417  Zn1420  1.939   .     S
O1418  Zn1421  1.931   .     S
