data_str_m2_o10_o17_pcu_sym.166
_audit_creation_date              2020-01-03
_audit_creation_method            'Materials Studio'
_symmetry_space_group_name_H-M    'P1'
_symmetry_Int_Tables_number       1
_symmetry_cell_setting            triclinic
loop_
_symmetry_equiv_pos_as_xyz
  x,y,z
_cell_length_a                    29.8917
_cell_length_b                    25.9902
_cell_length_c                    22.3354
_cell_angle_alpha                 103.0042
_cell_angle_beta                  93.8539
_cell_angle_gamma                 92.2538
loop_
_atom_site_label
_atom_site_type_symbol
_atom_site_fract_x
_atom_site_fract_y
_atom_site_fract_z
_atom_site_U_iso_or_equiv
_atom_site_adp_type
_atom_site_occupancy
C1     C     0.24865   0.06657   0.15107   0.00000  Uiso   1.00
C2     C     0.25135   0.26676   0.18226   0.00000  Uiso   1.00
C3     C     0.01886   0.07067   0.13258   0.00000  Uiso   1.00
C4     C     0.48113   0.26267   0.20075   0.00000  Uiso   1.00
C5     C     0.24801   0.01057   0.14230   0.00000  Uiso   1.00
C6     C     0.25198   0.32276   0.19103   0.00000  Uiso   1.00
C7     C     0.16457   0.16672   0.16768   0.00000  Uiso   1.00
C8     C     0.33543   0.16661   0.16566   0.00000  Uiso   1.00
C9     C     0.40884   0.21438   0.18183   0.00000  Uiso   1.00
C10    C     0.09116   0.11895   0.15150   0.00000  Uiso   1.00
C11    C     0.38345   0.16660   0.16356   0.00000  Uiso   1.00
C12    C     0.11655   0.16674   0.16977   0.00000  Uiso   1.00
C13    C     0.40380   0.11870   0.14575   0.00000  Uiso   1.00
C14    C     0.09620   0.21463   0.18759   0.00000  Uiso   1.00
C15    C     0.45059   0.11797   0.14691   0.00000  Uiso   1.00
C16    C     0.04941   0.21536   0.18642   0.00000  Uiso   1.00
C17    C     0.47653   0.16650   0.16579   0.00000  Uiso   1.00
C18    C     0.02347   0.16683   0.16755   0.00000  Uiso   1.00
C19    C     0.45546   0.21477   0.18287   0.00000  Uiso   1.00
C20    C     0.04454   0.11857   0.15046   0.00000  Uiso   1.00
C21    C     0.47181   0.06993   0.12957   0.00000  Uiso   1.00
C22    C     0.02819   0.26340   0.20377   0.00000  Uiso   1.00
Cu23   Cu    0.25500   0.17246   0.22813   0.00000  Uiso   1.00
Cu24   Cu    0.24499   0.16087   0.10521   0.00000  Uiso   1.00
H25    H     0.39217   0.25108   0.19548   0.00000  Uiso   1.00
H26    H     0.10783   0.08225   0.13785   0.00000  Uiso   1.00
H27    H     0.38297   0.08226   0.13188   0.00000  Uiso   1.00
H28    H     0.11703   0.25107   0.20145   0.00000  Uiso   1.00
H29    H     0.03544   0.03376   0.12154   0.00000  Uiso   1.00
H30    H     0.46456   0.29957   0.21179   0.00000  Uiso   1.00
H31    H     0.24428   0.31998   0.09537   0.00000  Uiso   1.00
H32    H     0.25572   0.01335   0.23797   0.00000  Uiso   1.00
H33    H     0.21497   0.12599   0.31625   0.00000  Uiso   1.00
H34    H     0.28503   0.20735   0.01709   0.00000  Uiso   1.00
N35    N     0.23744   0.15214   0.01284   0.00000  Uiso   1.00
N36    N     0.26255   0.18119   0.32049   0.00000  Uiso   1.00
O37    O     0.25325   0.09538   0.20659   0.00000  Uiso   1.00
O38    O     0.24674   0.23796   0.12674   0.00000  Uiso   1.00
O39    O     0.24480   0.08559   0.10279   0.00000  Uiso   1.00
O40    O     0.25520   0.24774   0.23055   0.00000  Uiso   1.00
O41    O     0.18935   0.17155   0.21857   0.00000  Uiso   1.00
O42    O     0.31064   0.16179   0.11476   0.00000  Uiso   1.00
O43    O     0.18090   0.16176   0.11477   0.00000  Uiso   1.00
O44    O     0.31910   0.17157   0.21857   0.00000  Uiso   1.00
O45    O     0.44642   0.02234   0.11512   0.00000  Uiso   1.00
C46    C     0.45128   0.32942   0.05344   0.00000  Uiso   1.00
H47    H     0.48530   0.31391   0.04843   0.00000  Uiso   1.00
H48    H     0.44520   0.02282   0.02139   0.00000  Uiso   1.00
C49    C     0.41712   0.28261   0.03481   0.00000  Uiso   1.00
H50    H     0.38254   0.29651   0.03872   0.00000  Uiso   1.00
H51    H     0.42063   0.26162   0.31971   0.00000  Uiso   1.00
H52    H     0.42277   0.25460   0.06513   0.00000  Uiso   1.00
O53    O     0.05358   0.31099   0.21821   0.00000  Uiso   1.00
C54    C     0.04876   0.00387   0.27992   0.00000  Uiso   1.00
H55    H     0.05494   0.31046   0.31193   0.00000  Uiso   1.00
H56    H     0.01473   0.01932   0.28501   0.00000  Uiso   1.00
C57    C     0.08287   0.05074   0.29850   0.00000  Uiso   1.00
H58    H     0.07713   0.07875   0.26819   0.00000  Uiso   1.00
H59    H     0.07938   0.07171   0.01361   0.00000  Uiso   1.00
H60    H     0.11746   0.03690   0.29452   0.00000  Uiso   1.00
C61    C     0.74865   0.06657   0.15107   0.00000  Uiso   1.00
C62    C     0.75135   0.26676   0.18226   0.00000  Uiso   1.00
C63    C     0.51886   0.07067   0.13258   0.00000  Uiso   1.00
C64    C     0.98113   0.26267   0.20075   0.00000  Uiso   1.00
C65    C     0.74801   0.01057   0.14230   0.00000  Uiso   1.00
C66    C     0.75198   0.32276   0.19103   0.00000  Uiso   1.00
C67    C     0.66457   0.16672   0.16768   0.00000  Uiso   1.00
C68    C     0.83543   0.16661   0.16566   0.00000  Uiso   1.00
C69    C     0.90884   0.21438   0.18183   0.00000  Uiso   1.00
C70    C     0.59116   0.11895   0.15150   0.00000  Uiso   1.00
C71    C     0.88345   0.16660   0.16356   0.00000  Uiso   1.00
C72    C     0.61655   0.16674   0.16977   0.00000  Uiso   1.00
C73    C     0.90380   0.11870   0.14575   0.00000  Uiso   1.00
C74    C     0.59620   0.21463   0.18759   0.00000  Uiso   1.00
C75    C     0.95059   0.11797   0.14691   0.00000  Uiso   1.00
C76    C     0.54941   0.21536   0.18642   0.00000  Uiso   1.00
C77    C     0.97653   0.16650   0.16579   0.00000  Uiso   1.00
C78    C     0.52347   0.16683   0.16755   0.00000  Uiso   1.00
C79    C     0.95546   0.21477   0.18287   0.00000  Uiso   1.00
C80    C     0.54454   0.11857   0.15046   0.00000  Uiso   1.00
C81    C     0.97181   0.06993   0.12957   0.00000  Uiso   1.00
C82    C     0.52819   0.26340   0.20377   0.00000  Uiso   1.00
Cu83   Cu    0.75500   0.17246   0.22813   0.00000  Uiso   1.00
Cu84   Cu    0.74499   0.16087   0.10521   0.00000  Uiso   1.00
H85    H     0.89217   0.25108   0.19548   0.00000  Uiso   1.00
H86    H     0.60783   0.08225   0.13785   0.00000  Uiso   1.00
H87    H     0.88297   0.08226   0.13188   0.00000  Uiso   1.00
H88    H     0.61703   0.25107   0.20145   0.00000  Uiso   1.00
H89    H     0.53544   0.03376   0.12154   0.00000  Uiso   1.00
H90    H     0.96456   0.29957   0.21179   0.00000  Uiso   1.00
H91    H     0.74428   0.31998   0.09537   0.00000  Uiso   1.00
H92    H     0.75572   0.01335   0.23797   0.00000  Uiso   1.00
H93    H     0.71497   0.12599   0.31625   0.00000  Uiso   1.00
H94    H     0.78503   0.20735   0.01709   0.00000  Uiso   1.00
N95    N     0.73744   0.15214   0.01284   0.00000  Uiso   1.00
N96    N     0.76255   0.18119   0.32049   0.00000  Uiso   1.00
O97    O     0.75325   0.09538   0.20659   0.00000  Uiso   1.00
O98    O     0.74674   0.23796   0.12674   0.00000  Uiso   1.00
O99    O     0.74480   0.08559   0.10279   0.00000  Uiso   1.00
O100   O     0.75520   0.24774   0.23055   0.00000  Uiso   1.00
O101   O     0.68935   0.17155   0.21857   0.00000  Uiso   1.00
O102   O     0.81064   0.16179   0.11476   0.00000  Uiso   1.00
O103   O     0.68090   0.16176   0.11477   0.00000  Uiso   1.00
O104   O     0.81910   0.17157   0.21857   0.00000  Uiso   1.00
O105   O     0.94642   0.02234   0.11512   0.00000  Uiso   1.00
C106   C     0.95128   0.32942   0.05344   0.00000  Uiso   1.00
H107   H     0.98530   0.31391   0.04843   0.00000  Uiso   1.00
H108   H     0.94520   0.02282   0.02139   0.00000  Uiso   1.00
C109   C     0.91712   0.28261   0.03481   0.00000  Uiso   1.00
H110   H     0.88254   0.29651   0.03872   0.00000  Uiso   1.00
H111   H     0.92063   0.26162   0.31971   0.00000  Uiso   1.00
H112   H     0.92277   0.25460   0.06513   0.00000  Uiso   1.00
O113   O     0.55358   0.31099   0.21821   0.00000  Uiso   1.00
C114   C     0.54876   0.00387   0.27992   0.00000  Uiso   1.00
H115   H     0.55494   0.31046   0.31193   0.00000  Uiso   1.00
H116   H     0.51473   0.01932   0.28501   0.00000  Uiso   1.00
C117   C     0.58287   0.05074   0.29850   0.00000  Uiso   1.00
H118   H     0.57713   0.07875   0.26819   0.00000  Uiso   1.00
H119   H     0.57938   0.07171   0.01361   0.00000  Uiso   1.00
H120   H     0.61746   0.03690   0.29452   0.00000  Uiso   1.00
C121   C     0.24865   0.39990   0.15107   0.00000  Uiso   1.00
C122   C     0.25135   0.60010   0.18226   0.00000  Uiso   1.00
C123   C     0.01886   0.40400   0.13258   0.00000  Uiso   1.00
C124   C     0.48113   0.59600   0.20075   0.00000  Uiso   1.00
C125   C     0.24801   0.34390   0.14230   0.00000  Uiso   1.00
C126   C     0.25198   0.65610   0.19103   0.00000  Uiso   1.00
C127   C     0.16457   0.50005   0.16768   0.00000  Uiso   1.00
C128   C     0.33543   0.49995   0.16566   0.00000  Uiso   1.00
C129   C     0.40884   0.54771   0.18183   0.00000  Uiso   1.00
C130   C     0.09116   0.45228   0.15150   0.00000  Uiso   1.00
C131   C     0.38345   0.49993   0.16356   0.00000  Uiso   1.00
C132   C     0.11655   0.50007   0.16977   0.00000  Uiso   1.00
C133   C     0.40380   0.45204   0.14575   0.00000  Uiso   1.00
C134   C     0.09620   0.54796   0.18759   0.00000  Uiso   1.00
C135   C     0.45059   0.45131   0.14691   0.00000  Uiso   1.00
C136   C     0.04941   0.54869   0.18642   0.00000  Uiso   1.00
C137   C     0.47653   0.49983   0.16579   0.00000  Uiso   1.00
C138   C     0.02347   0.50017   0.16755   0.00000  Uiso   1.00
C139   C     0.45546   0.54810   0.18287   0.00000  Uiso   1.00
C140   C     0.04454   0.45190   0.15046   0.00000  Uiso   1.00
C141   C     0.47181   0.40327   0.12957   0.00000  Uiso   1.00
C142   C     0.02819   0.59673   0.20377   0.00000  Uiso   1.00
Cu143  Cu    0.25500   0.50579   0.22813   0.00000  Uiso   1.00
Cu144  Cu    0.24499   0.49421   0.10521   0.00000  Uiso   1.00
H145   H     0.39217   0.58442   0.19548   0.00000  Uiso   1.00
H146   H     0.10783   0.41558   0.13785   0.00000  Uiso   1.00
H147   H     0.38297   0.41560   0.13188   0.00000  Uiso   1.00
H148   H     0.11703   0.58440   0.20145   0.00000  Uiso   1.00
H149   H     0.03544   0.36710   0.12154   0.00000  Uiso   1.00
H150   H     0.46456   0.63291   0.21179   0.00000  Uiso   1.00
H151   H     0.24428   0.65331   0.09537   0.00000  Uiso   1.00
H152   H     0.25572   0.34669   0.23797   0.00000  Uiso   1.00
H153   H     0.21497   0.45932   0.31625   0.00000  Uiso   1.00
H154   H     0.28503   0.54068   0.01709   0.00000  Uiso   1.00
N155   N     0.23744   0.48547   0.01284   0.00000  Uiso   1.00
N156   N     0.26255   0.51453   0.32049   0.00000  Uiso   1.00
O157   O     0.25325   0.42871   0.20659   0.00000  Uiso   1.00
O158   O     0.24674   0.57129   0.12674   0.00000  Uiso   1.00
O159   O     0.24480   0.41892   0.10279   0.00000  Uiso   1.00
O160   O     0.25520   0.58108   0.23055   0.00000  Uiso   1.00
O161   O     0.18935   0.50488   0.21857   0.00000  Uiso   1.00
O162   O     0.31064   0.49512   0.11476   0.00000  Uiso   1.00
O163   O     0.18090   0.49510   0.11477   0.00000  Uiso   1.00
O164   O     0.31910   0.50490   0.21857   0.00000  Uiso   1.00
O165   O     0.44642   0.35568   0.11512   0.00000  Uiso   1.00
C166   C     0.45128   0.66276   0.05344   0.00000  Uiso   1.00
H167   H     0.48530   0.64724   0.04843   0.00000  Uiso   1.00
H168   H     0.44520   0.35615   0.02139   0.00000  Uiso   1.00
C169   C     0.41712   0.61594   0.03481   0.00000  Uiso   1.00
H170   H     0.38254   0.62985   0.03872   0.00000  Uiso   1.00
H171   H     0.42063   0.59495   0.31971   0.00000  Uiso   1.00
H172   H     0.42277   0.58794   0.06513   0.00000  Uiso   1.00
O173   O     0.05358   0.64432   0.21821   0.00000  Uiso   1.00
C174   C     0.04876   0.33720   0.27992   0.00000  Uiso   1.00
H175   H     0.05494   0.64380   0.31193   0.00000  Uiso   1.00
H176   H     0.01473   0.35265   0.28501   0.00000  Uiso   1.00
C177   C     0.08287   0.38408   0.29850   0.00000  Uiso   1.00
H178   H     0.07713   0.41208   0.26819   0.00000  Uiso   1.00
H179   H     0.07938   0.40504   0.01361   0.00000  Uiso   1.00
H180   H     0.11746   0.37024   0.29452   0.00000  Uiso   1.00
C181   C     0.74865   0.39990   0.15107   0.00000  Uiso   1.00
C182   C     0.75135   0.60010   0.18226   0.00000  Uiso   1.00
C183   C     0.51886   0.40400   0.13258   0.00000  Uiso   1.00
C184   C     0.98113   0.59600   0.20075   0.00000  Uiso   1.00
C185   C     0.74801   0.34390   0.14230   0.00000  Uiso   1.00
C186   C     0.75198   0.65610   0.19103   0.00000  Uiso   1.00
C187   C     0.66457   0.50005   0.16768   0.00000  Uiso   1.00
C188   C     0.83543   0.49995   0.16566   0.00000  Uiso   1.00
C189   C     0.90884   0.54771   0.18183   0.00000  Uiso   1.00
C190   C     0.59116   0.45228   0.15150   0.00000  Uiso   1.00
C191   C     0.88345   0.49993   0.16356   0.00000  Uiso   1.00
C192   C     0.61655   0.50007   0.16977   0.00000  Uiso   1.00
C193   C     0.90380   0.45204   0.14575   0.00000  Uiso   1.00
C194   C     0.59620   0.54796   0.18759   0.00000  Uiso   1.00
C195   C     0.95059   0.45131   0.14691   0.00000  Uiso   1.00
C196   C     0.54941   0.54869   0.18642   0.00000  Uiso   1.00
C197   C     0.97653   0.49983   0.16579   0.00000  Uiso   1.00
C198   C     0.52347   0.50017   0.16755   0.00000  Uiso   1.00
C199   C     0.95546   0.54810   0.18287   0.00000  Uiso   1.00
C200   C     0.54454   0.45190   0.15046   0.00000  Uiso   1.00
C201   C     0.97181   0.40327   0.12957   0.00000  Uiso   1.00
C202   C     0.52819   0.59673   0.20377   0.00000  Uiso   1.00
Cu203  Cu    0.75500   0.50579   0.22813   0.00000  Uiso   1.00
Cu204  Cu    0.74499   0.49421   0.10521   0.00000  Uiso   1.00
H205   H     0.89217   0.58442   0.19548   0.00000  Uiso   1.00
H206   H     0.60783   0.41558   0.13785   0.00000  Uiso   1.00
H207   H     0.88297   0.41560   0.13188   0.00000  Uiso   1.00
H208   H     0.61703   0.58440   0.20145   0.00000  Uiso   1.00
H209   H     0.53544   0.36710   0.12154   0.00000  Uiso   1.00
H210   H     0.96456   0.63291   0.21179   0.00000  Uiso   1.00
H211   H     0.74428   0.65331   0.09537   0.00000  Uiso   1.00
H212   H     0.75572   0.34669   0.23797   0.00000  Uiso   1.00
H213   H     0.71497   0.45932   0.31625   0.00000  Uiso   1.00
H214   H     0.78503   0.54068   0.01709   0.00000  Uiso   1.00
N215   N     0.73744   0.48547   0.01284   0.00000  Uiso   1.00
N216   N     0.76255   0.51453   0.32049   0.00000  Uiso   1.00
O217   O     0.75325   0.42871   0.20659   0.00000  Uiso   1.00
O218   O     0.74674   0.57129   0.12674   0.00000  Uiso   1.00
O219   O     0.74480   0.41892   0.10279   0.00000  Uiso   1.00
O220   O     0.75520   0.58108   0.23055   0.00000  Uiso   1.00
O221   O     0.68935   0.50488   0.21857   0.00000  Uiso   1.00
O222   O     0.81064   0.49512   0.11476   0.00000  Uiso   1.00
O223   O     0.68090   0.49510   0.11477   0.00000  Uiso   1.00
O224   O     0.81910   0.50490   0.21857   0.00000  Uiso   1.00
O225   O     0.94642   0.35568   0.11512   0.00000  Uiso   1.00
C226   C     0.95128   0.66276   0.05344   0.00000  Uiso   1.00
H227   H     0.98530   0.64724   0.04843   0.00000  Uiso   1.00
H228   H     0.94520   0.35615   0.02139   0.00000  Uiso   1.00
C229   C     0.91712   0.61594   0.03481   0.00000  Uiso   1.00
H230   H     0.88254   0.62985   0.03872   0.00000  Uiso   1.00
H231   H     0.92063   0.59495   0.31971   0.00000  Uiso   1.00
H232   H     0.92277   0.58794   0.06513   0.00000  Uiso   1.00
O233   O     0.55358   0.64432   0.21821   0.00000  Uiso   1.00
C234   C     0.54876   0.33720   0.27992   0.00000  Uiso   1.00
H235   H     0.55494   0.64380   0.31193   0.00000  Uiso   1.00
H236   H     0.51473   0.35265   0.28501   0.00000  Uiso   1.00
C237   C     0.58287   0.38408   0.29850   0.00000  Uiso   1.00
H238   H     0.57713   0.41208   0.26819   0.00000  Uiso   1.00
H239   H     0.57938   0.40504   0.01361   0.00000  Uiso   1.00
H240   H     0.61746   0.37024   0.29452   0.00000  Uiso   1.00
C241   C     0.24865   0.73324   0.15107   0.00000  Uiso   1.00
C242   C     0.25135   0.93343   0.18226   0.00000  Uiso   1.00
C243   C     0.01886   0.73733   0.13258   0.00000  Uiso   1.00
C244   C     0.48113   0.92933   0.20075   0.00000  Uiso   1.00
C245   C     0.24801   0.67724   0.14230   0.00000  Uiso   1.00
C246   C     0.25198   0.98943   0.19103   0.00000  Uiso   1.00
C247   C     0.16457   0.83339   0.16768   0.00000  Uiso   1.00
C248   C     0.33543   0.83328   0.16566   0.00000  Uiso   1.00
C249   C     0.40884   0.88105   0.18183   0.00000  Uiso   1.00
C250   C     0.09116   0.78562   0.15150   0.00000  Uiso   1.00
C251   C     0.38345   0.83326   0.16356   0.00000  Uiso   1.00
C252   C     0.11655   0.83340   0.16977   0.00000  Uiso   1.00
C253   C     0.40380   0.78537   0.14575   0.00000  Uiso   1.00
C254   C     0.09620   0.88130   0.18759   0.00000  Uiso   1.00
C255   C     0.45059   0.78464   0.14691   0.00000  Uiso   1.00
C256   C     0.04941   0.88203   0.18642   0.00000  Uiso   1.00
C257   C     0.47653   0.83317   0.16579   0.00000  Uiso   1.00
C258   C     0.02347   0.83350   0.16755   0.00000  Uiso   1.00
C259   C     0.45546   0.88143   0.18287   0.00000  Uiso   1.00
C260   C     0.04454   0.78523   0.15046   0.00000  Uiso   1.00
C261   C     0.47181   0.73660   0.12957   0.00000  Uiso   1.00
C262   C     0.02819   0.93007   0.20377   0.00000  Uiso   1.00
Cu263  Cu    0.25500   0.83913   0.22813   0.00000  Uiso   1.00
Cu264  Cu    0.24499   0.82754   0.10521   0.00000  Uiso   1.00
H265   H     0.39217   0.91775   0.19548   0.00000  Uiso   1.00
H266   H     0.10783   0.74892   0.13785   0.00000  Uiso   1.00
H267   H     0.38297   0.74893   0.13188   0.00000  Uiso   1.00
H268   H     0.11703   0.91774   0.20145   0.00000  Uiso   1.00
H269   H     0.03544   0.70043   0.12154   0.00000  Uiso   1.00
H270   H     0.46456   0.96624   0.21179   0.00000  Uiso   1.00
H271   H     0.24428   0.98664   0.09537   0.00000  Uiso   1.00
H272   H     0.25572   0.68002   0.23797   0.00000  Uiso   1.00
H273   H     0.21497   0.79265   0.31625   0.00000  Uiso   1.00
H274   H     0.28503   0.87401   0.01709   0.00000  Uiso   1.00
N275   N     0.23744   0.81881   0.01284   0.00000  Uiso   1.00
N276   N     0.26255   0.84786   0.32049   0.00000  Uiso   1.00
O277   O     0.25325   0.76204   0.20659   0.00000  Uiso   1.00
O278   O     0.24674   0.90462   0.12674   0.00000  Uiso   1.00
O279   O     0.24480   0.75226   0.10279   0.00000  Uiso   1.00
O280   O     0.25520   0.91441   0.23055   0.00000  Uiso   1.00
O281   O     0.18935   0.83821   0.21857   0.00000  Uiso   1.00
O282   O     0.31064   0.82845   0.11476   0.00000  Uiso   1.00
O283   O     0.18090   0.82843   0.11477   0.00000  Uiso   1.00
O284   O     0.31910   0.83824   0.21857   0.00000  Uiso   1.00
O285   O     0.44642   0.68901   0.11512   0.00000  Uiso   1.00
C286   C     0.45128   0.99609   0.05344   0.00000  Uiso   1.00
H287   H     0.48530   0.98058   0.04843   0.00000  Uiso   1.00
H288   H     0.44520   0.68948   0.02139   0.00000  Uiso   1.00
C289   C     0.41712   0.94927   0.03481   0.00000  Uiso   1.00
H290   H     0.38254   0.96318   0.03872   0.00000  Uiso   1.00
H291   H     0.42063   0.92829   0.31971   0.00000  Uiso   1.00
H292   H     0.42277   0.92127   0.06513   0.00000  Uiso   1.00
O293   O     0.05358   0.97766   0.21821   0.00000  Uiso   1.00
C294   C     0.04876   0.67054   0.27992   0.00000  Uiso   1.00
H295   H     0.05494   0.97713   0.31193   0.00000  Uiso   1.00
H296   H     0.01473   0.68598   0.28501   0.00000  Uiso   1.00
C297   C     0.08287   0.71741   0.29850   0.00000  Uiso   1.00
H298   H     0.07713   0.74541   0.26819   0.00000  Uiso   1.00
H299   H     0.07938   0.73838   0.01361   0.00000  Uiso   1.00
H300   H     0.11746   0.70357   0.29452   0.00000  Uiso   1.00
C301   C     0.74865   0.73324   0.15107   0.00000  Uiso   1.00
C302   C     0.75135   0.93343   0.18226   0.00000  Uiso   1.00
C303   C     0.51886   0.73733   0.13258   0.00000  Uiso   1.00
C304   C     0.98113   0.92933   0.20075   0.00000  Uiso   1.00
C305   C     0.74801   0.67724   0.14230   0.00000  Uiso   1.00
C306   C     0.75198   0.98943   0.19103   0.00000  Uiso   1.00
C307   C     0.66457   0.83339   0.16768   0.00000  Uiso   1.00
C308   C     0.83543   0.83328   0.16566   0.00000  Uiso   1.00
C309   C     0.90884   0.88105   0.18183   0.00000  Uiso   1.00
C310   C     0.59116   0.78562   0.15150   0.00000  Uiso   1.00
C311   C     0.88345   0.83326   0.16356   0.00000  Uiso   1.00
C312   C     0.61655   0.83340   0.16977   0.00000  Uiso   1.00
C313   C     0.90380   0.78537   0.14575   0.00000  Uiso   1.00
C314   C     0.59620   0.88130   0.18759   0.00000  Uiso   1.00
C315   C     0.95059   0.78464   0.14691   0.00000  Uiso   1.00
C316   C     0.54941   0.88203   0.18642   0.00000  Uiso   1.00
C317   C     0.97653   0.83317   0.16579   0.00000  Uiso   1.00
C318   C     0.52347   0.83350   0.16755   0.00000  Uiso   1.00
C319   C     0.95546   0.88143   0.18287   0.00000  Uiso   1.00
C320   C     0.54454   0.78523   0.15046   0.00000  Uiso   1.00
C321   C     0.97181   0.73660   0.12957   0.00000  Uiso   1.00
C322   C     0.52819   0.93007   0.20377   0.00000  Uiso   1.00
Cu323  Cu    0.75500   0.83913   0.22813   0.00000  Uiso   1.00
Cu324  Cu    0.74499   0.82754   0.10521   0.00000  Uiso   1.00
H325   H     0.89217   0.91775   0.19548   0.00000  Uiso   1.00
H326   H     0.60783   0.74892   0.13785   0.00000  Uiso   1.00
H327   H     0.88297   0.74893   0.13188   0.00000  Uiso   1.00
H328   H     0.61703   0.91774   0.20145   0.00000  Uiso   1.00
H329   H     0.53544   0.70043   0.12154   0.00000  Uiso   1.00
H330   H     0.96456   0.96624   0.21179   0.00000  Uiso   1.00
H331   H     0.74428   0.98664   0.09537   0.00000  Uiso   1.00
H332   H     0.75572   0.68002   0.23797   0.00000  Uiso   1.00
H333   H     0.71497   0.79265   0.31625   0.00000  Uiso   1.00
H334   H     0.78503   0.87401   0.01709   0.00000  Uiso   1.00
N335   N     0.73744   0.81881   0.01284   0.00000  Uiso   1.00
N336   N     0.76255   0.84786   0.32049   0.00000  Uiso   1.00
O337   O     0.75325   0.76204   0.20659   0.00000  Uiso   1.00
O338   O     0.74674   0.90462   0.12674   0.00000  Uiso   1.00
O339   O     0.74480   0.75226   0.10279   0.00000  Uiso   1.00
O340   O     0.75520   0.91441   0.23055   0.00000  Uiso   1.00
O341   O     0.68935   0.83821   0.21857   0.00000  Uiso   1.00
O342   O     0.81064   0.82845   0.11476   0.00000  Uiso   1.00
O343   O     0.68090   0.82843   0.11477   0.00000  Uiso   1.00
O344   O     0.81910   0.83824   0.21857   0.00000  Uiso   1.00
O345   O     0.94642   0.68901   0.11512   0.00000  Uiso   1.00
C346   C     0.95128   0.99609   0.05344   0.00000  Uiso   1.00
H347   H     0.98530   0.98058   0.04843   0.00000  Uiso   1.00
H348   H     0.94520   0.68948   0.02139   0.00000  Uiso   1.00
C349   C     0.91712   0.94927   0.03481   0.00000  Uiso   1.00
H350   H     0.88254   0.96318   0.03872   0.00000  Uiso   1.00
H351   H     0.92063   0.92829   0.31971   0.00000  Uiso   1.00
H352   H     0.92277   0.92127   0.06513   0.00000  Uiso   1.00
O353   O     0.55358   0.97766   0.21821   0.00000  Uiso   1.00
C354   C     0.54876   0.67054   0.27992   0.00000  Uiso   1.00
H355   H     0.55494   0.97713   0.31193   0.00000  Uiso   1.00
H356   H     0.51473   0.68598   0.28501   0.00000  Uiso   1.00
C357   C     0.58287   0.71741   0.29850   0.00000  Uiso   1.00
H358   H     0.57713   0.74541   0.26819   0.00000  Uiso   1.00
H359   H     0.57938   0.73838   0.01361   0.00000  Uiso   1.00
H360   H     0.61746   0.70357   0.29452   0.00000  Uiso   1.00
C361   C     0.24865   0.06657   0.48440   0.00000  Uiso   1.00
C362   C     0.25135   0.26676   0.51559   0.00000  Uiso   1.00
C363   C     0.01886   0.07067   0.46591   0.00000  Uiso   1.00
C364   C     0.48113   0.26267   0.53408   0.00000  Uiso   1.00
C365   C     0.24801   0.01057   0.47563   0.00000  Uiso   1.00
C366   C     0.25198   0.32276   0.52437   0.00000  Uiso   1.00
C367   C     0.16457   0.16672   0.50101   0.00000  Uiso   1.00
C368   C     0.33543   0.16661   0.49899   0.00000  Uiso   1.00
C369   C     0.40884   0.21438   0.51517   0.00000  Uiso   1.00
C370   C     0.09116   0.11895   0.48483   0.00000  Uiso   1.00
C371   C     0.38345   0.16660   0.49690   0.00000  Uiso   1.00
C372   C     0.11655   0.16674   0.50310   0.00000  Uiso   1.00
C373   C     0.40380   0.11870   0.47908   0.00000  Uiso   1.00
C374   C     0.09620   0.21463   0.52092   0.00000  Uiso   1.00
C375   C     0.45059   0.11797   0.48025   0.00000  Uiso   1.00
C376   C     0.04941   0.21536   0.51975   0.00000  Uiso   1.00
C377   C     0.47653   0.16650   0.49912   0.00000  Uiso   1.00
C378   C     0.02347   0.16683   0.50088   0.00000  Uiso   1.00
C379   C     0.45546   0.21477   0.51620   0.00000  Uiso   1.00
C380   C     0.04454   0.11857   0.48380   0.00000  Uiso   1.00
C381   C     0.47181   0.06993   0.46290   0.00000  Uiso   1.00
C382   C     0.02819   0.26340   0.53710   0.00000  Uiso   1.00
Cu383  Cu    0.25500   0.17246   0.56146   0.00000  Uiso   1.00
Cu384  Cu    0.24499   0.16087   0.43854   0.00000  Uiso   1.00
H385   H     0.39217   0.25108   0.52881   0.00000  Uiso   1.00
H386   H     0.10783   0.08225   0.47119   0.00000  Uiso   1.00
H387   H     0.38297   0.08226   0.46521   0.00000  Uiso   1.00
H388   H     0.11703   0.25107   0.53479   0.00000  Uiso   1.00
H389   H     0.03544   0.03376   0.45488   0.00000  Uiso   1.00
H390   H     0.46456   0.29957   0.54512   0.00000  Uiso   1.00
H391   H     0.24428   0.31998   0.42870   0.00000  Uiso   1.00
H392   H     0.25572   0.01335   0.57130   0.00000  Uiso   1.00
H393   H     0.21497   0.12599   0.64958   0.00000  Uiso   1.00
H394   H     0.28503   0.20735   0.35042   0.00000  Uiso   1.00
N395   N     0.23744   0.15214   0.34617   0.00000  Uiso   1.00
N396   N     0.26255   0.18119   0.65383   0.00000  Uiso   1.00
O397   O     0.25325   0.09538   0.53992   0.00000  Uiso   1.00
O398   O     0.24674   0.23796   0.46008   0.00000  Uiso   1.00
O399   O     0.24480   0.08559   0.43612   0.00000  Uiso   1.00
O400   O     0.25520   0.24774   0.56388   0.00000  Uiso   1.00
O401   O     0.18935   0.17155   0.55191   0.00000  Uiso   1.00
O402   O     0.31064   0.16179   0.44809   0.00000  Uiso   1.00
O403   O     0.18090   0.16176   0.44810   0.00000  Uiso   1.00
O404   O     0.31910   0.17157   0.55190   0.00000  Uiso   1.00
O405   O     0.44642   0.02234   0.44845   0.00000  Uiso   1.00
C406   C     0.45128   0.32942   0.38677   0.00000  Uiso   1.00
H407   H     0.48530   0.31391   0.38177   0.00000  Uiso   1.00
H408   H     0.44520   0.02282   0.35472   0.00000  Uiso   1.00
C409   C     0.41712   0.28261   0.36814   0.00000  Uiso   1.00
H410   H     0.38254   0.29651   0.37205   0.00000  Uiso   1.00
H411   H     0.42063   0.26162   0.65305   0.00000  Uiso   1.00
H412   H     0.42277   0.25460   0.39847   0.00000  Uiso   1.00
O413   O     0.05358   0.31099   0.55154   0.00000  Uiso   1.00
C414   C     0.04876   0.00387   0.61325   0.00000  Uiso   1.00
H415   H     0.05494   0.31046   0.64526   0.00000  Uiso   1.00
H416   H     0.01473   0.01932   0.61835   0.00000  Uiso   1.00
C417   C     0.08287   0.05074   0.63183   0.00000  Uiso   1.00
H418   H     0.07713   0.07875   0.60152   0.00000  Uiso   1.00
H419   H     0.07938   0.07171   0.34694   0.00000  Uiso   1.00
H420   H     0.11746   0.03690   0.62785   0.00000  Uiso   1.00
C421   C     0.74865   0.06657   0.48440   0.00000  Uiso   1.00
C422   C     0.75135   0.26676   0.51559   0.00000  Uiso   1.00
C423   C     0.51886   0.07067   0.46591   0.00000  Uiso   1.00
C424   C     0.98113   0.26267   0.53408   0.00000  Uiso   1.00
C425   C     0.74801   0.01057   0.47563   0.00000  Uiso   1.00
C426   C     0.75198   0.32276   0.52437   0.00000  Uiso   1.00
C427   C     0.66457   0.16672   0.50101   0.00000  Uiso   1.00
C428   C     0.83543   0.16661   0.49899   0.00000  Uiso   1.00
C429   C     0.90884   0.21438   0.51517   0.00000  Uiso   1.00
C430   C     0.59116   0.11895   0.48483   0.00000  Uiso   1.00
C431   C     0.88345   0.16660   0.49690   0.00000  Uiso   1.00
C432   C     0.61655   0.16674   0.50310   0.00000  Uiso   1.00
C433   C     0.90380   0.11870   0.47908   0.00000  Uiso   1.00
C434   C     0.59620   0.21463   0.52092   0.00000  Uiso   1.00
C435   C     0.95059   0.11797   0.48025   0.00000  Uiso   1.00
C436   C     0.54941   0.21536   0.51975   0.00000  Uiso   1.00
C437   C     0.97653   0.16650   0.49912   0.00000  Uiso   1.00
C438   C     0.52347   0.16683   0.50088   0.00000  Uiso   1.00
C439   C     0.95546   0.21477   0.51620   0.00000  Uiso   1.00
C440   C     0.54454   0.11857   0.48380   0.00000  Uiso   1.00
C441   C     0.97181   0.06993   0.46290   0.00000  Uiso   1.00
C442   C     0.52819   0.26340   0.53710   0.00000  Uiso   1.00
Cu443  Cu    0.75500   0.17246   0.56146   0.00000  Uiso   1.00
Cu444  Cu    0.74499   0.16087   0.43854   0.00000  Uiso   1.00
H445   H     0.89217   0.25108   0.52881   0.00000  Uiso   1.00
H446   H     0.60783   0.08225   0.47119   0.00000  Uiso   1.00
H447   H     0.88297   0.08226   0.46521   0.00000  Uiso   1.00
H448   H     0.61703   0.25107   0.53479   0.00000  Uiso   1.00
H449   H     0.53544   0.03376   0.45488   0.00000  Uiso   1.00
H450   H     0.96456   0.29957   0.54512   0.00000  Uiso   1.00
H451   H     0.74428   0.31998   0.42870   0.00000  Uiso   1.00
H452   H     0.75572   0.01335   0.57130   0.00000  Uiso   1.00
H453   H     0.71497   0.12599   0.64958   0.00000  Uiso   1.00
H454   H     0.78503   0.20735   0.35042   0.00000  Uiso   1.00
N455   N     0.73744   0.15214   0.34617   0.00000  Uiso   1.00
N456   N     0.76255   0.18119   0.65383   0.00000  Uiso   1.00
O457   O     0.75325   0.09538   0.53992   0.00000  Uiso   1.00
O458   O     0.74674   0.23796   0.46008   0.00000  Uiso   1.00
O459   O     0.74480   0.08559   0.43612   0.00000  Uiso   1.00
O460   O     0.75520   0.24774   0.56388   0.00000  Uiso   1.00
O461   O     0.68935   0.17155   0.55191   0.00000  Uiso   1.00
O462   O     0.81064   0.16179   0.44809   0.00000  Uiso   1.00
O463   O     0.68090   0.16176   0.44810   0.00000  Uiso   1.00
O464   O     0.81910   0.17157   0.55190   0.00000  Uiso   1.00
O465   O     0.94642   0.02234   0.44845   0.00000  Uiso   1.00
C466   C     0.95128   0.32942   0.38677   0.00000  Uiso   1.00
H467   H     0.98530   0.31391   0.38177   0.00000  Uiso   1.00
H468   H     0.94520   0.02282   0.35472   0.00000  Uiso   1.00
C469   C     0.91712   0.28261   0.36814   0.00000  Uiso   1.00
H470   H     0.88254   0.29651   0.37205   0.00000  Uiso   1.00
H471   H     0.92063   0.26162   0.65305   0.00000  Uiso   1.00
H472   H     0.92277   0.25460   0.39847   0.00000  Uiso   1.00
O473   O     0.55358   0.31099   0.55154   0.00000  Uiso   1.00
C474   C     0.54876   0.00387   0.61325   0.00000  Uiso   1.00
H475   H     0.55494   0.31046   0.64526   0.00000  Uiso   1.00
H476   H     0.51473   0.01932   0.61835   0.00000  Uiso   1.00
C477   C     0.58287   0.05074   0.63183   0.00000  Uiso   1.00
H478   H     0.57713   0.07875   0.60152   0.00000  Uiso   1.00
H479   H     0.57938   0.07171   0.34694   0.00000  Uiso   1.00
H480   H     0.61746   0.03690   0.62785   0.00000  Uiso   1.00
C481   C     0.24865   0.39990   0.48440   0.00000  Uiso   1.00
C482   C     0.25135   0.60010   0.51559   0.00000  Uiso   1.00
C483   C     0.01886   0.40400   0.46591   0.00000  Uiso   1.00
C484   C     0.48113   0.59600   0.53408   0.00000  Uiso   1.00
C485   C     0.24801   0.34390   0.47563   0.00000  Uiso   1.00
C486   C     0.25198   0.65610   0.52437   0.00000  Uiso   1.00
C487   C     0.16457   0.50005   0.50101   0.00000  Uiso   1.00
C488   C     0.33543   0.49995   0.49899   0.00000  Uiso   1.00
C489   C     0.40884   0.54771   0.51517   0.00000  Uiso   1.00
C490   C     0.09116   0.45228   0.48483   0.00000  Uiso   1.00
C491   C     0.38345   0.49993   0.49690   0.00000  Uiso   1.00
C492   C     0.11655   0.50007   0.50310   0.00000  Uiso   1.00
C493   C     0.40380   0.45204   0.47908   0.00000  Uiso   1.00
C494   C     0.09620   0.54796   0.52092   0.00000  Uiso   1.00
C495   C     0.45059   0.45131   0.48025   0.00000  Uiso   1.00
C496   C     0.04941   0.54869   0.51975   0.00000  Uiso   1.00
C497   C     0.47653   0.49983   0.49912   0.00000  Uiso   1.00
C498   C     0.02347   0.50017   0.50088   0.00000  Uiso   1.00
C499   C     0.45546   0.54810   0.51620   0.00000  Uiso   1.00
C500   C     0.04454   0.45190   0.48380   0.00000  Uiso   1.00
C501   C     0.47181   0.40327   0.46290   0.00000  Uiso   1.00
C502   C     0.02819   0.59673   0.53710   0.00000  Uiso   1.00
Cu503  Cu    0.25500   0.50579   0.56146   0.00000  Uiso   1.00
Cu504  Cu    0.24499   0.49421   0.43854   0.00000  Uiso   1.00
H505   H     0.39217   0.58442   0.52881   0.00000  Uiso   1.00
H506   H     0.10783   0.41558   0.47119   0.00000  Uiso   1.00
H507   H     0.38297   0.41560   0.46521   0.00000  Uiso   1.00
H508   H     0.11703   0.58440   0.53479   0.00000  Uiso   1.00
H509   H     0.03544   0.36710   0.45488   0.00000  Uiso   1.00
H510   H     0.46456   0.63291   0.54512   0.00000  Uiso   1.00
H511   H     0.24428   0.65331   0.42870   0.00000  Uiso   1.00
H512   H     0.25572   0.34669   0.57130   0.00000  Uiso   1.00
H513   H     0.21497   0.45932   0.64958   0.00000  Uiso   1.00
H514   H     0.28503   0.54068   0.35042   0.00000  Uiso   1.00
N515   N     0.23744   0.48547   0.34617   0.00000  Uiso   1.00
N516   N     0.26255   0.51453   0.65383   0.00000  Uiso   1.00
O517   O     0.25325   0.42871   0.53992   0.00000  Uiso   1.00
O518   O     0.24674   0.57129   0.46008   0.00000  Uiso   1.00
O519   O     0.24480   0.41892   0.43612   0.00000  Uiso   1.00
O520   O     0.25520   0.58108   0.56388   0.00000  Uiso   1.00
O521   O     0.18935   0.50488   0.55191   0.00000  Uiso   1.00
O522   O     0.31064   0.49512   0.44809   0.00000  Uiso   1.00
O523   O     0.18090   0.49510   0.44810   0.00000  Uiso   1.00
O524   O     0.31910   0.50490   0.55190   0.00000  Uiso   1.00
O525   O     0.44642   0.35568   0.44845   0.00000  Uiso   1.00
C526   C     0.45128   0.66276   0.38677   0.00000  Uiso   1.00
H527   H     0.48530   0.64724   0.38177   0.00000  Uiso   1.00
H528   H     0.44520   0.35615   0.35472   0.00000  Uiso   1.00
C529   C     0.41712   0.61594   0.36814   0.00000  Uiso   1.00
H530   H     0.38254   0.62985   0.37205   0.00000  Uiso   1.00
H531   H     0.42063   0.59495   0.65305   0.00000  Uiso   1.00
H532   H     0.42277   0.58794   0.39847   0.00000  Uiso   1.00
O533   O     0.05358   0.64432   0.55154   0.00000  Uiso   1.00
C534   C     0.04876   0.33720   0.61325   0.00000  Uiso   1.00
H535   H     0.05494   0.64380   0.64526   0.00000  Uiso   1.00
H536   H     0.01473   0.35265   0.61835   0.00000  Uiso   1.00
C537   C     0.08287   0.38408   0.63183   0.00000  Uiso   1.00
H538   H     0.07713   0.41208   0.60152   0.00000  Uiso   1.00
H539   H     0.07938   0.40504   0.34694   0.00000  Uiso   1.00
H540   H     0.11746   0.37024   0.62785   0.00000  Uiso   1.00
C541   C     0.74865   0.39990   0.48440   0.00000  Uiso   1.00
C542   C     0.75135   0.60010   0.51559   0.00000  Uiso   1.00
C543   C     0.51886   0.40400   0.46591   0.00000  Uiso   1.00
C544   C     0.98113   0.59600   0.53408   0.00000  Uiso   1.00
C545   C     0.74801   0.34390   0.47563   0.00000  Uiso   1.00
C546   C     0.75198   0.65610   0.52437   0.00000  Uiso   1.00
C547   C     0.66457   0.50005   0.50101   0.00000  Uiso   1.00
C548   C     0.83543   0.49995   0.49899   0.00000  Uiso   1.00
C549   C     0.90884   0.54771   0.51517   0.00000  Uiso   1.00
C550   C     0.59116   0.45228   0.48483   0.00000  Uiso   1.00
C551   C     0.88345   0.49993   0.49690   0.00000  Uiso   1.00
C552   C     0.61655   0.50007   0.50310   0.00000  Uiso   1.00
C553   C     0.90380   0.45204   0.47908   0.00000  Uiso   1.00
C554   C     0.59620   0.54796   0.52092   0.00000  Uiso   1.00
C555   C     0.95059   0.45131   0.48025   0.00000  Uiso   1.00
C556   C     0.54941   0.54869   0.51975   0.00000  Uiso   1.00
C557   C     0.97653   0.49983   0.49912   0.00000  Uiso   1.00
C558   C     0.52347   0.50017   0.50088   0.00000  Uiso   1.00
C559   C     0.95546   0.54810   0.51620   0.00000  Uiso   1.00
C560   C     0.54454   0.45190   0.48380   0.00000  Uiso   1.00
C561   C     0.97181   0.40327   0.46290   0.00000  Uiso   1.00
C562   C     0.52819   0.59673   0.53710   0.00000  Uiso   1.00
Cu563  Cu    0.75500   0.50579   0.56146   0.00000  Uiso   1.00
Cu564  Cu    0.74499   0.49421   0.43854   0.00000  Uiso   1.00
H565   H     0.89217   0.58442   0.52881   0.00000  Uiso   1.00
H566   H     0.60783   0.41558   0.47119   0.00000  Uiso   1.00
H567   H     0.88297   0.41560   0.46521   0.00000  Uiso   1.00
H568   H     0.61703   0.58440   0.53479   0.00000  Uiso   1.00
H569   H     0.53544   0.36710   0.45488   0.00000  Uiso   1.00
H570   H     0.96456   0.63291   0.54512   0.00000  Uiso   1.00
H571   H     0.74428   0.65331   0.42870   0.00000  Uiso   1.00
H572   H     0.75572   0.34669   0.57130   0.00000  Uiso   1.00
H573   H     0.71497   0.45932   0.64958   0.00000  Uiso   1.00
H574   H     0.78503   0.54068   0.35042   0.00000  Uiso   1.00
N575   N     0.73744   0.48547   0.34617   0.00000  Uiso   1.00
N576   N     0.76255   0.51453   0.65383   0.00000  Uiso   1.00
O577   O     0.75325   0.42871   0.53992   0.00000  Uiso   1.00
O578   O     0.74674   0.57129   0.46008   0.00000  Uiso   1.00
O579   O     0.74480   0.41892   0.43612   0.00000  Uiso   1.00
O580   O     0.75520   0.58108   0.56388   0.00000  Uiso   1.00
O581   O     0.68935   0.50488   0.55191   0.00000  Uiso   1.00
O582   O     0.81064   0.49512   0.44809   0.00000  Uiso   1.00
O583   O     0.68090   0.49510   0.44810   0.00000  Uiso   1.00
O584   O     0.81910   0.50490   0.55190   0.00000  Uiso   1.00
O585   O     0.94642   0.35568   0.44845   0.00000  Uiso   1.00
C586   C     0.95128   0.66276   0.38677   0.00000  Uiso   1.00
H587   H     0.98530   0.64724   0.38177   0.00000  Uiso   1.00
H588   H     0.94520   0.35615   0.35472   0.00000  Uiso   1.00
C589   C     0.91712   0.61594   0.36814   0.00000  Uiso   1.00
H590   H     0.88254   0.62985   0.37205   0.00000  Uiso   1.00
H591   H     0.92063   0.59495   0.65305   0.00000  Uiso   1.00
H592   H     0.92277   0.58794   0.39847   0.00000  Uiso   1.00
O593   O     0.55358   0.64432   0.55154   0.00000  Uiso   1.00
C594   C     0.54876   0.33720   0.61325   0.00000  Uiso   1.00
H595   H     0.55494   0.64380   0.64526   0.00000  Uiso   1.00
H596   H     0.51473   0.35265   0.61835   0.00000  Uiso   1.00
C597   C     0.58287   0.38408   0.63183   0.00000  Uiso   1.00
H598   H     0.57713   0.41208   0.60152   0.00000  Uiso   1.00
H599   H     0.57938   0.40504   0.34694   0.00000  Uiso   1.00
H600   H     0.61746   0.37024   0.62785   0.00000  Uiso   1.00
C601   C     0.24865   0.73324   0.48440   0.00000  Uiso   1.00
C602   C     0.25135   0.93343   0.51559   0.00000  Uiso   1.00
C603   C     0.01886   0.73733   0.46591   0.00000  Uiso   1.00
C604   C     0.48113   0.92933   0.53408   0.00000  Uiso   1.00
C605   C     0.24801   0.67724   0.47563   0.00000  Uiso   1.00
C606   C     0.25198   0.98943   0.52437   0.00000  Uiso   1.00
C607   C     0.16457   0.83339   0.50101   0.00000  Uiso   1.00
C608   C     0.33543   0.83328   0.49899   0.00000  Uiso   1.00
C609   C     0.40884   0.88105   0.51517   0.00000  Uiso   1.00
C610   C     0.09116   0.78562   0.48483   0.00000  Uiso   1.00
C611   C     0.38345   0.83326   0.49690   0.00000  Uiso   1.00
C612   C     0.11655   0.83340   0.50310   0.00000  Uiso   1.00
C613   C     0.40380   0.78537   0.47908   0.00000  Uiso   1.00
C614   C     0.09620   0.88130   0.52092   0.00000  Uiso   1.00
C615   C     0.45059   0.78464   0.48025   0.00000  Uiso   1.00
C616   C     0.04941   0.88203   0.51975   0.00000  Uiso   1.00
C617   C     0.47653   0.83317   0.49912   0.00000  Uiso   1.00
C618   C     0.02347   0.83350   0.50088   0.00000  Uiso   1.00
C619   C     0.45546   0.88143   0.51620   0.00000  Uiso   1.00
C620   C     0.04454   0.78523   0.48380   0.00000  Uiso   1.00
C621   C     0.47181   0.73660   0.46290   0.00000  Uiso   1.00
C622   C     0.02819   0.93007   0.53710   0.00000  Uiso   1.00
Cu623  Cu    0.25500   0.83913   0.56146   0.00000  Uiso   1.00
Cu624  Cu    0.24499   0.82754   0.43854   0.00000  Uiso   1.00
H625   H     0.39217   0.91775   0.52881   0.00000  Uiso   1.00
H626   H     0.10783   0.74892   0.47119   0.00000  Uiso   1.00
H627   H     0.38297   0.74893   0.46521   0.00000  Uiso   1.00
H628   H     0.11703   0.91774   0.53479   0.00000  Uiso   1.00
H629   H     0.03544   0.70043   0.45488   0.00000  Uiso   1.00
H630   H     0.46456   0.96624   0.54512   0.00000  Uiso   1.00
H631   H     0.24428   0.98664   0.42870   0.00000  Uiso   1.00
H632   H     0.25572   0.68002   0.57130   0.00000  Uiso   1.00
H633   H     0.21497   0.79265   0.64958   0.00000  Uiso   1.00
H634   H     0.28503   0.87401   0.35042   0.00000  Uiso   1.00
N635   N     0.23744   0.81881   0.34617   0.00000  Uiso   1.00
N636   N     0.26255   0.84786   0.65383   0.00000  Uiso   1.00
O637   O     0.25325   0.76204   0.53992   0.00000  Uiso   1.00
O638   O     0.24674   0.90462   0.46008   0.00000  Uiso   1.00
O639   O     0.24480   0.75226   0.43612   0.00000  Uiso   1.00
O640   O     0.25520   0.91441   0.56388   0.00000  Uiso   1.00
O641   O     0.18935   0.83821   0.55191   0.00000  Uiso   1.00
O642   O     0.31064   0.82845   0.44809   0.00000  Uiso   1.00
O643   O     0.18090   0.82843   0.44810   0.00000  Uiso   1.00
O644   O     0.31910   0.83824   0.55190   0.00000  Uiso   1.00
O645   O     0.44642   0.68901   0.44845   0.00000  Uiso   1.00
C646   C     0.45128   0.99609   0.38677   0.00000  Uiso   1.00
H647   H     0.48530   0.98058   0.38177   0.00000  Uiso   1.00
H648   H     0.44520   0.68948   0.35472   0.00000  Uiso   1.00
C649   C     0.41712   0.94927   0.36814   0.00000  Uiso   1.00
H650   H     0.38254   0.96318   0.37205   0.00000  Uiso   1.00
H651   H     0.42063   0.92829   0.65305   0.00000  Uiso   1.00
H652   H     0.42277   0.92127   0.39847   0.00000  Uiso   1.00
O653   O     0.05358   0.97766   0.55154   0.00000  Uiso   1.00
C654   C     0.04876   0.67054   0.61325   0.00000  Uiso   1.00
H655   H     0.05494   0.97713   0.64526   0.00000  Uiso   1.00
H656   H     0.01473   0.68598   0.61835   0.00000  Uiso   1.00
C657   C     0.08287   0.71741   0.63183   0.00000  Uiso   1.00
H658   H     0.07713   0.74541   0.60152   0.00000  Uiso   1.00
H659   H     0.07938   0.73838   0.34694   0.00000  Uiso   1.00
H660   H     0.11746   0.70357   0.62785   0.00000  Uiso   1.00
C661   C     0.74865   0.73324   0.48440   0.00000  Uiso   1.00
C662   C     0.75135   0.93343   0.51559   0.00000  Uiso   1.00
C663   C     0.51886   0.73733   0.46591   0.00000  Uiso   1.00
C664   C     0.98113   0.92933   0.53408   0.00000  Uiso   1.00
C665   C     0.74801   0.67724   0.47563   0.00000  Uiso   1.00
C666   C     0.75198   0.98943   0.52437   0.00000  Uiso   1.00
C667   C     0.66457   0.83339   0.50101   0.00000  Uiso   1.00
C668   C     0.83543   0.83328   0.49899   0.00000  Uiso   1.00
C669   C     0.90884   0.88105   0.51517   0.00000  Uiso   1.00
C670   C     0.59116   0.78562   0.48483   0.00000  Uiso   1.00
C671   C     0.88345   0.83326   0.49690   0.00000  Uiso   1.00
C672   C     0.61655   0.83340   0.50310   0.00000  Uiso   1.00
C673   C     0.90380   0.78537   0.47908   0.00000  Uiso   1.00
C674   C     0.59620   0.88130   0.52092   0.00000  Uiso   1.00
C675   C     0.95059   0.78464   0.48025   0.00000  Uiso   1.00
C676   C     0.54941   0.88203   0.51975   0.00000  Uiso   1.00
C677   C     0.97653   0.83317   0.49912   0.00000  Uiso   1.00
C678   C     0.52347   0.83350   0.50088   0.00000  Uiso   1.00
C679   C     0.95546   0.88143   0.51620   0.00000  Uiso   1.00
C680   C     0.54454   0.78523   0.48380   0.00000  Uiso   1.00
C681   C     0.97181   0.73660   0.46290   0.00000  Uiso   1.00
C682   C     0.52819   0.93007   0.53710   0.00000  Uiso   1.00
Cu683  Cu    0.75500   0.83913   0.56146   0.00000  Uiso   1.00
Cu684  Cu    0.74499   0.82754   0.43854   0.00000  Uiso   1.00
H685   H     0.89217   0.91775   0.52881   0.00000  Uiso   1.00
H686   H     0.60783   0.74892   0.47119   0.00000  Uiso   1.00
H687   H     0.88297   0.74893   0.46521   0.00000  Uiso   1.00
H688   H     0.61703   0.91774   0.53479   0.00000  Uiso   1.00
H689   H     0.53544   0.70043   0.45488   0.00000  Uiso   1.00
H690   H     0.96456   0.96624   0.54512   0.00000  Uiso   1.00
H691   H     0.74428   0.98664   0.42870   0.00000  Uiso   1.00
H692   H     0.75572   0.68002   0.57130   0.00000  Uiso   1.00
H693   H     0.71497   0.79265   0.64958   0.00000  Uiso   1.00
H694   H     0.78503   0.87401   0.35042   0.00000  Uiso   1.00
N695   N     0.73744   0.81881   0.34617   0.00000  Uiso   1.00
N696   N     0.76255   0.84786   0.65383   0.00000  Uiso   1.00
O697   O     0.75325   0.76204   0.53992   0.00000  Uiso   1.00
O698   O     0.74674   0.90462   0.46008   0.00000  Uiso   1.00
O699   O     0.74480   0.75226   0.43612   0.00000  Uiso   1.00
O700   O     0.75520   0.91441   0.56388   0.00000  Uiso   1.00
O701   O     0.68935   0.83821   0.55191   0.00000  Uiso   1.00
O702   O     0.81064   0.82845   0.44809   0.00000  Uiso   1.00
O703   O     0.68090   0.82843   0.44810   0.00000  Uiso   1.00
O704   O     0.81910   0.83824   0.55190   0.00000  Uiso   1.00
O705   O     0.94642   0.68901   0.44845   0.00000  Uiso   1.00
C706   C     0.95128   0.99609   0.38677   0.00000  Uiso   1.00
H707   H     0.98530   0.98058   0.38177   0.00000  Uiso   1.00
H708   H     0.94520   0.68948   0.35472   0.00000  Uiso   1.00
C709   C     0.91712   0.94927   0.36814   0.00000  Uiso   1.00
H710   H     0.88254   0.96318   0.37205   0.00000  Uiso   1.00
H711   H     0.92063   0.92829   0.65305   0.00000  Uiso   1.00
H712   H     0.92277   0.92127   0.39847   0.00000  Uiso   1.00
O713   O     0.55358   0.97766   0.55154   0.00000  Uiso   1.00
C714   C     0.54876   0.67054   0.61325   0.00000  Uiso   1.00
H715   H     0.55494   0.97713   0.64526   0.00000  Uiso   1.00
H716   H     0.51473   0.68598   0.61835   0.00000  Uiso   1.00
C717   C     0.58287   0.71741   0.63183   0.00000  Uiso   1.00
H718   H     0.57713   0.74541   0.60152   0.00000  Uiso   1.00
H719   H     0.57938   0.73838   0.34694   0.00000  Uiso   1.00
H720   H     0.61746   0.70357   0.62785   0.00000  Uiso   1.00
C721   C     0.24865   0.06657   0.81774   0.00000  Uiso   1.00
C722   C     0.25135   0.26676   0.84893   0.00000  Uiso   1.00
C723   C     0.01886   0.07067   0.79925   0.00000  Uiso   1.00
C724   C     0.48113   0.26267   0.86742   0.00000  Uiso   1.00
C725   C     0.24801   0.01057   0.80896   0.00000  Uiso   1.00
C726   C     0.25198   0.32276   0.85770   0.00000  Uiso   1.00
C727   C     0.16457   0.16672   0.83434   0.00000  Uiso   1.00
C728   C     0.33543   0.16661   0.83232   0.00000  Uiso   1.00
C729   C     0.40884   0.21438   0.84850   0.00000  Uiso   1.00
C730   C     0.09116   0.11895   0.81816   0.00000  Uiso   1.00
C731   C     0.38345   0.16660   0.83023   0.00000  Uiso   1.00
C732   C     0.11655   0.16674   0.83644   0.00000  Uiso   1.00
C733   C     0.40380   0.11870   0.81241   0.00000  Uiso   1.00
C734   C     0.09620   0.21463   0.85425   0.00000  Uiso   1.00
C735   C     0.45059   0.11797   0.81358   0.00000  Uiso   1.00
C736   C     0.04941   0.21536   0.85308   0.00000  Uiso   1.00
C737   C     0.47653   0.16650   0.83245   0.00000  Uiso   1.00
C738   C     0.02347   0.16683   0.83421   0.00000  Uiso   1.00
C739   C     0.45546   0.21477   0.84953   0.00000  Uiso   1.00
C740   C     0.04454   0.11857   0.81713   0.00000  Uiso   1.00
C741   C     0.47181   0.06993   0.79623   0.00000  Uiso   1.00
C742   C     0.02819   0.26340   0.87043   0.00000  Uiso   1.00
Cu743  Cu    0.25500   0.17246   0.89479   0.00000  Uiso   1.00
Cu744  Cu    0.24499   0.16087   0.77187   0.00000  Uiso   1.00
H745   H     0.39217   0.25108   0.86215   0.00000  Uiso   1.00
H746   H     0.10783   0.08225   0.80452   0.00000  Uiso   1.00
H747   H     0.38297   0.08226   0.79855   0.00000  Uiso   1.00
H748   H     0.11703   0.25107   0.86812   0.00000  Uiso   1.00
H749   H     0.03544   0.03376   0.78821   0.00000  Uiso   1.00
H750   H     0.46456   0.29957   0.87846   0.00000  Uiso   1.00
H751   H     0.24428   0.31998   0.76203   0.00000  Uiso   1.00
H752   H     0.25572   0.01335   0.90463   0.00000  Uiso   1.00
H753   H     0.21497   0.12599   0.98291   0.00000  Uiso   1.00
H754   H     0.28503   0.20735   0.68375   0.00000  Uiso   1.00
N755   N     0.23744   0.15214   0.67951   0.00000  Uiso   1.00
N756   N     0.26255   0.18119   0.98716   0.00000  Uiso   1.00
O757   O     0.25325   0.09538   0.87326   0.00000  Uiso   1.00
O758   O     0.24674   0.23796   0.79341   0.00000  Uiso   1.00
O759   O     0.24480   0.08559   0.76945   0.00000  Uiso   1.00
O760   O     0.25520   0.24774   0.89721   0.00000  Uiso   1.00
O761   O     0.18935   0.17155   0.88524   0.00000  Uiso   1.00
O762   O     0.31064   0.16179   0.78143   0.00000  Uiso   1.00
O763   O     0.18090   0.16176   0.78143   0.00000  Uiso   1.00
O764   O     0.31910   0.17157   0.88523   0.00000  Uiso   1.00
O765   O     0.44642   0.02234   0.78179   0.00000  Uiso   1.00
C766   C     0.45128   0.32942   0.72010   0.00000  Uiso   1.00
H767   H     0.48530   0.31391   0.71510   0.00000  Uiso   1.00
H768   H     0.44520   0.02282   0.68805   0.00000  Uiso   1.00
C769   C     0.41712   0.28261   0.70147   0.00000  Uiso   1.00
H770   H     0.38254   0.29651   0.70538   0.00000  Uiso   1.00
H771   H     0.42063   0.26162   0.98638   0.00000  Uiso   1.00
H772   H     0.42277   0.25460   0.73180   0.00000  Uiso   1.00
O773   O     0.05358   0.31099   0.88487   0.00000  Uiso   1.00
C774   C     0.04876   0.00387   0.94658   0.00000  Uiso   1.00
H775   H     0.05494   0.31046   0.97860   0.00000  Uiso   1.00
H776   H     0.01473   0.01932   0.95168   0.00000  Uiso   1.00
C777   C     0.08287   0.05074   0.96517   0.00000  Uiso   1.00
H778   H     0.07713   0.07875   0.93486   0.00000  Uiso   1.00
H779   H     0.07938   0.07171   0.68027   0.00000  Uiso   1.00
H780   H     0.11746   0.03690   0.96119   0.00000  Uiso   1.00
C781   C     0.74865   0.06657   0.81774   0.00000  Uiso   1.00
C782   C     0.75135   0.26676   0.84893   0.00000  Uiso   1.00
C783   C     0.51886   0.07067   0.79925   0.00000  Uiso   1.00
C784   C     0.98113   0.26267   0.86742   0.00000  Uiso   1.00
C785   C     0.74801   0.01057   0.80896   0.00000  Uiso   1.00
C786   C     0.75198   0.32276   0.85770   0.00000  Uiso   1.00
C787   C     0.66457   0.16672   0.83434   0.00000  Uiso   1.00
C788   C     0.83543   0.16661   0.83232   0.00000  Uiso   1.00
C789   C     0.90884   0.21438   0.84850   0.00000  Uiso   1.00
C790   C     0.59116   0.11895   0.81816   0.00000  Uiso   1.00
C791   C     0.88345   0.16660   0.83023   0.00000  Uiso   1.00
C792   C     0.61655   0.16674   0.83644   0.00000  Uiso   1.00
C793   C     0.90380   0.11870   0.81241   0.00000  Uiso   1.00
C794   C     0.59620   0.21463   0.85425   0.00000  Uiso   1.00
C795   C     0.95059   0.11797   0.81358   0.00000  Uiso   1.00
C796   C     0.54941   0.21536   0.85308   0.00000  Uiso   1.00
C797   C     0.97653   0.16650   0.83245   0.00000  Uiso   1.00
C798   C     0.52347   0.16683   0.83421   0.00000  Uiso   1.00
C799   C     0.95546   0.21477   0.84953   0.00000  Uiso   1.00
C800   C     0.54454   0.11857   0.81713   0.00000  Uiso   1.00
C801   C     0.97181   0.06993   0.79623   0.00000  Uiso   1.00
C802   C     0.52819   0.26340   0.87043   0.00000  Uiso   1.00
Cu803  Cu    0.75500   0.17246   0.89479   0.00000  Uiso   1.00
Cu804  Cu    0.74499   0.16087   0.77187   0.00000  Uiso   1.00
H805   H     0.89217   0.25108   0.86215   0.00000  Uiso   1.00
H806   H     0.60783   0.08225   0.80452   0.00000  Uiso   1.00
H807   H     0.88297   0.08226   0.79855   0.00000  Uiso   1.00
H808   H     0.61703   0.25107   0.86812   0.00000  Uiso   1.00
H809   H     0.53544   0.03376   0.78821   0.00000  Uiso   1.00
H810   H     0.96456   0.29957   0.87846   0.00000  Uiso   1.00
H811   H     0.74428   0.31998   0.76203   0.00000  Uiso   1.00
H812   H     0.75572   0.01335   0.90463   0.00000  Uiso   1.00
H813   H     0.71497   0.12599   0.98291   0.00000  Uiso   1.00
H814   H     0.78503   0.20735   0.68375   0.00000  Uiso   1.00
N815   N     0.73744   0.15214   0.67951   0.00000  Uiso   1.00
N816   N     0.76255   0.18119   0.98716   0.00000  Uiso   1.00
O817   O     0.75325   0.09538   0.87326   0.00000  Uiso   1.00
O818   O     0.74674   0.23796   0.79341   0.00000  Uiso   1.00
O819   O     0.74480   0.08559   0.76945   0.00000  Uiso   1.00
O820   O     0.75520   0.24774   0.89721   0.00000  Uiso   1.00
O821   O     0.68935   0.17155   0.88524   0.00000  Uiso   1.00
O822   O     0.81064   0.16179   0.78143   0.00000  Uiso   1.00
O823   O     0.68090   0.16176   0.78143   0.00000  Uiso   1.00
O824   O     0.81910   0.17157   0.88523   0.00000  Uiso   1.00
O825   O     0.94642   0.02234   0.78179   0.00000  Uiso   1.00
C826   C     0.95128   0.32942   0.72010   0.00000  Uiso   1.00
H827   H     0.98530   0.31391   0.71510   0.00000  Uiso   1.00
H828   H     0.94520   0.02282   0.68805   0.00000  Uiso   1.00
C829   C     0.91712   0.28261   0.70147   0.00000  Uiso   1.00
H830   H     0.88254   0.29651   0.70538   0.00000  Uiso   1.00
H831   H     0.92063   0.26162   0.98638   0.00000  Uiso   1.00
H832   H     0.92277   0.25460   0.73180   0.00000  Uiso   1.00
O833   O     0.55358   0.31099   0.88487   0.00000  Uiso   1.00
C834   C     0.54876   0.00387   0.94658   0.00000  Uiso   1.00
H835   H     0.55494   0.31046   0.97860   0.00000  Uiso   1.00
H836   H     0.51473   0.01932   0.95168   0.00000  Uiso   1.00
C837   C     0.58287   0.05074   0.96517   0.00000  Uiso   1.00
H838   H     0.57713   0.07875   0.93486   0.00000  Uiso   1.00
H839   H     0.57938   0.07171   0.68027   0.00000  Uiso   1.00
H840   H     0.61746   0.03690   0.96119   0.00000  Uiso   1.00
C841   C     0.24865   0.39990   0.81774   0.00000  Uiso   1.00
C842   C     0.25135   0.60010   0.84893   0.00000  Uiso   1.00
C843   C     0.01886   0.40400   0.79925   0.00000  Uiso   1.00
C844   C     0.48113   0.59600   0.86742   0.00000  Uiso   1.00
C845   C     0.24801   0.34390   0.80896   0.00000  Uiso   1.00
C846   C     0.25198   0.65610   0.85770   0.00000  Uiso   1.00
C847   C     0.16457   0.50005   0.83434   0.00000  Uiso   1.00
C848   C     0.33543   0.49995   0.83232   0.00000  Uiso   1.00
C849   C     0.40884   0.54771   0.84850   0.00000  Uiso   1.00
C850   C     0.09116   0.45228   0.81816   0.00000  Uiso   1.00
C851   C     0.38345   0.49993   0.83023   0.00000  Uiso   1.00
C852   C     0.11655   0.50007   0.83644   0.00000  Uiso   1.00
C853   C     0.40380   0.45204   0.81241   0.00000  Uiso   1.00
C854   C     0.09620   0.54796   0.85425   0.00000  Uiso   1.00
C855   C     0.45059   0.45131   0.81358   0.00000  Uiso   1.00
C856   C     0.04941   0.54869   0.85308   0.00000  Uiso   1.00
C857   C     0.47653   0.49983   0.83245   0.00000  Uiso   1.00
C858   C     0.02347   0.50017   0.83421   0.00000  Uiso   1.00
C859   C     0.45546   0.54810   0.84953   0.00000  Uiso   1.00
C860   C     0.04454   0.45190   0.81713   0.00000  Uiso   1.00
C861   C     0.47181   0.40327   0.79623   0.00000  Uiso   1.00
C862   C     0.02819   0.59673   0.87043   0.00000  Uiso   1.00
Cu863  Cu    0.25500   0.50579   0.89479   0.00000  Uiso   1.00
Cu864  Cu    0.24499   0.49421   0.77187   0.00000  Uiso   1.00
H865   H     0.39217   0.58442   0.86215   0.00000  Uiso   1.00
H866   H     0.10783   0.41558   0.80452   0.00000  Uiso   1.00
H867   H     0.38297   0.41560   0.79855   0.00000  Uiso   1.00
H868   H     0.11703   0.58440   0.86812   0.00000  Uiso   1.00
H869   H     0.03544   0.36710   0.78821   0.00000  Uiso   1.00
H870   H     0.46456   0.63291   0.87846   0.00000  Uiso   1.00
H871   H     0.24428   0.65331   0.76203   0.00000  Uiso   1.00
H872   H     0.25572   0.34669   0.90463   0.00000  Uiso   1.00
H873   H     0.21497   0.45932   0.98291   0.00000  Uiso   1.00
H874   H     0.28503   0.54068   0.68375   0.00000  Uiso   1.00
N875   N     0.23744   0.48547   0.67951   0.00000  Uiso   1.00
N876   N     0.26255   0.51453   0.98716   0.00000  Uiso   1.00
O877   O     0.25325   0.42871   0.87326   0.00000  Uiso   1.00
O878   O     0.24674   0.57129   0.79341   0.00000  Uiso   1.00
O879   O     0.24480   0.41892   0.76945   0.00000  Uiso   1.00
O880   O     0.25520   0.58108   0.89721   0.00000  Uiso   1.00
O881   O     0.18935   0.50488   0.88524   0.00000  Uiso   1.00
O882   O     0.31064   0.49512   0.78143   0.00000  Uiso   1.00
O883   O     0.18090   0.49510   0.78143   0.00000  Uiso   1.00
O884   O     0.31910   0.50490   0.88523   0.00000  Uiso   1.00
O885   O     0.44642   0.35568   0.78179   0.00000  Uiso   1.00
C886   C     0.45128   0.66276   0.72010   0.00000  Uiso   1.00
H887   H     0.48530   0.64724   0.71510   0.00000  Uiso   1.00
H888   H     0.44520   0.35615   0.68805   0.00000  Uiso   1.00
C889   C     0.41712   0.61594   0.70147   0.00000  Uiso   1.00
H890   H     0.38254   0.62985   0.70538   0.00000  Uiso   1.00
H891   H     0.42063   0.59495   0.98638   0.00000  Uiso   1.00
H892   H     0.42277   0.58794   0.73180   0.00000  Uiso   1.00
O893   O     0.05358   0.64432   0.88487   0.00000  Uiso   1.00
C894   C     0.04876   0.33720   0.94658   0.00000  Uiso   1.00
H895   H     0.05494   0.64380   0.97860   0.00000  Uiso   1.00
H896   H     0.01473   0.35265   0.95168   0.00000  Uiso   1.00
C897   C     0.08287   0.38408   0.96517   0.00000  Uiso   1.00
H898   H     0.07713   0.41208   0.93486   0.00000  Uiso   1.00
H899   H     0.07938   0.40504   0.68027   0.00000  Uiso   1.00
H900   H     0.11746   0.37024   0.96119   0.00000  Uiso   1.00
C901   C     0.74865   0.39990   0.81774   0.00000  Uiso   1.00
C902   C     0.75135   0.60010   0.84893   0.00000  Uiso   1.00
C903   C     0.51886   0.40400   0.79925   0.00000  Uiso   1.00
C904   C     0.98113   0.59600   0.86742   0.00000  Uiso   1.00
C905   C     0.74801   0.34390   0.80896   0.00000  Uiso   1.00
C906   C     0.75198   0.65610   0.85770   0.00000  Uiso   1.00
C907   C     0.66457   0.50005   0.83434   0.00000  Uiso   1.00
C908   C     0.83543   0.49995   0.83232   0.00000  Uiso   1.00
C909   C     0.90884   0.54771   0.84850   0.00000  Uiso   1.00
C910   C     0.59116   0.45228   0.81816   0.00000  Uiso   1.00
C911   C     0.88345   0.49993   0.83023   0.00000  Uiso   1.00
C912   C     0.61655   0.50007   0.83644   0.00000  Uiso   1.00
C913   C     0.90380   0.45204   0.81241   0.00000  Uiso   1.00
C914   C     0.59620   0.54796   0.85425   0.00000  Uiso   1.00
C915   C     0.95059   0.45131   0.81358   0.00000  Uiso   1.00
C916   C     0.54941   0.54869   0.85308   0.00000  Uiso   1.00
C917   C     0.97653   0.49983   0.83245   0.00000  Uiso   1.00
C918   C     0.52347   0.50017   0.83421   0.00000  Uiso   1.00
C919   C     0.95546   0.54810   0.84953   0.00000  Uiso   1.00
C920   C     0.54454   0.45190   0.81713   0.00000  Uiso   1.00
C921   C     0.97181   0.40327   0.79623   0.00000  Uiso   1.00
C922   C     0.52819   0.59673   0.87043   0.00000  Uiso   1.00
Cu923  Cu    0.75500   0.50579   0.89479   0.00000  Uiso   1.00
Cu924  Cu    0.74499   0.49421   0.77187   0.00000  Uiso   1.00
H925   H     0.89217   0.58442   0.86215   0.00000  Uiso   1.00
H926   H     0.60783   0.41558   0.80452   0.00000  Uiso   1.00
H927   H     0.88297   0.41560   0.79855   0.00000  Uiso   1.00
H928   H     0.61703   0.58440   0.86812   0.00000  Uiso   1.00
H929   H     0.53544   0.36710   0.78821   0.00000  Uiso   1.00
H930   H     0.96456   0.63291   0.87846   0.00000  Uiso   1.00
H931   H     0.74428   0.65331   0.76203   0.00000  Uiso   1.00
H932   H     0.75572   0.34669   0.90463   0.00000  Uiso   1.00
H933   H     0.71497   0.45932   0.98291   0.00000  Uiso   1.00
H934   H     0.78503   0.54068   0.68375   0.00000  Uiso   1.00
N935   N     0.73744   0.48547   0.67951   0.00000  Uiso   1.00
N936   N     0.76255   0.51453   0.98716   0.00000  Uiso   1.00
O937   O     0.75325   0.42871   0.87326   0.00000  Uiso   1.00
O938   O     0.74674   0.57129   0.79341   0.00000  Uiso   1.00
O939   O     0.74480   0.41892   0.76945   0.00000  Uiso   1.00
O940   O     0.75520   0.58108   0.89721   0.00000  Uiso   1.00
O941   O     0.68935   0.50488   0.88524   0.00000  Uiso   1.00
O942   O     0.81064   0.49512   0.78143   0.00000  Uiso   1.00
O943   O     0.68090   0.49510   0.78143   0.00000  Uiso   1.00
O944   O     0.81910   0.50490   0.88523   0.00000  Uiso   1.00
O945   O     0.94642   0.35568   0.78179   0.00000  Uiso   1.00
C946   C     0.95128   0.66276   0.72010   0.00000  Uiso   1.00
H947   H     0.98530   0.64724   0.71510   0.00000  Uiso   1.00
H948   H     0.94520   0.35615   0.68805   0.00000  Uiso   1.00
C949   C     0.91712   0.61594   0.70147   0.00000  Uiso   1.00
H950   H     0.88254   0.62985   0.70538   0.00000  Uiso   1.00
H951   H     0.92063   0.59495   0.98638   0.00000  Uiso   1.00
H952   H     0.92277   0.58794   0.73180   0.00000  Uiso   1.00
O953   O     0.55358   0.64432   0.88487   0.00000  Uiso   1.00
C954   C     0.54876   0.33720   0.94658   0.00000  Uiso   1.00
H955   H     0.55494   0.64380   0.97860   0.00000  Uiso   1.00
H956   H     0.51473   0.35265   0.95168   0.00000  Uiso   1.00
C957   C     0.58287   0.38408   0.96517   0.00000  Uiso   1.00
H958   H     0.57713   0.41208   0.93486   0.00000  Uiso   1.00
H959   H     0.57938   0.40504   0.68027   0.00000  Uiso   1.00
H960   H     0.61746   0.37024   0.96119   0.00000  Uiso   1.00
C961   C     0.24865   0.73324   0.81774   0.00000  Uiso   1.00
C962   C     0.25135   0.93343   0.84893   0.00000  Uiso   1.00
C963   C     0.01886   0.73733   0.79925   0.00000  Uiso   1.00
C964   C     0.48113   0.92933   0.86742   0.00000  Uiso   1.00
C965   C     0.24801   0.67724   0.80896   0.00000  Uiso   1.00
C966   C     0.25198   0.98943   0.85770   0.00000  Uiso   1.00
C967   C     0.16457   0.83339   0.83434   0.00000  Uiso   1.00
C968   C     0.33543   0.83328   0.83232   0.00000  Uiso   1.00
C969   C     0.40884   0.88105   0.84850   0.00000  Uiso   1.00
C970   C     0.09116   0.78562   0.81816   0.00000  Uiso   1.00
C971   C     0.38345   0.83326   0.83023   0.00000  Uiso   1.00
C972   C     0.11655   0.83340   0.83644   0.00000  Uiso   1.00
C973   C     0.40380   0.78537   0.81241   0.00000  Uiso   1.00
C974   C     0.09620   0.88130   0.85425   0.00000  Uiso   1.00
C975   C     0.45059   0.78464   0.81358   0.00000  Uiso   1.00
C976   C     0.04941   0.88203   0.85308   0.00000  Uiso   1.00
C977   C     0.47653   0.83317   0.83245   0.00000  Uiso   1.00
C978   C     0.02347   0.83350   0.83421   0.00000  Uiso   1.00
C979   C     0.45546   0.88143   0.84953   0.00000  Uiso   1.00
C980   C     0.04454   0.78523   0.81713   0.00000  Uiso   1.00
C981   C     0.47181   0.73660   0.79623   0.00000  Uiso   1.00
C982   C     0.02819   0.93007   0.87043   0.00000  Uiso   1.00
Cu983  Cu    0.25500   0.83913   0.89479   0.00000  Uiso   1.00
Cu984  Cu    0.24499   0.82754   0.77187   0.00000  Uiso   1.00
H985   H     0.39217   0.91775   0.86215   0.00000  Uiso   1.00
H986   H     0.10783   0.74892   0.80452   0.00000  Uiso   1.00
H987   H     0.38297   0.74893   0.79855   0.00000  Uiso   1.00
H988   H     0.11703   0.91774   0.86812   0.00000  Uiso   1.00
H989   H     0.03544   0.70043   0.78821   0.00000  Uiso   1.00
H990   H     0.46456   0.96624   0.87846   0.00000  Uiso   1.00
H991   H     0.24428   0.98664   0.76203   0.00000  Uiso   1.00
H992   H     0.25572   0.68002   0.90463   0.00000  Uiso   1.00
H993   H     0.21497   0.79265   0.98291   0.00000  Uiso   1.00
H994   H     0.28503   0.87401   0.68375   0.00000  Uiso   1.00
N995   N     0.23744   0.81881   0.67951   0.00000  Uiso   1.00
N996   N     0.26255   0.84786   0.98716   0.00000  Uiso   1.00
O997   O     0.25325   0.76204   0.87326   0.00000  Uiso   1.00
O998   O     0.24674   0.90462   0.79341   0.00000  Uiso   1.00
O999   O     0.24480   0.75226   0.76945   0.00000  Uiso   1.00
O1000  O     0.25520   0.91441   0.89721   0.00000  Uiso   1.00
O1001  O     0.18935   0.83821   0.88524   0.00000  Uiso   1.00
O1002  O     0.31064   0.82845   0.78143   0.00000  Uiso   1.00
O1003  O     0.18090   0.82843   0.78143   0.00000  Uiso   1.00
O1004  O     0.31910   0.83824   0.88523   0.00000  Uiso   1.00
O1005  O     0.44642   0.68901   0.78179   0.00000  Uiso   1.00
C1006  C     0.45128   0.99609   0.72010   0.00000  Uiso   1.00
H1007  H     0.48530   0.98058   0.71510   0.00000  Uiso   1.00
H1008  H     0.44520   0.68948   0.68805   0.00000  Uiso   1.00
C1009  C     0.41712   0.94927   0.70147   0.00000  Uiso   1.00
H1010  H     0.38254   0.96318   0.70538   0.00000  Uiso   1.00
H1011  H     0.42063   0.92829   0.98638   0.00000  Uiso   1.00
H1012  H     0.42277   0.92127   0.73180   0.00000  Uiso   1.00
O1013  O     0.05358   0.97766   0.88487   0.00000  Uiso   1.00
C1014  C     0.04876   0.67054   0.94658   0.00000  Uiso   1.00
H1015  H     0.05494   0.97713   0.97860   0.00000  Uiso   1.00
H1016  H     0.01473   0.68598   0.95168   0.00000  Uiso   1.00
C1017  C     0.08287   0.71741   0.96517   0.00000  Uiso   1.00
H1018  H     0.07713   0.74541   0.93486   0.00000  Uiso   1.00
H1019  H     0.07938   0.73838   0.68027   0.00000  Uiso   1.00
H1020  H     0.11746   0.70357   0.96119   0.00000  Uiso   1.00
C1021  C     0.74865   0.73324   0.81774   0.00000  Uiso   1.00
C1022  C     0.75135   0.93343   0.84893   0.00000  Uiso   1.00
C1023  C     0.51886   0.73733   0.79925   0.00000  Uiso   1.00
C1024  C     0.98113   0.92933   0.86742   0.00000  Uiso   1.00
C1025  C     0.74801   0.67724   0.80896   0.00000  Uiso   1.00
C1026  C     0.75198   0.98943   0.85770   0.00000  Uiso   1.00
C1027  C     0.66457   0.83339   0.83434   0.00000  Uiso   1.00
C1028  C     0.83543   0.83328   0.83232   0.00000  Uiso   1.00
C1029  C     0.90884   0.88105   0.84850   0.00000  Uiso   1.00
C1030  C     0.59116   0.78562   0.81816   0.00000  Uiso   1.00
C1031  C     0.88345   0.83326   0.83023   0.00000  Uiso   1.00
C1032  C     0.61655   0.83340   0.83644   0.00000  Uiso   1.00
C1033  C     0.90380   0.78537   0.81241   0.00000  Uiso   1.00
C1034  C     0.59620   0.88130   0.85425   0.00000  Uiso   1.00
C1035  C     0.95059   0.78464   0.81358   0.00000  Uiso   1.00
C1036  C     0.54941   0.88203   0.85308   0.00000  Uiso   1.00
C1037  C     0.97653   0.83317   0.83245   0.00000  Uiso   1.00
C1038  C     0.52347   0.83350   0.83421   0.00000  Uiso   1.00
C1039  C     0.95546   0.88143   0.84953   0.00000  Uiso   1.00
C1040  C     0.54454   0.78523   0.81713   0.00000  Uiso   1.00
C1041  C     0.97181   0.73660   0.79623   0.00000  Uiso   1.00
C1042  C     0.52819   0.93007   0.87043   0.00000  Uiso   1.00
Cu1043 Cu    0.75500   0.83913   0.89479   0.00000  Uiso   1.00
Cu1044 Cu    0.74499   0.82754   0.77187   0.00000  Uiso   1.00
H1045  H     0.89217   0.91775   0.86215   0.00000  Uiso   1.00
H1046  H     0.60783   0.74892   0.80452   0.00000  Uiso   1.00
H1047  H     0.88297   0.74893   0.79855   0.00000  Uiso   1.00
H1048  H     0.61703   0.91774   0.86812   0.00000  Uiso   1.00
H1049  H     0.53544   0.70043   0.78821   0.00000  Uiso   1.00
H1050  H     0.96456   0.96624   0.87846   0.00000  Uiso   1.00
H1051  H     0.74428   0.98664   0.76203   0.00000  Uiso   1.00
H1052  H     0.75572   0.68002   0.90463   0.00000  Uiso   1.00
H1053  H     0.71497   0.79265   0.98291   0.00000  Uiso   1.00
H1054  H     0.78503   0.87401   0.68375   0.00000  Uiso   1.00
N1055  N     0.73744   0.81881   0.67951   0.00000  Uiso   1.00
N1056  N     0.76255   0.84786   0.98716   0.00000  Uiso   1.00
O1057  O     0.75325   0.76204   0.87326   0.00000  Uiso   1.00
O1058  O     0.74674   0.90462   0.79341   0.00000  Uiso   1.00
O1059  O     0.74480   0.75226   0.76945   0.00000  Uiso   1.00
O1060  O     0.75520   0.91441   0.89721   0.00000  Uiso   1.00
O1061  O     0.68935   0.83821   0.88524   0.00000  Uiso   1.00
O1062  O     0.81064   0.82845   0.78143   0.00000  Uiso   1.00
O1063  O     0.68090   0.82843   0.78143   0.00000  Uiso   1.00
O1064  O     0.81910   0.83824   0.88523   0.00000  Uiso   1.00
O1065  O     0.94642   0.68901   0.78179   0.00000  Uiso   1.00
C1066  C     0.95128   0.99609   0.72010   0.00000  Uiso   1.00
H1067  H     0.98530   0.98058   0.71510   0.00000  Uiso   1.00
H1068  H     0.94520   0.68948   0.68805   0.00000  Uiso   1.00
C1069  C     0.91712   0.94927   0.70147   0.00000  Uiso   1.00
H1070  H     0.88254   0.96318   0.70538   0.00000  Uiso   1.00
H1071  H     0.92063   0.92829   0.98638   0.00000  Uiso   1.00
H1072  H     0.92277   0.92127   0.73180   0.00000  Uiso   1.00
O1073  O     0.55358   0.97766   0.88487   0.00000  Uiso   1.00
C1074  C     0.54876   0.67054   0.94658   0.00000  Uiso   1.00
H1075  H     0.55494   0.97713   0.97860   0.00000  Uiso   1.00
H1076  H     0.51473   0.68598   0.95168   0.00000  Uiso   1.00
C1077  C     0.58287   0.71741   0.96517   0.00000  Uiso   1.00
H1078  H     0.57713   0.74541   0.93486   0.00000  Uiso   1.00
H1079  H     0.57938   0.73838   0.68027   0.00000  Uiso   1.00
H1080  H     0.61746   0.70357   0.96119   0.00000  Uiso   1.00
loop_
_geom_bond_atom_site_label_1
_geom_bond_atom_site_label_2
_geom_bond_distance
_geom_bond_site_symmetry_2
_ccdc_geom_bond_type
C1     O37     1.292   .     A
C1     C5      1.423   .     S
C1     O39     1.284   .     A
C2     O38     1.292   .     A
C2     C6      1.423   .     S
C2     O40     1.284   .     A
C3     C20     1.399   .     A
C3     H29     1.083   .     S
C3     C81     1.403   1_455 S
C4     C19     1.399   .     A
C4     H30     1.083   .     S
C4     C82     1.403   .     S
C5     C246    1.326   1_545 S
C5     H271    1.088   1_545 S
C6     C125    1.326   .     S
C6     H152    1.088   .     S
C7     O43     1.290   .     A
C7     O41     1.293   .     A
C7     C12     1.439   .     S
C8     C11     1.439   .     S
C8     O42     1.293   .     A
C8     O44     1.290   .     A
C9     C11     1.393   .     A
C9     H25     1.085   .     S
C9     C19     1.392   .     A
C10    H26     1.085   .     S
C10    C12     1.393   .     A
C10    C20     1.392   .     A
C11    C13     1.395   .     A
C12    C14     1.395   .     A
C13    C15     1.398   .     A
C13    H27     1.085   .     S
C14    H28     1.085   .     S
C14    C16     1.398   .     A
C15    C17     1.418   .     A
C15    C21     1.410   .     A
C16    C18     1.418   .     A
C16    C22     1.410   .     A
C17    C19     1.412   .     A
C17    C78     1.400   .     S
C18    C20     1.412   .     A
C18    C77     1.400   1_455 S
C21    O45     1.387   .     S
C21    C63     1.403   .     S
C22    O53     1.387   .     S
C22    C64     1.403   1_455 S
Cu23   Cu24    2.689   .     S
Cu23   O41     1.958   .     S
Cu23   O37     1.950   .     S
Cu23   O40     1.945   .     S
Cu23   N36     2.020   .     S
Cu23   O44     1.942   .     S
Cu24   O38     1.950   .     S
Cu24   N35     2.020   .     S
Cu24   O39     1.945   .     S
Cu24   O42     1.958   .     S
Cu24   O43     1.942   .     S
H31    C125    1.088   .     S
H32    C246    1.088   1_545 S
H33    N395    1.029   .     S
H34    N756    1.029   1_554 S
N35    H753    1.029   1_554 S
N35    N756    1.293   1_554 S
N36    N395    1.293   .     S
N36    H394    1.029   .     S
O45    C286    1.413   1_545 S
C46    C49     1.521   .     S
C46    H47     1.112   .     S
C46    O165    1.413   .     S
C46    H168    1.115   .     S
H48    C286    1.115   1_545 S
C49    H52     1.111   .     S
C49    H50     1.111   .     S
C49    H771    1.110   1_554 S
H51    C409    1.110   .     S
O53    C174    1.413   .     S
C54    H56     1.112   .     S
C54    C57     1.521   .     S
C54    O293    1.413   1_545 S
C54    H295    1.115   1_545 S
H55    C174    1.115   .     S
C57    H58     1.111   .     S
C57    H60     1.111   .     S
C57    H419    1.110   .     S
H59    C777    1.110   1_554 S
C61    O97     1.292   .     A
C61    C65     1.423   .     S
C61    O99     1.284   .     A
C62    O98     1.292   .     A
C62    C66     1.423   .     S
C62    O100    1.284   .     A
C63    C80     1.399   .     A
C63    H89     1.083   .     S
C64    C79     1.399   .     A
C64    H90     1.083   .     S
C64    C22     1.403   1_655 S
C65    C306    1.326   1_545 S
C65    H331    1.088   1_545 S
C66    C185    1.326   .     S
C66    H212    1.088   .     S
C67    O103    1.290   .     A
C67    O101    1.293   .     A
C67    C72     1.439   .     S
C68    C71     1.439   .     S
C68    O102    1.293   .     A
C68    O104    1.290   .     A
C69    C71     1.393   .     A
C69    H85     1.085   .     S
C69    C79     1.392   .     A
C70    H86     1.085   .     S
C70    C72     1.393   .     A
C70    C80     1.392   .     A
C71    C73     1.395   .     A
C72    C74     1.395   .     A
C73    C75     1.398   .     A
C73    H87     1.085   .     S
C74    H88     1.085   .     S
C74    C76     1.398   .     A
C75    C77     1.418   .     A
C75    C81     1.410   .     A
C76    C78     1.418   .     A
C76    C82     1.410   .     A
C77    C79     1.412   .     A
C77    C18     1.400   1_655 S
C78    C80     1.412   .     A
C81    O105    1.387   .     S
C81    C3      1.403   1_655 S
C82    O113    1.387   .     S
Cu83   Cu84    2.689   .     S
Cu83   O101    1.958   .     S
Cu83   O97     1.950   .     S
Cu83   O100    1.945   .     S
Cu83   N96     2.020   .     S
Cu83   O104    1.942   .     S
Cu84   O98     1.950   .     S
Cu84   N95     2.020   .     S
Cu84   O99     1.945   .     S
Cu84   O102    1.958   .     S
Cu84   O103    1.942   .     S
H91    C185    1.088   .     S
H92    C306    1.088   1_545 S
H93    N455    1.029   .     S
H94    N816    1.029   1_554 S
N95    H813    1.029   1_554 S
N95    N816    1.293   1_554 S
N96    N455    1.293   .     S
N96    H454    1.029   .     S
O105   C346    1.413   1_545 S
C106   C109    1.521   .     S
C106   H107    1.112   .     S
C106   O225    1.413   .     S
C106   H228    1.115   .     S
H108   C346    1.115   1_545 S
C109   H112    1.111   .     S
C109   H110    1.111   .     S
C109   H831    1.110   1_554 S
H111   C469    1.110   .     S
O113   C234    1.413   .     S
C114   H116    1.112   .     S
C114   C117    1.521   .     S
C114   O353    1.413   1_545 S
C114   H355    1.115   1_545 S
H115   C234    1.115   .     S
C117   H118    1.111   .     S
C117   H120    1.111   .     S
C117   H479    1.110   .     S
H119   C837    1.110   1_554 S
C121   O157    1.292   .     A
C121   C125    1.423   .     S
C121   O159    1.284   .     A
C122   O158    1.292   .     A
C122   C126    1.423   .     S
C122   O160    1.284   .     A
C123   C140    1.399   .     A
C123   H149    1.083   .     S
C123   C201    1.403   1_455 S
C124   C139    1.399   .     A
C124   H150    1.083   .     S
C124   C202    1.403   .     S
C126   C245    1.326   .     S
C126   H272    1.088   .     S
C127   O163    1.290   .     A
C127   O161    1.293   .     A
C127   C132    1.439   .     S
C128   C131    1.439   .     S
C128   O162    1.293   .     A
C128   O164    1.290   .     A
C129   C131    1.393   .     A
C129   H145    1.085   .     S
C129   C139    1.392   .     A
C130   H146    1.085   .     S
C130   C132    1.393   .     A
C130   C140    1.392   .     A
C131   C133    1.395   .     A
C132   C134    1.395   .     A
C133   C135    1.398   .     A
C133   H147    1.085   .     S
C134   H148    1.085   .     S
C134   C136    1.398   .     A
C135   C137    1.418   .     A
C135   C141    1.410   .     A
C136   C138    1.418   .     A
C136   C142    1.410   .     A
C137   C139    1.412   .     A
C137   C198    1.400   .     S
C138   C140    1.412   .     A
C138   C197    1.400   1_455 S
C141   O165    1.387   .     S
C141   C183    1.403   .     S
C142   O173    1.387   .     S
C142   C184    1.403   1_455 S
Cu143  Cu144   2.689   .     S
Cu143  O161    1.958   .     S
Cu143  O157    1.950   .     S
Cu143  O160    1.945   .     S
Cu143  N156    2.020   .     S
Cu143  O164    1.942   .     S
Cu144  O158    1.950   .     S
Cu144  N155    2.020   .     S
Cu144  O159    1.945   .     S
Cu144  O162    1.958   .     S
Cu144  O163    1.942   .     S
H151   C245    1.088   .     S
H153   N515    1.029   .     S
H154   N876    1.029   1_554 S
N155   H873    1.029   1_554 S
N155   N876    1.293   1_554 S
N156   N515    1.293   .     S
N156   H514    1.029   .     S
C166   C169    1.521   .     S
C166   H167    1.112   .     S
C166   O285    1.413   .     S
C166   H288    1.115   .     S
C169   H172    1.111   .     S
C169   H170    1.111   .     S
C169   H891    1.110   1_554 S
H171   C529    1.110   .     S
O173   C294    1.413   .     S
C174   H176    1.112   .     S
C174   C177    1.521   .     S
H175   C294    1.115   .     S
C177   H178    1.111   .     S
C177   H180    1.111   .     S
C177   H539    1.110   .     S
H179   C897    1.110   1_554 S
C181   O217    1.292   .     A
C181   C185    1.423   .     S
C181   O219    1.284   .     A
C182   O218    1.292   .     A
C182   C186    1.423   .     S
C182   O220    1.284   .     A
C183   C200    1.399   .     A
C183   H209    1.083   .     S
C184   C199    1.399   .     A
C184   H210    1.083   .     S
C184   C142    1.403   1_655 S
C186   C305    1.326   .     S
C186   H332    1.088   .     S
C187   O223    1.290   .     A
C187   O221    1.293   .     A
C187   C192    1.439   .     S
C188   C191    1.439   .     S
C188   O222    1.293   .     A
C188   O224    1.290   .     A
C189   C191    1.393   .     A
C189   H205    1.085   .     S
C189   C199    1.392   .     A
C190   H206    1.085   .     S
C190   C192    1.393   .     A
C190   C200    1.392   .     A
C191   C193    1.395   .     A
C192   C194    1.395   .     A
C193   C195    1.398   .     A
C193   H207    1.085   .     S
C194   H208    1.085   .     S
C194   C196    1.398   .     A
C195   C197    1.418   .     A
C195   C201    1.410   .     A
C196   C198    1.418   .     A
C196   C202    1.410   .     A
C197   C199    1.412   .     A
C197   C138    1.400   1_655 S
C198   C200    1.412   .     A
C201   O225    1.387   .     S
C201   C123    1.403   1_655 S
C202   O233    1.387   .     S
Cu203  Cu204   2.689   .     S
Cu203  O221    1.958   .     S
Cu203  O217    1.950   .     S
Cu203  O220    1.945   .     S
Cu203  N216    2.020   .     S
Cu203  O224    1.942   .     S
Cu204  O218    1.950   .     S
Cu204  N215    2.020   .     S
Cu204  O219    1.945   .     S
Cu204  O222    1.958   .     S
Cu204  O223    1.942   .     S
H211   C305    1.088   .     S
H213   N575    1.029   .     S
H214   N936    1.029   1_554 S
N215   H933    1.029   1_554 S
N215   N936    1.293   1_554 S
N216   N575    1.293   .     S
N216   H574    1.029   .     S
C226   C229    1.521   .     S
C226   H227    1.112   .     S
C226   O345    1.413   .     S
C226   H348    1.115   .     S
C229   H232    1.111   .     S
C229   H230    1.111   .     S
C229   H951    1.110   1_554 S
H231   C589    1.110   .     S
O233   C354    1.413   .     S
C234   H236    1.112   .     S
C234   C237    1.521   .     S
H235   C354    1.115   .     S
C237   H238    1.111   .     S
C237   H240    1.111   .     S
C237   H599    1.110   .     S
H239   C957    1.110   1_554 S
C241   O277    1.292   .     A
C241   C245    1.423   .     S
C241   O279    1.284   .     A
C242   O278    1.292   .     A
C242   C246    1.423   .     S
C242   O280    1.284   .     A
C243   C260    1.399   .     A
C243   H269    1.083   .     S
C243   C321    1.403   1_455 S
C244   C259    1.399   .     A
C244   H270    1.083   .     S
C244   C322    1.403   .     S
C246   C5      1.326   1_565 S
C246   H32     1.088   1_565 S
C247   O283    1.290   .     A
C247   O281    1.293   .     A
C247   C252    1.439   .     S
C248   C251    1.439   .     S
C248   O282    1.293   .     A
C248   O284    1.290   .     A
C249   C251    1.393   .     A
C249   H265    1.085   .     S
C249   C259    1.392   .     A
C250   H266    1.085   .     S
C250   C252    1.393   .     A
C250   C260    1.392   .     A
C251   C253    1.395   .     A
C252   C254    1.395   .     A
C253   C255    1.398   .     A
C253   H267    1.085   .     S
C254   H268    1.085   .     S
C254   C256    1.398   .     A
C255   C257    1.418   .     A
C255   C261    1.410   .     A
C256   C258    1.418   .     A
C256   C262    1.410   .     A
C257   C259    1.412   .     A
C257   C318    1.400   .     S
C258   C260    1.412   .     A
C258   C317    1.400   1_455 S
C261   O285    1.387   .     S
C261   C303    1.403   .     S
C262   O293    1.387   .     S
C262   C304    1.403   1_455 S
Cu263  Cu264   2.689   .     S
Cu263  O281    1.958   .     S
Cu263  O277    1.950   .     S
Cu263  O280    1.945   .     S
Cu263  N276    2.020   .     S
Cu263  O284    1.942   .     S
Cu264  O278    1.950   .     S
Cu264  N275    2.020   .     S
Cu264  O279    1.945   .     S
Cu264  O282    1.958   .     S
Cu264  O283    1.942   .     S
H271   C5      1.088   1_565 S
H273   N635    1.029   .     S
H274   N996    1.029   1_554 S
N275   H993    1.029   1_554 S
N275   N996    1.293   1_554 S
N276   N635    1.293   .     S
N276   H634    1.029   .     S
C286   C289    1.521   .     S
C286   H287    1.112   .     S
C286   O45     1.413   1_565 S
C286   H48     1.115   1_565 S
C289   H292    1.111   .     S
C289   H290    1.111   .     S
C289   H1011   1.110   1_554 S
H291   C649    1.110   .     S
O293   C54     1.413   1_565 S
C294   H296    1.112   .     S
C294   C297    1.521   .     S
H295   C54     1.115   1_565 S
C297   H298    1.111   .     S
C297   H300    1.111   .     S
C297   H659    1.110   .     S
H299   C1017   1.110   1_554 S
C301   O337    1.292   .     A
C301   C305    1.423   .     S
C301   O339    1.284   .     A
C302   O338    1.292   .     A
C302   C306    1.423   .     S
C302   O340    1.284   .     A
C303   C320    1.399   .     A
C303   H329    1.083   .     S
C304   C319    1.399   .     A
C304   H330    1.083   .     S
C304   C262    1.403   1_655 S
C306   C65     1.326   1_565 S
C306   H92     1.088   1_565 S
C307   O343    1.290   .     A
C307   O341    1.293   .     A
C307   C312    1.439   .     S
C308   C311    1.439   .     S
C308   O342    1.293   .     A
C308   O344    1.290   .     A
C309   C311    1.393   .     A
C309   H325    1.085   .     S
C309   C319    1.392   .     A
C310   H326    1.085   .     S
C310   C312    1.393   .     A
C310   C320    1.392   .     A
C311   C313    1.395   .     A
C312   C314    1.395   .     A
C313   C315    1.398   .     A
C313   H327    1.085   .     S
C314   H328    1.085   .     S
C314   C316    1.398   .     A
C315   C317    1.418   .     A
C315   C321    1.410   .     A
C316   C318    1.418   .     A
C316   C322    1.410   .     A
C317   C319    1.412   .     A
C317   C258    1.400   1_655 S
C318   C320    1.412   .     A
C321   O345    1.387   .     S
C321   C243    1.403   1_655 S
C322   O353    1.387   .     S
Cu323  Cu324   2.689   .     S
Cu323  O341    1.958   .     S
Cu323  O337    1.950   .     S
Cu323  O340    1.945   .     S
Cu323  N336    2.020   .     S
Cu323  O344    1.942   .     S
Cu324  O338    1.950   .     S
Cu324  N335    2.020   .     S
Cu324  O339    1.945   .     S
Cu324  O342    1.958   .     S
Cu324  O343    1.942   .     S
H331   C65     1.088   1_565 S
H333   N695    1.029   .     S
H334   N1056   1.029   1_554 S
N335   H1053   1.029   1_554 S
N335   N1056   1.293   1_554 S
N336   N695    1.293   .     S
N336   H694    1.029   .     S
C346   C349    1.521   .     S
C346   H347    1.112   .     S
C346   O105    1.413   1_565 S
C346   H108    1.115   1_565 S
C349   H352    1.111   .     S
C349   H350    1.111   .     S
C349   H1071   1.110   1_554 S
H351   C709    1.110   .     S
O353   C114    1.413   1_565 S
C354   H356    1.112   .     S
C354   C357    1.521   .     S
H355   C114    1.115   1_565 S
C357   H358    1.111   .     S
C357   H360    1.111   .     S
C357   H719    1.110   .     S
H359   C1077   1.110   1_554 S
C361   O397    1.292   .     A
C361   C365    1.423   .     S
C361   O399    1.284   .     A
C362   O398    1.292   .     A
C362   C366    1.423   .     S
C362   O400    1.284   .     A
C363   C380    1.399   .     A
C363   H389    1.083   .     S
C363   C441    1.403   1_455 S
C364   C379    1.399   .     A
C364   H390    1.083   .     S
C364   C442    1.403   .     S
C365   C606    1.326   1_545 S
C365   H631    1.088   1_545 S
C366   C485    1.326   .     S
C366   H512    1.088   .     S
C367   O403    1.290   .     A
C367   O401    1.293   .     A
C367   C372    1.439   .     S
C368   C371    1.439   .     S
C368   O402    1.293   .     A
C368   O404    1.290   .     A
C369   C371    1.393   .     A
C369   H385    1.085   .     S
C369   C379    1.392   .     A
C370   H386    1.085   .     S
C370   C372    1.393   .     A
C370   C380    1.392   .     A
C371   C373    1.395   .     A
C372   C374    1.395   .     A
C373   C375    1.398   .     A
C373   H387    1.085   .     S
C374   H388    1.085   .     S
C374   C376    1.398   .     A
C375   C377    1.418   .     A
C375   C381    1.410   .     A
C376   C378    1.418   .     A
C376   C382    1.410   .     A
C377   C379    1.412   .     A
C377   C438    1.400   .     S
C378   C380    1.412   .     A
C378   C437    1.400   1_455 S
C381   O405    1.387   .     S
C381   C423    1.403   .     S
C382   O413    1.387   .     S
C382   C424    1.403   1_455 S
Cu383  Cu384   2.689   .     S
Cu383  O401    1.958   .     S
Cu383  O397    1.950   .     S
Cu383  O400    1.945   .     S
Cu383  N396    2.020   .     S
Cu383  O404    1.942   .     S
Cu384  O398    1.950   .     S
Cu384  N395    2.020   .     S
Cu384  O399    1.945   .     S
Cu384  O402    1.958   .     S
Cu384  O403    1.942   .     S
H391   C485    1.088   .     S
H392   C606    1.088   1_545 S
H393   N755    1.029   .     S
N396   N755    1.293   .     S
N396   H754    1.029   .     S
O405   C646    1.413   1_545 S
C406   C409    1.521   .     S
C406   H407    1.112   .     S
C406   O525    1.413   .     S
C406   H528    1.115   .     S
H408   C646    1.115   1_545 S
C409   H412    1.111   .     S
C409   H410    1.111   .     S
H411   C769    1.110   .     S
O413   C534    1.413   .     S
C414   H416    1.112   .     S
C414   C417    1.521   .     S
C414   O653    1.413   1_545 S
C414   H655    1.115   1_545 S
H415   C534    1.115   .     S
C417   H418    1.111   .     S
C417   H420    1.111   .     S
C417   H779    1.110   .     S
C421   O457    1.292   .     A
C421   C425    1.423   .     S
C421   O459    1.284   .     A
C422   O458    1.292   .     A
C422   C426    1.423   .     S
C422   O460    1.284   .     A
C423   C440    1.399   .     A
C423   H449    1.083   .     S
C424   C439    1.399   .     A
C424   H450    1.083   .     S
C424   C382    1.403   1_655 S
C425   C666    1.326   1_545 S
C425   H691    1.088   1_545 S
C426   C545    1.326   .     S
C426   H572    1.088   .     S
C427   O463    1.290   .     A
C427   O461    1.293   .     A
C427   C432    1.439   .     S
C428   C431    1.439   .     S
C428   O462    1.293   .     A
C428   O464    1.290   .     A
C429   C431    1.393   .     A
C429   H445    1.085   .     S
C429   C439    1.392   .     A
C430   H446    1.085   .     S
C430   C432    1.393   .     A
C430   C440    1.392   .     A
C431   C433    1.395   .     A
C432   C434    1.395   .     A
C433   C435    1.398   .     A
C433   H447    1.085   .     S
C434   H448    1.085   .     S
C434   C436    1.398   .     A
C435   C437    1.418   .     A
C435   C441    1.410   .     A
C436   C438    1.418   .     A
C436   C442    1.410   .     A
C437   C439    1.412   .     A
C437   C378    1.400   1_655 S
C438   C440    1.412   .     A
C441   O465    1.387   .     S
C441   C363    1.403   1_655 S
C442   O473    1.387   .     S
Cu443  Cu444   2.689   .     S
Cu443  O461    1.958   .     S
Cu443  O457    1.950   .     S
Cu443  O460    1.945   .     S
Cu443  N456    2.020   .     S
Cu443  O464    1.942   .     S
Cu444  O458    1.950   .     S
Cu444  N455    2.020   .     S
Cu444  O459    1.945   .     S
Cu444  O462    1.958   .     S
Cu444  O463    1.942   .     S
H451   C545    1.088   .     S
H452   C666    1.088   1_545 S
H453   N815    1.029   .     S
N456   N815    1.293   .     S
N456   H814    1.029   .     S
O465   C706    1.413   1_545 S
C466   C469    1.521   .     S
C466   H467    1.112   .     S
C466   O585    1.413   .     S
C466   H588    1.115   .     S
H468   C706    1.115   1_545 S
C469   H472    1.111   .     S
C469   H470    1.111   .     S
H471   C829    1.110   .     S
O473   C594    1.413   .     S
C474   H476    1.112   .     S
C474   C477    1.521   .     S
C474   O713    1.413   1_545 S
C474   H715    1.115   1_545 S
H475   C594    1.115   .     S
C477   H478    1.111   .     S
C477   H480    1.111   .     S
C477   H839    1.110   .     S
C481   O517    1.292   .     A
C481   C485    1.423   .     S
C481   O519    1.284   .     A
C482   O518    1.292   .     A
C482   C486    1.423   .     S
C482   O520    1.284   .     A
C483   C500    1.399   .     A
C483   H509    1.083   .     S
C483   C561    1.403   1_455 S
C484   C499    1.399   .     A
C484   H510    1.083   .     S
C484   C562    1.403   .     S
C486   C605    1.326   .     S
C486   H632    1.088   .     S
C487   O523    1.290   .     A
C487   O521    1.293   .     A
C487   C492    1.439   .     S
C488   C491    1.439   .     S
C488   O522    1.293   .     A
C488   O524    1.290   .     A
C489   C491    1.393   .     A
C489   H505    1.085   .     S
C489   C499    1.392   .     A
C490   H506    1.085   .     S
C490   C492    1.393   .     A
C490   C500    1.392   .     A
C491   C493    1.395   .     A
C492   C494    1.395   .     A
C493   C495    1.398   .     A
C493   H507    1.085   .     S
C494   H508    1.085   .     S
C494   C496    1.398   .     A
C495   C497    1.418   .     A
C495   C501    1.410   .     A
C496   C498    1.418   .     A
C496   C502    1.410   .     A
C497   C499    1.412   .     A
C497   C558    1.400   .     S
C498   C500    1.412   .     A
C498   C557    1.400   1_455 S
C501   O525    1.387   .     S
C501   C543    1.403   .     S
C502   O533    1.387   .     S
C502   C544    1.403   1_455 S
Cu503  Cu504   2.689   .     S
Cu503  O521    1.958   .     S
Cu503  O517    1.950   .     S
Cu503  O520    1.945   .     S
Cu503  N516    2.020   .     S
Cu503  O524    1.942   .     S
Cu504  O518    1.950   .     S
Cu504  N515    2.020   .     S
Cu504  O519    1.945   .     S
Cu504  O522    1.958   .     S
Cu504  O523    1.942   .     S
H511   C605    1.088   .     S
H513   N875    1.029   .     S
N516   N875    1.293   .     S
N516   H874    1.029   .     S
C526   C529    1.521   .     S
C526   H527    1.112   .     S
C526   O645    1.413   .     S
C526   H648    1.115   .     S
C529   H532    1.111   .     S
C529   H530    1.111   .     S
H531   C889    1.110   .     S
O533   C654    1.413   .     S
C534   H536    1.112   .     S
C534   C537    1.521   .     S
H535   C654    1.115   .     S
C537   H538    1.111   .     S
C537   H540    1.111   .     S
C537   H899    1.110   .     S
C541   O577    1.292   .     A
C541   C545    1.423   .     S
C541   O579    1.284   .     A
C542   O578    1.292   .     A
C542   C546    1.423   .     S
C542   O580    1.284   .     A
C543   C560    1.399   .     A
C543   H569    1.083   .     S
C544   C559    1.399   .     A
C544   H570    1.083   .     S
C544   C502    1.403   1_655 S
C546   C665    1.326   .     S
C546   H692    1.088   .     S
C547   O583    1.290   .     A
C547   O581    1.293   .     A
C547   C552    1.439   .     S
C548   C551    1.439   .     S
C548   O582    1.293   .     A
C548   O584    1.290   .     A
C549   C551    1.393   .     A
C549   H565    1.085   .     S
C549   C559    1.392   .     A
C550   H566    1.085   .     S
C550   C552    1.393   .     A
C550   C560    1.392   .     A
C551   C553    1.395   .     A
C552   C554    1.395   .     A
C553   C555    1.398   .     A
C553   H567    1.085   .     S
C554   H568    1.085   .     S
C554   C556    1.398   .     A
C555   C557    1.418   .     A
C555   C561    1.410   .     A
C556   C558    1.418   .     A
C556   C562    1.410   .     A
C557   C559    1.412   .     A
C557   C498    1.400   1_655 S
C558   C560    1.412   .     A
C561   O585    1.387   .     S
C561   C483    1.403   1_655 S
C562   O593    1.387   .     S
Cu563  Cu564   2.689   .     S
Cu563  O581    1.958   .     S
Cu563  O577    1.950   .     S
Cu563  O580    1.945   .     S
Cu563  N576    2.020   .     S
Cu563  O584    1.942   .     S
Cu564  O578    1.950   .     S
Cu564  N575    2.020   .     S
Cu564  O579    1.945   .     S
Cu564  O582    1.958   .     S
Cu564  O583    1.942   .     S
H571   C665    1.088   .     S
H573   N935    1.029   .     S
N576   N935    1.293   .     S
N576   H934    1.029   .     S
C586   C589    1.521   .     S
C586   H587    1.112   .     S
C586   O705    1.413   .     S
C586   H708    1.115   .     S
C589   H592    1.111   .     S
C589   H590    1.111   .     S
H591   C949    1.110   .     S
O593   C714    1.413   .     S
C594   H596    1.112   .     S
C594   C597    1.521   .     S
H595   C714    1.115   .     S
C597   H598    1.111   .     S
C597   H600    1.111   .     S
C597   H959    1.110   .     S
C601   O637    1.292   .     A
C601   C605    1.423   .     S
C601   O639    1.284   .     A
C602   O638    1.292   .     A
C602   C606    1.423   .     S
C602   O640    1.284   .     A
C603   C620    1.399   .     A
C603   H629    1.083   .     S
C603   C681    1.403   1_455 S
C604   C619    1.399   .     A
C604   H630    1.083   .     S
C604   C682    1.403   .     S
C606   C365    1.326   1_565 S
C606   H392    1.088   1_565 S
C607   O643    1.290   .     A
C607   O641    1.293   .     A
C607   C612    1.439   .     S
C608   C611    1.439   .     S
C608   O642    1.293   .     A
C608   O644    1.290   .     A
C609   C611    1.393   .     A
C609   H625    1.085   .     S
C609   C619    1.392   .     A
C610   H626    1.085   .     S
C610   C612    1.393   .     A
C610   C620    1.392   .     A
C611   C613    1.395   .     A
C612   C614    1.395   .     A
C613   C615    1.398   .     A
C613   H627    1.085   .     S
C614   H628    1.085   .     S
C614   C616    1.398   .     A
C615   C617    1.418   .     A
C615   C621    1.410   .     A
C616   C618    1.418   .     A
C616   C622    1.410   .     A
C617   C619    1.412   .     A
C617   C678    1.400   .     S
C618   C620    1.412   .     A
C618   C677    1.400   1_455 S
C621   O645    1.387   .     S
C621   C663    1.403   .     S
C622   O653    1.387   .     S
C622   C664    1.403   1_455 S
Cu623  Cu624   2.689   .     S
Cu623  O641    1.958   .     S
Cu623  O637    1.950   .     S
Cu623  O640    1.945   .     S
Cu623  N636    2.020   .     S
Cu623  O644    1.942   .     S
Cu624  O638    1.950   .     S
Cu624  N635    2.020   .     S
Cu624  O639    1.945   .     S
Cu624  O642    1.958   .     S
Cu624  O643    1.942   .     S
H631   C365    1.088   1_565 S
H633   N995    1.029   .     S
N636   N995    1.293   .     S
N636   H994    1.029   .     S
C646   C649    1.521   .     S
C646   H647    1.112   .     S
C646   O405    1.413   1_565 S
C646   H408    1.115   1_565 S
C649   H652    1.111   .     S
C649   H650    1.111   .     S
H651   C1009   1.110   .     S
O653   C414    1.413   1_565 S
C654   H656    1.112   .     S
C654   C657    1.521   .     S
H655   C414    1.115   1_565 S
C657   H658    1.111   .     S
C657   H660    1.111   .     S
C657   H1019   1.110   .     S
C661   O697    1.292   .     A
C661   C665    1.423   .     S
C661   O699    1.284   .     A
C662   O698    1.292   .     A
C662   C666    1.423   .     S
C662   O700    1.284   .     A
C663   C680    1.399   .     A
C663   H689    1.083   .     S
C664   C679    1.399   .     A
C664   H690    1.083   .     S
C664   C622    1.403   1_655 S
C666   C425    1.326   1_565 S
C666   H452    1.088   1_565 S
C667   O703    1.290   .     A
C667   O701    1.293   .     A
C667   C672    1.439   .     S
C668   C671    1.439   .     S
C668   O702    1.293   .     A
C668   O704    1.290   .     A
C669   C671    1.393   .     A
C669   H685    1.085   .     S
C669   C679    1.392   .     A
C670   H686    1.085   .     S
C670   C672    1.393   .     A
C670   C680    1.392   .     A
C671   C673    1.395   .     A
C672   C674    1.395   .     A
C673   C675    1.398   .     A
C673   H687    1.085   .     S
C674   H688    1.085   .     S
C674   C676    1.398   .     A
C675   C677    1.418   .     A
C675   C681    1.410   .     A
C676   C678    1.418   .     A
C676   C682    1.410   .     A
C677   C679    1.412   .     A
C677   C618    1.400   1_655 S
C678   C680    1.412   .     A
C681   O705    1.387   .     S
C681   C603    1.403   1_655 S
C682   O713    1.387   .     S
Cu683  Cu684   2.689   .     S
Cu683  O701    1.958   .     S
Cu683  O697    1.950   .     S
Cu683  O700    1.945   .     S
Cu683  N696    2.020   .     S
Cu683  O704    1.942   .     S
Cu684  O698    1.950   .     S
Cu684  N695    2.020   .     S
Cu684  O699    1.945   .     S
Cu684  O702    1.958   .     S
Cu684  O703    1.942   .     S
H691   C425    1.088   1_565 S
H693   N1055   1.029   .     S
N696   N1055   1.293   .     S
N696   H1054   1.029   .     S
C706   C709    1.521   .     S
C706   H707    1.112   .     S
C706   O465    1.413   1_565 S
C706   H468    1.115   1_565 S
C709   H712    1.111   .     S
C709   H710    1.111   .     S
H711   C1069   1.110   .     S
O713   C474    1.413   1_565 S
C714   H716    1.112   .     S
C714   C717    1.521   .     S
H715   C474    1.115   1_565 S
C717   H718    1.111   .     S
C717   H720    1.111   .     S
C717   H1079   1.110   .     S
C721   O757    1.292   .     A
C721   C725    1.423   .     S
C721   O759    1.284   .     A
C722   O758    1.292   .     A
C722   C726    1.423   .     S
C722   O760    1.284   .     A
C723   C740    1.399   .     A
C723   H749    1.083   .     S
C723   C801    1.403   1_455 S
C724   C739    1.399   .     A
C724   H750    1.083   .     S
C724   C802    1.403   .     S
C725   C966    1.326   1_545 S
C725   H991    1.088   1_545 S
C726   C845    1.326   .     S
C726   H872    1.088   .     S
C727   O763    1.290   .     A
C727   O761    1.293   .     A
C727   C732    1.439   .     S
C728   C731    1.439   .     S
C728   O762    1.293   .     A
C728   O764    1.290   .     A
C729   C731    1.393   .     A
C729   H745    1.085   .     S
C729   C739    1.392   .     A
C730   H746    1.085   .     S
C730   C732    1.393   .     A
C730   C740    1.392   .     A
C731   C733    1.395   .     A
C732   C734    1.395   .     A
C733   C735    1.398   .     A
C733   H747    1.085   .     S
C734   H748    1.085   .     S
C734   C736    1.398   .     A
C735   C737    1.418   .     A
C735   C741    1.410   .     A
C736   C738    1.418   .     A
C736   C742    1.410   .     A
C737   C739    1.412   .     A
C737   C798    1.400   .     S
C738   C740    1.412   .     A
C738   C797    1.400   1_455 S
C741   O765    1.387   .     S
C741   C783    1.403   .     S
C742   O773    1.387   .     S
C742   C784    1.403   1_455 S
Cu743  Cu744   2.689   .     S
Cu743  O761    1.958   .     S
Cu743  O757    1.950   .     S
Cu743  O760    1.945   .     S
Cu743  N756    2.020   .     S
Cu743  O764    1.942   .     S
Cu744  O758    1.950   .     S
Cu744  N755    2.020   .     S
Cu744  O759    1.945   .     S
Cu744  O762    1.958   .     S
Cu744  O763    1.942   .     S
H751   C845    1.088   .     S
H752   C966    1.088   1_545 S
H753   N35     1.029   1_556 S
N756   N35     1.293   1_556 S
N756   H34     1.029   1_556 S
O765   C1006   1.413   1_545 S
C766   C769    1.521   .     S
C766   H767    1.112   .     S
C766   O885    1.413   .     S
C766   H888    1.115   .     S
H768   C1006   1.115   1_545 S
C769   H772    1.111   .     S
C769   H770    1.111   .     S
H771   C49     1.110   1_556 S
O773   C894    1.413   .     S
C774   H776    1.112   .     S
C774   C777    1.521   .     S
C774   O1013   1.413   1_545 S
C774   H1015   1.115   1_545 S
H775   C894    1.115   .     S
C777   H778    1.111   .     S
C777   H780    1.111   .     S
C777   H59     1.110   1_556 S
C781   O817    1.292   .     A
C781   C785    1.423   .     S
C781   O819    1.284   .     A
C782   O818    1.292   .     A
C782   C786    1.423   .     S
C782   O820    1.284   .     A
C783   C800    1.399   .     A
C783   H809    1.083   .     S
C784   C799    1.399   .     A
C784   H810    1.083   .     S
C784   C742    1.403   1_655 S
C785   C1026   1.326   1_545 S
C785   H1051   1.088   1_545 S
C786   C905    1.326   .     S
C786   H932    1.088   .     S
C787   O823    1.290   .     A
C787   O821    1.293   .     A
C787   C792    1.439   .     S
C788   C791    1.439   .     S
C788   O822    1.293   .     A
C788   O824    1.290   .     A
C789   C791    1.393   .     A
C789   H805    1.085   .     S
C789   C799    1.392   .     A
C790   H806    1.085   .     S
C790   C792    1.393   .     A
C790   C800    1.392   .     A
C791   C793    1.395   .     A
C792   C794    1.395   .     A
C793   C795    1.398   .     A
C793   H807    1.085   .     S
C794   H808    1.085   .     S
C794   C796    1.398   .     A
C795   C797    1.418   .     A
C795   C801    1.410   .     A
C796   C798    1.418   .     A
C796   C802    1.410   .     A
C797   C799    1.412   .     A
C797   C738    1.400   1_655 S
C798   C800    1.412   .     A
C801   O825    1.387   .     S
C801   C723    1.403   1_655 S
C802   O833    1.387   .     S
Cu803  Cu804   2.689   .     S
Cu803  O821    1.958   .     S
Cu803  O817    1.950   .     S
Cu803  O820    1.945   .     S
Cu803  N816    2.020   .     S
Cu803  O824    1.942   .     S
Cu804  O818    1.950   .     S
Cu804  N815    2.020   .     S
Cu804  O819    1.945   .     S
Cu804  O822    1.958   .     S
Cu804  O823    1.942   .     S
H811   C905    1.088   .     S
H812   C1026   1.088   1_545 S
H813   N95     1.029   1_556 S
N816   N95     1.293   1_556 S
N816   H94     1.029   1_556 S
O825   C1066   1.413   1_545 S
C826   C829    1.521   .     S
C826   H827    1.112   .     S
C826   O945    1.413   .     S
C826   H948    1.115   .     S
H828   C1066   1.115   1_545 S
C829   H832    1.111   .     S
C829   H830    1.111   .     S
H831   C109    1.110   1_556 S
O833   C954    1.413   .     S
C834   H836    1.112   .     S
C834   C837    1.521   .     S
C834   O1073   1.413   1_545 S
C834   H1075   1.115   1_545 S
H835   C954    1.115   .     S
C837   H838    1.111   .     S
C837   H840    1.111   .     S
C837   H119    1.110   1_556 S
C841   O877    1.292   .     A
C841   C845    1.423   .     S
C841   O879    1.284   .     A
C842   O878    1.292   .     A
C842   C846    1.423   .     S
C842   O880    1.284   .     A
C843   C860    1.399   .     A
C843   H869    1.083   .     S
C843   C921    1.403   1_455 S
C844   C859    1.399   .     A
C844   H870    1.083   .     S
C844   C922    1.403   .     S
C846   C965    1.326   .     S
C846   H992    1.088   .     S
C847   O883    1.290   .     A
C847   O881    1.293   .     A
C847   C852    1.439   .     S
C848   C851    1.439   .     S
C848   O882    1.293   .     A
C848   O884    1.290   .     A
C849   C851    1.393   .     A
C849   H865    1.085   .     S
C849   C859    1.392   .     A
C850   H866    1.085   .     S
C850   C852    1.393   .     A
C850   C860    1.392   .     A
C851   C853    1.395   .     A
C852   C854    1.395   .     A
C853   C855    1.398   .     A
C853   H867    1.085   .     S
C854   H868    1.085   .     S
C854   C856    1.398   .     A
C855   C857    1.418   .     A
C855   C861    1.410   .     A
C856   C858    1.418   .     A
C856   C862    1.410   .     A
C857   C859    1.412   .     A
C857   C918    1.400   .     S
C858   C860    1.412   .     A
C858   C917    1.400   1_455 S
C861   O885    1.387   .     S
C861   C903    1.403   .     S
C862   O893    1.387   .     S
C862   C904    1.403   1_455 S
Cu863  Cu864   2.689   .     S
Cu863  O881    1.958   .     S
Cu863  O877    1.950   .     S
Cu863  O880    1.945   .     S
Cu863  N876    2.020   .     S
Cu863  O884    1.942   .     S
Cu864  O878    1.950   .     S
Cu864  N875    2.020   .     S
Cu864  O879    1.945   .     S
Cu864  O882    1.958   .     S
Cu864  O883    1.942   .     S
H871   C965    1.088   .     S
H873   N155    1.029   1_556 S
N876   N155    1.293   1_556 S
N876   H154    1.029   1_556 S
C886   C889    1.521   .     S
C886   H887    1.112   .     S
C886   O1005   1.413   .     S
C886   H1008   1.115   .     S
C889   H892    1.111   .     S
C889   H890    1.111   .     S
H891   C169    1.110   1_556 S
O893   C1014   1.413   .     S
C894   H896    1.112   .     S
C894   C897    1.521   .     S
H895   C1014   1.115   .     S
C897   H898    1.111   .     S
C897   H900    1.111   .     S
C897   H179    1.110   1_556 S
C901   O937    1.292   .     A
C901   C905    1.423   .     S
C901   O939    1.284   .     A
C902   O938    1.292   .     A
C902   C906    1.423   .     S
C902   O940    1.284   .     A
C903   C920    1.399   .     A
C903   H929    1.083   .     S
C904   C919    1.399   .     A
C904   H930    1.083   .     S
C904   C862    1.403   1_655 S
C906   C1025   1.326   .     S
C906   H1052   1.088   .     S
C907   O943    1.290   .     A
C907   O941    1.293   .     A
C907   C912    1.439   .     S
C908   C911    1.439   .     S
C908   O942    1.293   .     A
C908   O944    1.290   .     A
C909   C911    1.393   .     A
C909   H925    1.085   .     S
C909   C919    1.392   .     A
C910   H926    1.085   .     S
C910   C912    1.393   .     A
C910   C920    1.392   .     A
C911   C913    1.395   .     A
C912   C914    1.395   .     A
C913   C915    1.398   .     A
C913   H927    1.085   .     S
C914   H928    1.085   .     S
C914   C916    1.398   .     A
C915   C917    1.418   .     A
C915   C921    1.410   .     A
C916   C918    1.418   .     A
C916   C922    1.410   .     A
C917   C919    1.412   .     A
C917   C858    1.400   1_655 S
C918   C920    1.412   .     A
C921   O945    1.387   .     S
C921   C843    1.403   1_655 S
C922   O953    1.387   .     S
Cu923  Cu924   2.689   .     S
Cu923  O941    1.958   .     S
Cu923  O937    1.950   .     S
Cu923  O940    1.945   .     S
Cu923  N936    2.020   .     S
Cu923  O944    1.942   .     S
Cu924  O938    1.950   .     S
Cu924  N935    2.020   .     S
Cu924  O939    1.945   .     S
Cu924  O942    1.958   .     S
Cu924  O943    1.942   .     S
H931   C1025   1.088   .     S
H933   N215    1.029   1_556 S
N936   N215    1.293   1_556 S
N936   H214    1.029   1_556 S
C946   C949    1.521   .     S
C946   H947    1.112   .     S
C946   O1065   1.413   .     S
C946   H1068   1.115   .     S
C949   H952    1.111   .     S
C949   H950    1.111   .     S
H951   C229    1.110   1_556 S
O953   C1074   1.413   .     S
C954   H956    1.112   .     S
C954   C957    1.521   .     S
H955   C1074   1.115   .     S
C957   H958    1.111   .     S
C957   H960    1.111   .     S
C957   H239    1.110   1_556 S
C961   O997    1.292   .     A
C961   C965    1.423   .     S
C961   O999    1.284   .     A
C962   O998    1.292   .     A
C962   C966    1.423   .     S
C962   O1000   1.284   .     A
C963   C980    1.399   .     A
C963   H989    1.083   .     S
C963   C1041   1.403   1_455 S
C964   C979    1.399   .     A
C964   H990    1.083   .     S
C964   C1042   1.403   .     S
C966   C725    1.326   1_565 S
C966   H752    1.088   1_565 S
C967   O1003   1.290   .     A
C967   O1001   1.293   .     A
C967   C972    1.439   .     S
C968   C971    1.439   .     S
C968   O1002   1.293   .     A
C968   O1004   1.290   .     A
C969   C971    1.393   .     A
C969   H985    1.085   .     S
C969   C979    1.392   .     A
C970   H986    1.085   .     S
C970   C972    1.393   .     A
C970   C980    1.392   .     A
C971   C973    1.395   .     A
C972   C974    1.395   .     A
C973   C975    1.398   .     A
C973   H987    1.085   .     S
C974   H988    1.085   .     S
C974   C976    1.398   .     A
C975   C977    1.418   .     A
C975   C981    1.410   .     A
C976   C978    1.418   .     A
C976   C982    1.410   .     A
C977   C979    1.412   .     A
C977   C1038   1.400   .     S
C978   C980    1.412   .     A
C978   C1037   1.400   1_455 S
C981   O1005   1.387   .     S
C981   C1023   1.403   .     S
C982   O1013   1.387   .     S
C982   C1024   1.403   1_455 S
Cu983  Cu984   2.689   .     S
Cu983  O1001   1.958   .     S
Cu983  O997    1.950   .     S
Cu983  O1000   1.945   .     S
Cu983  N996    2.020   .     S
Cu983  O1004   1.942   .     S
Cu984  O998    1.950   .     S
Cu984  N995    2.020   .     S
Cu984  O999    1.945   .     S
Cu984  O1002   1.958   .     S
Cu984  O1003   1.942   .     S
H991   C725    1.088   1_565 S
H993   N275    1.029   1_556 S
N996   N275    1.293   1_556 S
N996   H274    1.029   1_556 S
C1006  C1009   1.521   .     S
C1006  H1007   1.112   .     S
C1006  O765    1.413   1_565 S
C1006  H768    1.115   1_565 S
C1009  H1012   1.111   .     S
C1009  H1010   1.111   .     S
H1011  C289    1.110   1_556 S
O1013  C774    1.413   1_565 S
C1014  H1016   1.112   .     S
C1014  C1017   1.521   .     S
H1015  C774    1.115   1_565 S
C1017  H1018   1.111   .     S
C1017  H1020   1.111   .     S
C1017  H299    1.110   1_556 S
C1021  O1057   1.292   .     A
C1021  C1025   1.423   .     S
C1021  O1059   1.284   .     A
C1022  O1058   1.292   .     A
C1022  C1026   1.423   .     S
C1022  O1060   1.284   .     A
C1023  C1040   1.399   .     A
C1023  H1049   1.083   .     S
C1024  C1039   1.399   .     A
C1024  H1050   1.083   .     S
C1024  C982    1.403   1_655 S
C1026  C785    1.326   1_565 S
C1026  H812    1.088   1_565 S
C1027  O1063   1.290   .     A
C1027  O1061   1.293   .     A
C1027  C1032   1.439   .     S
C1028  C1031   1.439   .     S
C1028  O1062   1.293   .     A
C1028  O1064   1.290   .     A
C1029  C1031   1.393   .     A
C1029  H1045   1.085   .     S
C1029  C1039   1.392   .     A
C1030  H1046   1.085   .     S
C1030  C1032   1.393   .     A
C1030  C1040   1.392   .     A
C1031  C1033   1.395   .     A
C1032  C1034   1.395   .     A
C1033  C1035   1.398   .     A
C1033  H1047   1.085   .     S
C1034  H1048   1.085   .     S
C1034  C1036   1.398   .     A
C1035  C1037   1.418   .     A
C1035  C1041   1.410   .     A
C1036  C1038   1.418   .     A
C1036  C1042   1.410   .     A
C1037  C1039   1.412   .     A
C1037  C978    1.400   1_655 S
C1038  C1040   1.412   .     A
C1041  O1065   1.387   .     S
C1041  C963    1.403   1_655 S
C1042  O1073   1.387   .     S
Cu1043 Cu1044  2.689   .     S
Cu1043 O1061   1.958   .     S
Cu1043 O1057   1.950   .     S
Cu1043 O1060   1.945   .     S
Cu1043 N1056   2.020   .     S
Cu1043 O1064   1.942   .     S
Cu1044 O1058   1.950   .     S
Cu1044 N1055   2.020   .     S
Cu1044 O1059   1.945   .     S
Cu1044 O1062   1.958   .     S
Cu1044 O1063   1.942   .     S
H1051  C785    1.088   1_565 S
H1053  N335    1.029   1_556 S
N1056  N335    1.293   1_556 S
N1056  H334    1.029   1_556 S
C1066  C1069   1.521   .     S
C1066  H1067   1.112   .     S
C1066  O825    1.413   1_565 S
C1066  H828    1.115   1_565 S
C1069  H1072   1.111   .     S
C1069  H1070   1.111   .     S
H1071  C349    1.110   1_556 S
O1073  C834    1.413   1_565 S
C1074  H1076   1.112   .     S
C1074  C1077   1.521   .     S
H1075  C834    1.115   1_565 S
C1077  H1078   1.111   .     S
C1077  H1080   1.111   .     S
C1077  H359    1.110   1_556 S
