data_str_m3_o1_o10_pcu_sym.189
_audit_creation_date              2020-01-03
_audit_creation_method            'Materials Studio'
_symmetry_space_group_name_H-M    'P1'
_symmetry_Int_Tables_number       1
_symmetry_cell_setting            triclinic
loop_
_symmetry_equiv_pos_as_xyz
  x,y,z
_cell_length_a                    25.7756
_cell_length_b                    32.0249
_cell_length_c                    29.5665
_cell_angle_alpha                 90.1841
_cell_angle_beta                  98.6820
_cell_angle_gamma                 90.1182
loop_
_atom_site_label
_atom_site_type_symbol
_atom_site_fract_x
_atom_site_fract_y
_atom_site_fract_z
_atom_site_U_iso_or_equiv
_atom_site_adp_type
_atom_site_occupancy
C1     C     0.16744   0.08673   0.16666   0.00000  Uiso   1.00
C2     C     0.16589   0.24661   0.16668   0.00000  Uiso   1.00
C3     C     0.06704   0.16665   0.15469   0.00000  Uiso   1.00
C4     C     0.26630   0.16668   0.17865   0.00000  Uiso   1.00
C5     C     0.01198   0.16668   0.14825   0.00000  Uiso   1.00
C6     C     0.32135   0.16666   0.18508   0.00000  Uiso   1.00
C7     C     0.19797   0.02082   0.13865   0.00000  Uiso   1.00
C8     C     0.13536   0.31251   0.19468   0.00000  Uiso   1.00
C9     C     0.19645   0.31118   0.13885   0.00000  Uiso   1.00
C10    C     0.13688   0.02216   0.19448   0.00000  Uiso   1.00
C11    C     0.16556   0.29073   0.16680   0.00000  Uiso   1.00
C12    C     0.16777   0.04260   0.16653   0.00000  Uiso   1.00
C13    C     0.19842   0.19333   0.02823   0.00000  Uiso   1.00
C14    C     0.13491   0.14001   0.30511   0.00000  Uiso   1.00
C15    C     0.19840   0.19332   0.31362   0.00000  Uiso   1.00
C16    C     0.13493   0.14001   0.01971   0.00000  Uiso   1.00
H17    H     0.32466   0.16672   0.11333   0.00000  Uiso   1.00
H18    H     0.00867   0.16662   0.22001   0.00000  Uiso   1.00
H19    H     0.22007   0.29379   0.11790   0.00000  Uiso   1.00
H20    H     0.11326   0.03954   0.21542   0.00000  Uiso   1.00
H21    H     0.22384   0.21465   0.04977   0.00000  Uiso   1.00
H22    H     0.10950   0.11868   0.28357   0.00000  Uiso   1.00
H23    H     0.22378   0.21465   0.29890   0.00000  Uiso   1.00
H24    H     0.10955   0.11869   0.03444   0.00000  Uiso   1.00
N25    N     0.16665   0.16666   0.28573   0.00000  Uiso   1.00
N26    N     0.16668   0.16668   0.04760   0.00000  Uiso   1.00
O27    O     0.16666   0.10558   0.20487   0.00000  Uiso   1.00
O28    O     0.16667   0.22775   0.12846   0.00000  Uiso   1.00
O29    O     0.16666   0.10559   0.12843   0.00000  Uiso   1.00
O30    O     0.16667   0.22774   0.20490   0.00000  Uiso   1.00
O31    O     0.09058   0.16666   0.19595   0.00000  Uiso   1.00
O32    O     0.24275   0.16667   0.13739   0.00000  Uiso   1.00
O33    O     0.09058   0.16667   0.11950   0.00000  Uiso   1.00
O34    O     0.24275   0.16666   0.21383   0.00000  Uiso   1.00
Zn35   Zn    0.16667   0.16666   0.21771   0.00000  Uiso   1.00
Zn36   Zn    0.16667   0.16667   0.11563   0.00000  Uiso   1.00
N37    N     0.23109   0.04221   0.11137   0.00000  Uiso   1.00
H38    H     0.21971   0.03338   0.07723   0.00000  Uiso   1.00
H39    H     0.26966   0.03214   0.12141   0.00000  Uiso   1.00
N40    N     0.10225   0.29113   0.22196   0.00000  Uiso   1.00
H41    H     0.06367   0.30114   0.21185   0.00000  Uiso   1.00
H42    H     0.11356   0.30002   0.25609   0.00000  Uiso   1.00
C43    C     0.50078   0.08673   0.16666   0.00000  Uiso   1.00
C44    C     0.49922   0.24661   0.16668   0.00000  Uiso   1.00
C45    C     0.40037   0.16665   0.15469   0.00000  Uiso   1.00
C46    C     0.59963   0.16668   0.17865   0.00000  Uiso   1.00
C47    C     0.34532   0.16668   0.14825   0.00000  Uiso   1.00
C48    C     0.65468   0.16666   0.18508   0.00000  Uiso   1.00
C49    C     0.53131   0.02082   0.13865   0.00000  Uiso   1.00
C50    C     0.46870   0.31251   0.19468   0.00000  Uiso   1.00
C51    C     0.52978   0.31118   0.13885   0.00000  Uiso   1.00
C52    C     0.47022   0.02216   0.19448   0.00000  Uiso   1.00
C53    C     0.49890   0.29073   0.16680   0.00000  Uiso   1.00
C54    C     0.50111   0.04260   0.16653   0.00000  Uiso   1.00
C55    C     0.53176   0.19333   0.02823   0.00000  Uiso   1.00
C56    C     0.46824   0.14001   0.30511   0.00000  Uiso   1.00
C57    C     0.53173   0.19332   0.31362   0.00000  Uiso   1.00
C58    C     0.46827   0.14001   0.01971   0.00000  Uiso   1.00
H59    H     0.65799   0.16672   0.11333   0.00000  Uiso   1.00
H60    H     0.34201   0.16662   0.22001   0.00000  Uiso   1.00
H61    H     0.55340   0.29379   0.11790   0.00000  Uiso   1.00
H62    H     0.44660   0.03954   0.21542   0.00000  Uiso   1.00
H63    H     0.55717   0.21465   0.04977   0.00000  Uiso   1.00
H64    H     0.44283   0.11868   0.28357   0.00000  Uiso   1.00
H65    H     0.55712   0.21465   0.29890   0.00000  Uiso   1.00
H66    H     0.44288   0.11869   0.03444   0.00000  Uiso   1.00
N67    N     0.49999   0.16666   0.28573   0.00000  Uiso   1.00
N68    N     0.50001   0.16668   0.04760   0.00000  Uiso   1.00
O69    O     0.50000   0.10558   0.20487   0.00000  Uiso   1.00
O70    O     0.50000   0.22775   0.12846   0.00000  Uiso   1.00
O71    O     0.50000   0.10559   0.12843   0.00000  Uiso   1.00
O72    O     0.50000   0.22774   0.20490   0.00000  Uiso   1.00
O73    O     0.42392   0.16666   0.19595   0.00000  Uiso   1.00
O74    O     0.57608   0.16667   0.13739   0.00000  Uiso   1.00
O75    O     0.42392   0.16667   0.11950   0.00000  Uiso   1.00
O76    O     0.57608   0.16666   0.21383   0.00000  Uiso   1.00
Zn77   Zn    0.50000   0.16666   0.21771   0.00000  Uiso   1.00
Zn78   Zn    0.50000   0.16667   0.11563   0.00000  Uiso   1.00
N79    N     0.56442   0.04221   0.11137   0.00000  Uiso   1.00
H80    H     0.55304   0.03338   0.07723   0.00000  Uiso   1.00
H81    H     0.60299   0.03214   0.12141   0.00000  Uiso   1.00
N82    N     0.43558   0.29113   0.22196   0.00000  Uiso   1.00
H83    H     0.39700   0.30114   0.21185   0.00000  Uiso   1.00
H84    H     0.44689   0.30002   0.25609   0.00000  Uiso   1.00
C85    C     0.83411   0.08673   0.16666   0.00000  Uiso   1.00
C86    C     0.83256   0.24661   0.16668   0.00000  Uiso   1.00
C87    C     0.73370   0.16665   0.15469   0.00000  Uiso   1.00
C88    C     0.93296   0.16668   0.17865   0.00000  Uiso   1.00
C89    C     0.67865   0.16668   0.14825   0.00000  Uiso   1.00
C90    C     0.98802   0.16666   0.18508   0.00000  Uiso   1.00
C91    C     0.86464   0.02082   0.13865   0.00000  Uiso   1.00
C92    C     0.80203   0.31251   0.19468   0.00000  Uiso   1.00
C93    C     0.86311   0.31118   0.13885   0.00000  Uiso   1.00
C94    C     0.80355   0.02216   0.19448   0.00000  Uiso   1.00
C95    C     0.83223   0.29073   0.16680   0.00000  Uiso   1.00
C96    C     0.83444   0.04260   0.16653   0.00000  Uiso   1.00
C97    C     0.86509   0.19333   0.02823   0.00000  Uiso   1.00
C98    C     0.80158   0.14001   0.30511   0.00000  Uiso   1.00
C99    C     0.86507   0.19332   0.31362   0.00000  Uiso   1.00
C100   C     0.80160   0.14001   0.01971   0.00000  Uiso   1.00
H101   H     0.99133   0.16672   0.11333   0.00000  Uiso   1.00
H102   H     0.67534   0.16662   0.22001   0.00000  Uiso   1.00
H103   H     0.88673   0.29379   0.11790   0.00000  Uiso   1.00
H104   H     0.77993   0.03954   0.21542   0.00000  Uiso   1.00
H105   H     0.89050   0.21465   0.04977   0.00000  Uiso   1.00
H106   H     0.77616   0.11868   0.28357   0.00000  Uiso   1.00
H107   H     0.89045   0.21465   0.29890   0.00000  Uiso   1.00
H108   H     0.77622   0.11869   0.03444   0.00000  Uiso   1.00
N109   N     0.83332   0.16666   0.28573   0.00000  Uiso   1.00
N110   N     0.83335   0.16668   0.04760   0.00000  Uiso   1.00
O111   O     0.83333   0.10558   0.20487   0.00000  Uiso   1.00
O112   O     0.83334   0.22775   0.12846   0.00000  Uiso   1.00
O113   O     0.83333   0.10559   0.12843   0.00000  Uiso   1.00
O114   O     0.83334   0.22774   0.20490   0.00000  Uiso   1.00
O115   O     0.75725   0.16666   0.19595   0.00000  Uiso   1.00
O116   O     0.90942   0.16667   0.13739   0.00000  Uiso   1.00
O117   O     0.75725   0.16667   0.11950   0.00000  Uiso   1.00
O118   O     0.90942   0.16666   0.21383   0.00000  Uiso   1.00
Zn119  Zn    0.83333   0.16666   0.21771   0.00000  Uiso   1.00
Zn120  Zn    0.83333   0.16667   0.11563   0.00000  Uiso   1.00
N121   N     0.89776   0.04221   0.11137   0.00000  Uiso   1.00
H122   H     0.88638   0.03338   0.07723   0.00000  Uiso   1.00
H123   H     0.93633   0.03214   0.12141   0.00000  Uiso   1.00
N124   N     0.76892   0.29113   0.22196   0.00000  Uiso   1.00
H125   H     0.73033   0.30114   0.21185   0.00000  Uiso   1.00
H126   H     0.78022   0.30002   0.25609   0.00000  Uiso   1.00
C127   C     0.16744   0.42006   0.16666   0.00000  Uiso   1.00
C128   C     0.16589   0.57994   0.16668   0.00000  Uiso   1.00
C129   C     0.06704   0.49999   0.15469   0.00000  Uiso   1.00
C130   C     0.26630   0.50001   0.17865   0.00000  Uiso   1.00
C131   C     0.01198   0.50001   0.14825   0.00000  Uiso   1.00
C132   C     0.32135   0.49999   0.18508   0.00000  Uiso   1.00
C133   C     0.19797   0.35415   0.13865   0.00000  Uiso   1.00
C134   C     0.13536   0.64585   0.19468   0.00000  Uiso   1.00
C135   C     0.19645   0.64451   0.13885   0.00000  Uiso   1.00
C136   C     0.13688   0.35549   0.19448   0.00000  Uiso   1.00
C137   C     0.16556   0.62406   0.16680   0.00000  Uiso   1.00
C138   C     0.16777   0.37594   0.16653   0.00000  Uiso   1.00
C139   C     0.19842   0.52666   0.02823   0.00000  Uiso   1.00
C140   C     0.13491   0.47334   0.30511   0.00000  Uiso   1.00
C141   C     0.19840   0.52666   0.31362   0.00000  Uiso   1.00
C142   C     0.13493   0.47334   0.01971   0.00000  Uiso   1.00
H143   H     0.32466   0.50005   0.11333   0.00000  Uiso   1.00
H144   H     0.00867   0.49995   0.22001   0.00000  Uiso   1.00
H145   H     0.22007   0.62713   0.11790   0.00000  Uiso   1.00
H146   H     0.11326   0.37287   0.21542   0.00000  Uiso   1.00
H147   H     0.22384   0.54799   0.04977   0.00000  Uiso   1.00
H148   H     0.10950   0.45201   0.28357   0.00000  Uiso   1.00
H149   H     0.22378   0.54798   0.29890   0.00000  Uiso   1.00
H150   H     0.10955   0.45202   0.03444   0.00000  Uiso   1.00
N151   N     0.16665   0.49999   0.28573   0.00000  Uiso   1.00
N152   N     0.16668   0.50001   0.04760   0.00000  Uiso   1.00
O153   O     0.16666   0.43892   0.20487   0.00000  Uiso   1.00
O154   O     0.16667   0.56108   0.12846   0.00000  Uiso   1.00
O155   O     0.16666   0.43893   0.12843   0.00000  Uiso   1.00
O156   O     0.16667   0.56107   0.20490   0.00000  Uiso   1.00
O157   O     0.09058   0.50000   0.19595   0.00000  Uiso   1.00
O158   O     0.24275   0.50000   0.13739   0.00000  Uiso   1.00
O159   O     0.09058   0.50000   0.11950   0.00000  Uiso   1.00
O160   O     0.24275   0.50000   0.21383   0.00000  Uiso   1.00
Zn161  Zn    0.16667   0.49999   0.21771   0.00000  Uiso   1.00
Zn162  Zn    0.16667   0.50001   0.11563   0.00000  Uiso   1.00
N163   N     0.23109   0.37554   0.11137   0.00000  Uiso   1.00
H164   H     0.21971   0.36671   0.07723   0.00000  Uiso   1.00
H165   H     0.26966   0.36547   0.12141   0.00000  Uiso   1.00
N166   N     0.10225   0.62446   0.22196   0.00000  Uiso   1.00
H167   H     0.06367   0.63447   0.21185   0.00000  Uiso   1.00
H168   H     0.11356   0.63335   0.25609   0.00000  Uiso   1.00
C169   C     0.50078   0.42006   0.16666   0.00000  Uiso   1.00
C170   C     0.49922   0.57994   0.16668   0.00000  Uiso   1.00
C171   C     0.40037   0.49999   0.15469   0.00000  Uiso   1.00
C172   C     0.59963   0.50001   0.17865   0.00000  Uiso   1.00
C173   C     0.34532   0.50001   0.14825   0.00000  Uiso   1.00
C174   C     0.65468   0.49999   0.18508   0.00000  Uiso   1.00
C175   C     0.53131   0.35415   0.13865   0.00000  Uiso   1.00
C176   C     0.46870   0.64585   0.19468   0.00000  Uiso   1.00
C177   C     0.52978   0.64451   0.13885   0.00000  Uiso   1.00
C178   C     0.47022   0.35549   0.19448   0.00000  Uiso   1.00
C179   C     0.49890   0.62406   0.16680   0.00000  Uiso   1.00
C180   C     0.50111   0.37594   0.16653   0.00000  Uiso   1.00
C181   C     0.53176   0.52666   0.02823   0.00000  Uiso   1.00
C182   C     0.46824   0.47334   0.30511   0.00000  Uiso   1.00
C183   C     0.53173   0.52666   0.31362   0.00000  Uiso   1.00
C184   C     0.46827   0.47334   0.01971   0.00000  Uiso   1.00
H185   H     0.65799   0.50005   0.11333   0.00000  Uiso   1.00
H186   H     0.34201   0.49995   0.22001   0.00000  Uiso   1.00
H187   H     0.55340   0.62713   0.11790   0.00000  Uiso   1.00
H188   H     0.44660   0.37287   0.21542   0.00000  Uiso   1.00
H189   H     0.55717   0.54799   0.04977   0.00000  Uiso   1.00
H190   H     0.44283   0.45201   0.28357   0.00000  Uiso   1.00
H191   H     0.55712   0.54798   0.29890   0.00000  Uiso   1.00
H192   H     0.44288   0.45202   0.03444   0.00000  Uiso   1.00
N193   N     0.49999   0.49999   0.28573   0.00000  Uiso   1.00
N194   N     0.50001   0.50001   0.04760   0.00000  Uiso   1.00
O195   O     0.50000   0.43892   0.20487   0.00000  Uiso   1.00
O196   O     0.50000   0.56108   0.12846   0.00000  Uiso   1.00
O197   O     0.50000   0.43893   0.12843   0.00000  Uiso   1.00
O198   O     0.50000   0.56107   0.20490   0.00000  Uiso   1.00
O199   O     0.42392   0.50000   0.19595   0.00000  Uiso   1.00
O200   O     0.57608   0.50000   0.13739   0.00000  Uiso   1.00
O201   O     0.42392   0.50000   0.11950   0.00000  Uiso   1.00
O202   O     0.57608   0.50000   0.21383   0.00000  Uiso   1.00
Zn203  Zn    0.50000   0.49999   0.21771   0.00000  Uiso   1.00
Zn204  Zn    0.50000   0.50001   0.11563   0.00000  Uiso   1.00
N205   N     0.56442   0.37554   0.11137   0.00000  Uiso   1.00
H206   H     0.55304   0.36671   0.07723   0.00000  Uiso   1.00
H207   H     0.60299   0.36547   0.12141   0.00000  Uiso   1.00
N208   N     0.43558   0.62446   0.22196   0.00000  Uiso   1.00
H209   H     0.39700   0.63447   0.21185   0.00000  Uiso   1.00
H210   H     0.44689   0.63335   0.25609   0.00000  Uiso   1.00
C211   C     0.83411   0.42006   0.16666   0.00000  Uiso   1.00
C212   C     0.83256   0.57994   0.16668   0.00000  Uiso   1.00
C213   C     0.73370   0.49999   0.15469   0.00000  Uiso   1.00
C214   C     0.93296   0.50001   0.17865   0.00000  Uiso   1.00
C215   C     0.67865   0.50001   0.14825   0.00000  Uiso   1.00
C216   C     0.98802   0.49999   0.18508   0.00000  Uiso   1.00
C217   C     0.86464   0.35415   0.13865   0.00000  Uiso   1.00
C218   C     0.80203   0.64585   0.19468   0.00000  Uiso   1.00
C219   C     0.86311   0.64451   0.13885   0.00000  Uiso   1.00
C220   C     0.80355   0.35549   0.19448   0.00000  Uiso   1.00
C221   C     0.83223   0.62406   0.16680   0.00000  Uiso   1.00
C222   C     0.83444   0.37594   0.16653   0.00000  Uiso   1.00
C223   C     0.86509   0.52666   0.02823   0.00000  Uiso   1.00
C224   C     0.80158   0.47334   0.30511   0.00000  Uiso   1.00
C225   C     0.86507   0.52666   0.31362   0.00000  Uiso   1.00
C226   C     0.80160   0.47334   0.01971   0.00000  Uiso   1.00
H227   H     0.99133   0.50005   0.11333   0.00000  Uiso   1.00
H228   H     0.67534   0.49995   0.22001   0.00000  Uiso   1.00
H229   H     0.88673   0.62713   0.11790   0.00000  Uiso   1.00
H230   H     0.77993   0.37287   0.21542   0.00000  Uiso   1.00
H231   H     0.89050   0.54799   0.04977   0.00000  Uiso   1.00
H232   H     0.77616   0.45201   0.28357   0.00000  Uiso   1.00
H233   H     0.89045   0.54798   0.29890   0.00000  Uiso   1.00
H234   H     0.77622   0.45202   0.03444   0.00000  Uiso   1.00
N235   N     0.83332   0.49999   0.28573   0.00000  Uiso   1.00
N236   N     0.83335   0.50001   0.04760   0.00000  Uiso   1.00
O237   O     0.83333   0.43892   0.20487   0.00000  Uiso   1.00
O238   O     0.83334   0.56108   0.12846   0.00000  Uiso   1.00
O239   O     0.83333   0.43893   0.12843   0.00000  Uiso   1.00
O240   O     0.83334   0.56107   0.20490   0.00000  Uiso   1.00
O241   O     0.75725   0.50000   0.19595   0.00000  Uiso   1.00
O242   O     0.90942   0.50000   0.13739   0.00000  Uiso   1.00
O243   O     0.75725   0.50000   0.11950   0.00000  Uiso   1.00
O244   O     0.90942   0.50000   0.21383   0.00000  Uiso   1.00
Zn245  Zn    0.83333   0.49999   0.21771   0.00000  Uiso   1.00
Zn246  Zn    0.83333   0.50001   0.11563   0.00000  Uiso   1.00
N247   N     0.89776   0.37554   0.11137   0.00000  Uiso   1.00
H248   H     0.88638   0.36671   0.07723   0.00000  Uiso   1.00
H249   H     0.93633   0.36547   0.12141   0.00000  Uiso   1.00
N250   N     0.76892   0.62446   0.22196   0.00000  Uiso   1.00
H251   H     0.73033   0.63447   0.21185   0.00000  Uiso   1.00
H252   H     0.78022   0.63335   0.25609   0.00000  Uiso   1.00
C253   C     0.16744   0.75339   0.16666   0.00000  Uiso   1.00
C254   C     0.16589   0.91327   0.16668   0.00000  Uiso   1.00
C255   C     0.06704   0.83332   0.15469   0.00000  Uiso   1.00
C256   C     0.26630   0.83334   0.17865   0.00000  Uiso   1.00
C257   C     0.01198   0.83334   0.14825   0.00000  Uiso   1.00
C258   C     0.32135   0.83332   0.18508   0.00000  Uiso   1.00
C259   C     0.19797   0.68749   0.13865   0.00000  Uiso   1.00
C260   C     0.13536   0.97918   0.19468   0.00000  Uiso   1.00
C261   C     0.19645   0.97784   0.13885   0.00000  Uiso   1.00
C262   C     0.13688   0.68882   0.19448   0.00000  Uiso   1.00
C263   C     0.16556   0.95740   0.16680   0.00000  Uiso   1.00
C264   C     0.16777   0.70927   0.16653   0.00000  Uiso   1.00
C265   C     0.19842   0.85999   0.02823   0.00000  Uiso   1.00
C266   C     0.13491   0.80667   0.30511   0.00000  Uiso   1.00
C267   C     0.19840   0.85999   0.31362   0.00000  Uiso   1.00
C268   C     0.13493   0.80668   0.01971   0.00000  Uiso   1.00
H269   H     0.32466   0.83338   0.11333   0.00000  Uiso   1.00
H270   H     0.00867   0.83328   0.22001   0.00000  Uiso   1.00
H271   H     0.22007   0.96046   0.11790   0.00000  Uiso   1.00
H272   H     0.11326   0.70621   0.21542   0.00000  Uiso   1.00
H273   H     0.22384   0.88132   0.04977   0.00000  Uiso   1.00
H274   H     0.10950   0.78535   0.28357   0.00000  Uiso   1.00
H275   H     0.22378   0.88131   0.29890   0.00000  Uiso   1.00
H276   H     0.10955   0.78535   0.03444   0.00000  Uiso   1.00
N277   N     0.16665   0.83332   0.28573   0.00000  Uiso   1.00
N278   N     0.16668   0.83334   0.04760   0.00000  Uiso   1.00
O279   O     0.16666   0.77225   0.20487   0.00000  Uiso   1.00
O280   O     0.16667   0.89442   0.12846   0.00000  Uiso   1.00
O281   O     0.16666   0.77226   0.12843   0.00000  Uiso   1.00
O282   O     0.16667   0.89441   0.20490   0.00000  Uiso   1.00
O283   O     0.09058   0.83333   0.19595   0.00000  Uiso   1.00
O284   O     0.24275   0.83334   0.13739   0.00000  Uiso   1.00
O285   O     0.09058   0.83334   0.11950   0.00000  Uiso   1.00
O286   O     0.24275   0.83333   0.21383   0.00000  Uiso   1.00
Zn287  Zn    0.16667   0.83333   0.21771   0.00000  Uiso   1.00
Zn288  Zn    0.16667   0.83334   0.11563   0.00000  Uiso   1.00
N289   N     0.23109   0.70888   0.11137   0.00000  Uiso   1.00
H290   H     0.21971   0.70005   0.07723   0.00000  Uiso   1.00
H291   H     0.26966   0.69880   0.12141   0.00000  Uiso   1.00
N292   N     0.10225   0.95779   0.22196   0.00000  Uiso   1.00
H293   H     0.06367   0.96780   0.21185   0.00000  Uiso   1.00
H294   H     0.11356   0.96668   0.25609   0.00000  Uiso   1.00
C295   C     0.50078   0.75339   0.16666   0.00000  Uiso   1.00
C296   C     0.49922   0.91327   0.16668   0.00000  Uiso   1.00
C297   C     0.40037   0.83332   0.15469   0.00000  Uiso   1.00
C298   C     0.59963   0.83334   0.17865   0.00000  Uiso   1.00
C299   C     0.34532   0.83334   0.14825   0.00000  Uiso   1.00
C300   C     0.65468   0.83332   0.18508   0.00000  Uiso   1.00
C301   C     0.53131   0.68749   0.13865   0.00000  Uiso   1.00
C302   C     0.46870   0.97918   0.19468   0.00000  Uiso   1.00
C303   C     0.52978   0.97784   0.13885   0.00000  Uiso   1.00
C304   C     0.47022   0.68882   0.19448   0.00000  Uiso   1.00
C305   C     0.49890   0.95740   0.16680   0.00000  Uiso   1.00
C306   C     0.50111   0.70927   0.16653   0.00000  Uiso   1.00
C307   C     0.53176   0.85999   0.02823   0.00000  Uiso   1.00
C308   C     0.46824   0.80667   0.30511   0.00000  Uiso   1.00
C309   C     0.53173   0.85999   0.31362   0.00000  Uiso   1.00
C310   C     0.46827   0.80668   0.01971   0.00000  Uiso   1.00
H311   H     0.65799   0.83338   0.11333   0.00000  Uiso   1.00
H312   H     0.34201   0.83328   0.22001   0.00000  Uiso   1.00
H313   H     0.55340   0.96046   0.11790   0.00000  Uiso   1.00
H314   H     0.44660   0.70621   0.21542   0.00000  Uiso   1.00
H315   H     0.55717   0.88132   0.04977   0.00000  Uiso   1.00
H316   H     0.44283   0.78535   0.28357   0.00000  Uiso   1.00
H317   H     0.55712   0.88131   0.29890   0.00000  Uiso   1.00
H318   H     0.44288   0.78535   0.03444   0.00000  Uiso   1.00
N319   N     0.49999   0.83332   0.28573   0.00000  Uiso   1.00
N320   N     0.50001   0.83334   0.04760   0.00000  Uiso   1.00
O321   O     0.50000   0.77225   0.20487   0.00000  Uiso   1.00
O322   O     0.50000   0.89442   0.12846   0.00000  Uiso   1.00
O323   O     0.50000   0.77226   0.12843   0.00000  Uiso   1.00
O324   O     0.50000   0.89441   0.20490   0.00000  Uiso   1.00
O325   O     0.42392   0.83333   0.19595   0.00000  Uiso   1.00
O326   O     0.57608   0.83334   0.13739   0.00000  Uiso   1.00
O327   O     0.42392   0.83334   0.11950   0.00000  Uiso   1.00
O328   O     0.57608   0.83333   0.21383   0.00000  Uiso   1.00
Zn329  Zn    0.50000   0.83333   0.21771   0.00000  Uiso   1.00
Zn330  Zn    0.50000   0.83334   0.11563   0.00000  Uiso   1.00
N331   N     0.56442   0.70888   0.11137   0.00000  Uiso   1.00
H332   H     0.55304   0.70005   0.07723   0.00000  Uiso   1.00
H333   H     0.60299   0.69880   0.12141   0.00000  Uiso   1.00
N334   N     0.43558   0.95779   0.22196   0.00000  Uiso   1.00
H335   H     0.39700   0.96780   0.21185   0.00000  Uiso   1.00
H336   H     0.44689   0.96668   0.25609   0.00000  Uiso   1.00
C337   C     0.83411   0.75339   0.16666   0.00000  Uiso   1.00
C338   C     0.83256   0.91327   0.16668   0.00000  Uiso   1.00
C339   C     0.73370   0.83332   0.15469   0.00000  Uiso   1.00
C340   C     0.93296   0.83334   0.17865   0.00000  Uiso   1.00
C341   C     0.67865   0.83334   0.14825   0.00000  Uiso   1.00
C342   C     0.98802   0.83332   0.18508   0.00000  Uiso   1.00
C343   C     0.86464   0.68749   0.13865   0.00000  Uiso   1.00
C344   C     0.80203   0.97918   0.19468   0.00000  Uiso   1.00
C345   C     0.86311   0.97784   0.13885   0.00000  Uiso   1.00
C346   C     0.80355   0.68882   0.19448   0.00000  Uiso   1.00
C347   C     0.83223   0.95740   0.16680   0.00000  Uiso   1.00
C348   C     0.83444   0.70927   0.16653   0.00000  Uiso   1.00
C349   C     0.86509   0.85999   0.02823   0.00000  Uiso   1.00
C350   C     0.80158   0.80667   0.30511   0.00000  Uiso   1.00
C351   C     0.86507   0.85999   0.31362   0.00000  Uiso   1.00
C352   C     0.80160   0.80668   0.01971   0.00000  Uiso   1.00
H353   H     0.99133   0.83338   0.11333   0.00000  Uiso   1.00
H354   H     0.67534   0.83328   0.22001   0.00000  Uiso   1.00
H355   H     0.88673   0.96046   0.11790   0.00000  Uiso   1.00
H356   H     0.77993   0.70621   0.21542   0.00000  Uiso   1.00
H357   H     0.89050   0.88132   0.04977   0.00000  Uiso   1.00
H358   H     0.77616   0.78535   0.28357   0.00000  Uiso   1.00
H359   H     0.89045   0.88131   0.29890   0.00000  Uiso   1.00
H360   H     0.77622   0.78535   0.03444   0.00000  Uiso   1.00
N361   N     0.83332   0.83332   0.28573   0.00000  Uiso   1.00
N362   N     0.83335   0.83334   0.04760   0.00000  Uiso   1.00
O363   O     0.83333   0.77225   0.20487   0.00000  Uiso   1.00
O364   O     0.83334   0.89442   0.12846   0.00000  Uiso   1.00
O365   O     0.83333   0.77226   0.12843   0.00000  Uiso   1.00
O366   O     0.83334   0.89441   0.20490   0.00000  Uiso   1.00
O367   O     0.75725   0.83333   0.19595   0.00000  Uiso   1.00
O368   O     0.90942   0.83334   0.13739   0.00000  Uiso   1.00
O369   O     0.75725   0.83334   0.11950   0.00000  Uiso   1.00
O370   O     0.90942   0.83333   0.21383   0.00000  Uiso   1.00
Zn371  Zn    0.83333   0.83333   0.21771   0.00000  Uiso   1.00
Zn372  Zn    0.83333   0.83334   0.11563   0.00000  Uiso   1.00
N373   N     0.89776   0.70888   0.11137   0.00000  Uiso   1.00
H374   H     0.88638   0.70005   0.07723   0.00000  Uiso   1.00
H375   H     0.93633   0.69880   0.12141   0.00000  Uiso   1.00
N376   N     0.76892   0.95779   0.22196   0.00000  Uiso   1.00
H377   H     0.73033   0.96780   0.21185   0.00000  Uiso   1.00
H378   H     0.78022   0.96668   0.25609   0.00000  Uiso   1.00
C379   C     0.16744   0.08673   0.49999   0.00000  Uiso   1.00
C380   C     0.16589   0.24661   0.50001   0.00000  Uiso   1.00
C381   C     0.06704   0.16665   0.48802   0.00000  Uiso   1.00
C382   C     0.26630   0.16668   0.51198   0.00000  Uiso   1.00
C383   C     0.01198   0.16668   0.48159   0.00000  Uiso   1.00
C384   C     0.32135   0.16666   0.51841   0.00000  Uiso   1.00
C385   C     0.19797   0.02082   0.47198   0.00000  Uiso   1.00
C386   C     0.13536   0.31251   0.52802   0.00000  Uiso   1.00
C387   C     0.19645   0.31118   0.47218   0.00000  Uiso   1.00
C388   C     0.13688   0.02216   0.52781   0.00000  Uiso   1.00
C389   C     0.16556   0.29073   0.50013   0.00000  Uiso   1.00
C390   C     0.16777   0.04260   0.49987   0.00000  Uiso   1.00
C391   C     0.19842   0.19333   0.36156   0.00000  Uiso   1.00
C392   C     0.13491   0.14001   0.63844   0.00000  Uiso   1.00
C393   C     0.19840   0.19332   0.64696   0.00000  Uiso   1.00
C394   C     0.13493   0.14001   0.35304   0.00000  Uiso   1.00
H395   H     0.32466   0.16672   0.44666   0.00000  Uiso   1.00
H396   H     0.00867   0.16662   0.55334   0.00000  Uiso   1.00
H397   H     0.22007   0.29379   0.45124   0.00000  Uiso   1.00
H398   H     0.11326   0.03954   0.54875   0.00000  Uiso   1.00
H399   H     0.22384   0.21465   0.38310   0.00000  Uiso   1.00
H400   H     0.10950   0.11868   0.61690   0.00000  Uiso   1.00
H401   H     0.22378   0.21465   0.63223   0.00000  Uiso   1.00
H402   H     0.10955   0.11869   0.36777   0.00000  Uiso   1.00
N403   N     0.16665   0.16666   0.61907   0.00000  Uiso   1.00
N404   N     0.16668   0.16668   0.38093   0.00000  Uiso   1.00
O405   O     0.16666   0.10558   0.53821   0.00000  Uiso   1.00
O406   O     0.16667   0.22775   0.46179   0.00000  Uiso   1.00
O407   O     0.16666   0.10559   0.46176   0.00000  Uiso   1.00
O408   O     0.16667   0.22774   0.53824   0.00000  Uiso   1.00
O409   O     0.09058   0.16666   0.52928   0.00000  Uiso   1.00
O410   O     0.24275   0.16667   0.47072   0.00000  Uiso   1.00
O411   O     0.09058   0.16667   0.45284   0.00000  Uiso   1.00
O412   O     0.24275   0.16666   0.54716   0.00000  Uiso   1.00
Zn413  Zn    0.16667   0.16666   0.55104   0.00000  Uiso   1.00
Zn414  Zn    0.16667   0.16667   0.44896   0.00000  Uiso   1.00
N415   N     0.23109   0.04221   0.44471   0.00000  Uiso   1.00
H416   H     0.21971   0.03338   0.41056   0.00000  Uiso   1.00
H417   H     0.26966   0.03214   0.45475   0.00000  Uiso   1.00
N418   N     0.10225   0.29113   0.55529   0.00000  Uiso   1.00
H419   H     0.06367   0.30114   0.54519   0.00000  Uiso   1.00
H420   H     0.11356   0.30002   0.58942   0.00000  Uiso   1.00
C421   C     0.50078   0.08673   0.49999   0.00000  Uiso   1.00
C422   C     0.49922   0.24661   0.50001   0.00000  Uiso   1.00
C423   C     0.40037   0.16665   0.48802   0.00000  Uiso   1.00
C424   C     0.59963   0.16668   0.51198   0.00000  Uiso   1.00
C425   C     0.34532   0.16668   0.48159   0.00000  Uiso   1.00
C426   C     0.65468   0.16666   0.51841   0.00000  Uiso   1.00
C427   C     0.53131   0.02082   0.47198   0.00000  Uiso   1.00
C428   C     0.46870   0.31251   0.52802   0.00000  Uiso   1.00
C429   C     0.52978   0.31118   0.47218   0.00000  Uiso   1.00
C430   C     0.47022   0.02216   0.52781   0.00000  Uiso   1.00
C431   C     0.49890   0.29073   0.50013   0.00000  Uiso   1.00
C432   C     0.50111   0.04260   0.49987   0.00000  Uiso   1.00
C433   C     0.53176   0.19333   0.36156   0.00000  Uiso   1.00
C434   C     0.46824   0.14001   0.63844   0.00000  Uiso   1.00
C435   C     0.53173   0.19332   0.64696   0.00000  Uiso   1.00
C436   C     0.46827   0.14001   0.35304   0.00000  Uiso   1.00
H437   H     0.65799   0.16672   0.44666   0.00000  Uiso   1.00
H438   H     0.34201   0.16662   0.55334   0.00000  Uiso   1.00
H439   H     0.55340   0.29379   0.45124   0.00000  Uiso   1.00
H440   H     0.44660   0.03954   0.54875   0.00000  Uiso   1.00
H441   H     0.55717   0.21465   0.38310   0.00000  Uiso   1.00
H442   H     0.44283   0.11868   0.61690   0.00000  Uiso   1.00
H443   H     0.55712   0.21465   0.63223   0.00000  Uiso   1.00
H444   H     0.44288   0.11869   0.36777   0.00000  Uiso   1.00
N445   N     0.49999   0.16666   0.61907   0.00000  Uiso   1.00
N446   N     0.50001   0.16668   0.38093   0.00000  Uiso   1.00
O447   O     0.50000   0.10558   0.53821   0.00000  Uiso   1.00
O448   O     0.50000   0.22775   0.46179   0.00000  Uiso   1.00
O449   O     0.50000   0.10559   0.46176   0.00000  Uiso   1.00
O450   O     0.50000   0.22774   0.53824   0.00000  Uiso   1.00
O451   O     0.42392   0.16666   0.52928   0.00000  Uiso   1.00
O452   O     0.57608   0.16667   0.47072   0.00000  Uiso   1.00
O453   O     0.42392   0.16667   0.45284   0.00000  Uiso   1.00
O454   O     0.57608   0.16666   0.54716   0.00000  Uiso   1.00
Zn455  Zn    0.50000   0.16666   0.55104   0.00000  Uiso   1.00
Zn456  Zn    0.50000   0.16667   0.44896   0.00000  Uiso   1.00
N457   N     0.56442   0.04221   0.44471   0.00000  Uiso   1.00
H458   H     0.55304   0.03338   0.41056   0.00000  Uiso   1.00
H459   H     0.60299   0.03214   0.45475   0.00000  Uiso   1.00
N460   N     0.43558   0.29113   0.55529   0.00000  Uiso   1.00
H461   H     0.39700   0.30114   0.54519   0.00000  Uiso   1.00
H462   H     0.44689   0.30002   0.58942   0.00000  Uiso   1.00
C463   C     0.83411   0.08673   0.49999   0.00000  Uiso   1.00
C464   C     0.83256   0.24661   0.50001   0.00000  Uiso   1.00
C465   C     0.73370   0.16665   0.48802   0.00000  Uiso   1.00
C466   C     0.93296   0.16668   0.51198   0.00000  Uiso   1.00
C467   C     0.67865   0.16668   0.48159   0.00000  Uiso   1.00
C468   C     0.98802   0.16666   0.51841   0.00000  Uiso   1.00
C469   C     0.86464   0.02082   0.47198   0.00000  Uiso   1.00
C470   C     0.80203   0.31251   0.52802   0.00000  Uiso   1.00
C471   C     0.86311   0.31118   0.47218   0.00000  Uiso   1.00
C472   C     0.80355   0.02216   0.52781   0.00000  Uiso   1.00
C473   C     0.83223   0.29073   0.50013   0.00000  Uiso   1.00
C474   C     0.83444   0.04260   0.49987   0.00000  Uiso   1.00
C475   C     0.86509   0.19333   0.36156   0.00000  Uiso   1.00
C476   C     0.80158   0.14001   0.63844   0.00000  Uiso   1.00
C477   C     0.86507   0.19332   0.64696   0.00000  Uiso   1.00
C478   C     0.80160   0.14001   0.35304   0.00000  Uiso   1.00
H479   H     0.99133   0.16672   0.44666   0.00000  Uiso   1.00
H480   H     0.67534   0.16662   0.55334   0.00000  Uiso   1.00
H481   H     0.88673   0.29379   0.45124   0.00000  Uiso   1.00
H482   H     0.77993   0.03954   0.54875   0.00000  Uiso   1.00
H483   H     0.89050   0.21465   0.38310   0.00000  Uiso   1.00
H484   H     0.77616   0.11868   0.61690   0.00000  Uiso   1.00
H485   H     0.89045   0.21465   0.63223   0.00000  Uiso   1.00
H486   H     0.77622   0.11869   0.36777   0.00000  Uiso   1.00
N487   N     0.83332   0.16666   0.61907   0.00000  Uiso   1.00
N488   N     0.83335   0.16668   0.38093   0.00000  Uiso   1.00
O489   O     0.83333   0.10558   0.53821   0.00000  Uiso   1.00
O490   O     0.83334   0.22775   0.46179   0.00000  Uiso   1.00
O491   O     0.83333   0.10559   0.46176   0.00000  Uiso   1.00
O492   O     0.83334   0.22774   0.53824   0.00000  Uiso   1.00
O493   O     0.75725   0.16666   0.52928   0.00000  Uiso   1.00
O494   O     0.90942   0.16667   0.47072   0.00000  Uiso   1.00
O495   O     0.75725   0.16667   0.45284   0.00000  Uiso   1.00
O496   O     0.90942   0.16666   0.54716   0.00000  Uiso   1.00
Zn497  Zn    0.83333   0.16666   0.55104   0.00000  Uiso   1.00
Zn498  Zn    0.83333   0.16667   0.44896   0.00000  Uiso   1.00
N499   N     0.89776   0.04221   0.44471   0.00000  Uiso   1.00
H500   H     0.88638   0.03338   0.41056   0.00000  Uiso   1.00
H501   H     0.93633   0.03214   0.45475   0.00000  Uiso   1.00
N502   N     0.76892   0.29113   0.55529   0.00000  Uiso   1.00
H503   H     0.73033   0.30114   0.54519   0.00000  Uiso   1.00
H504   H     0.78022   0.30002   0.58942   0.00000  Uiso   1.00
C505   C     0.16744   0.42006   0.49999   0.00000  Uiso   1.00
C506   C     0.16589   0.57994   0.50001   0.00000  Uiso   1.00
C507   C     0.06704   0.49999   0.48802   0.00000  Uiso   1.00
C508   C     0.26630   0.50001   0.51198   0.00000  Uiso   1.00
C509   C     0.01198   0.50001   0.48159   0.00000  Uiso   1.00
C510   C     0.32135   0.49999   0.51841   0.00000  Uiso   1.00
C511   C     0.19797   0.35415   0.47198   0.00000  Uiso   1.00
C512   C     0.13536   0.64585   0.52802   0.00000  Uiso   1.00
C513   C     0.19645   0.64451   0.47218   0.00000  Uiso   1.00
C514   C     0.13688   0.35549   0.52781   0.00000  Uiso   1.00
C515   C     0.16556   0.62406   0.50013   0.00000  Uiso   1.00
C516   C     0.16777   0.37594   0.49987   0.00000  Uiso   1.00
C517   C     0.19842   0.52666   0.36156   0.00000  Uiso   1.00
C518   C     0.13491   0.47334   0.63844   0.00000  Uiso   1.00
C519   C     0.19840   0.52666   0.64696   0.00000  Uiso   1.00
C520   C     0.13493   0.47334   0.35304   0.00000  Uiso   1.00
H521   H     0.32466   0.50005   0.44666   0.00000  Uiso   1.00
H522   H     0.00867   0.49995   0.55334   0.00000  Uiso   1.00
H523   H     0.22007   0.62713   0.45124   0.00000  Uiso   1.00
H524   H     0.11326   0.37287   0.54875   0.00000  Uiso   1.00
H525   H     0.22384   0.54799   0.38310   0.00000  Uiso   1.00
H526   H     0.10950   0.45201   0.61690   0.00000  Uiso   1.00
H527   H     0.22378   0.54798   0.63223   0.00000  Uiso   1.00
H528   H     0.10955   0.45202   0.36777   0.00000  Uiso   1.00
N529   N     0.16665   0.49999   0.61907   0.00000  Uiso   1.00
N530   N     0.16668   0.50001   0.38093   0.00000  Uiso   1.00
O531   O     0.16666   0.43892   0.53821   0.00000  Uiso   1.00
O532   O     0.16667   0.56108   0.46179   0.00000  Uiso   1.00
O533   O     0.16666   0.43893   0.46176   0.00000  Uiso   1.00
O534   O     0.16667   0.56107   0.53824   0.00000  Uiso   1.00
O535   O     0.09058   0.50000   0.52928   0.00000  Uiso   1.00
O536   O     0.24275   0.50000   0.47072   0.00000  Uiso   1.00
O537   O     0.09058   0.50000   0.45284   0.00000  Uiso   1.00
O538   O     0.24275   0.50000   0.54716   0.00000  Uiso   1.00
Zn539  Zn    0.16667   0.49999   0.55104   0.00000  Uiso   1.00
Zn540  Zn    0.16667   0.50001   0.44896   0.00000  Uiso   1.00
N541   N     0.23109   0.37554   0.44471   0.00000  Uiso   1.00
H542   H     0.21971   0.36671   0.41056   0.00000  Uiso   1.00
H543   H     0.26966   0.36547   0.45475   0.00000  Uiso   1.00
N544   N     0.10225   0.62446   0.55529   0.00000  Uiso   1.00
H545   H     0.06367   0.63447   0.54519   0.00000  Uiso   1.00
H546   H     0.11356   0.63335   0.58942   0.00000  Uiso   1.00
C547   C     0.50078   0.42006   0.49999   0.00000  Uiso   1.00
C548   C     0.49922   0.57994   0.50001   0.00000  Uiso   1.00
C549   C     0.40037   0.49999   0.48802   0.00000  Uiso   1.00
C550   C     0.59963   0.50001   0.51198   0.00000  Uiso   1.00
C551   C     0.34532   0.50001   0.48159   0.00000  Uiso   1.00
C552   C     0.65468   0.49999   0.51841   0.00000  Uiso   1.00
C553   C     0.53131   0.35415   0.47198   0.00000  Uiso   1.00
C554   C     0.46870   0.64585   0.52802   0.00000  Uiso   1.00
C555   C     0.52978   0.64451   0.47218   0.00000  Uiso   1.00
C556   C     0.47022   0.35549   0.52781   0.00000  Uiso   1.00
C557   C     0.49890   0.62406   0.50013   0.00000  Uiso   1.00
C558   C     0.50111   0.37594   0.49987   0.00000  Uiso   1.00
C559   C     0.53176   0.52666   0.36156   0.00000  Uiso   1.00
C560   C     0.46824   0.47334   0.63844   0.00000  Uiso   1.00
C561   C     0.53173   0.52666   0.64696   0.00000  Uiso   1.00
C562   C     0.46827   0.47334   0.35304   0.00000  Uiso   1.00
H563   H     0.65799   0.50005   0.44666   0.00000  Uiso   1.00
H564   H     0.34201   0.49995   0.55334   0.00000  Uiso   1.00
H565   H     0.55340   0.62713   0.45124   0.00000  Uiso   1.00
H566   H     0.44660   0.37287   0.54875   0.00000  Uiso   1.00
H567   H     0.55717   0.54799   0.38310   0.00000  Uiso   1.00
H568   H     0.44283   0.45201   0.61690   0.00000  Uiso   1.00
H569   H     0.55712   0.54798   0.63223   0.00000  Uiso   1.00
H570   H     0.44288   0.45202   0.36777   0.00000  Uiso   1.00
N571   N     0.49999   0.49999   0.61907   0.00000  Uiso   1.00
N572   N     0.50001   0.50001   0.38093   0.00000  Uiso   1.00
O573   O     0.50000   0.43892   0.53821   0.00000  Uiso   1.00
O574   O     0.50000   0.56108   0.46179   0.00000  Uiso   1.00
O575   O     0.50000   0.43893   0.46176   0.00000  Uiso   1.00
O576   O     0.50000   0.56107   0.53824   0.00000  Uiso   1.00
O577   O     0.42392   0.50000   0.52928   0.00000  Uiso   1.00
O578   O     0.57608   0.50000   0.47072   0.00000  Uiso   1.00
O579   O     0.42392   0.50000   0.45284   0.00000  Uiso   1.00
O580   O     0.57608   0.50000   0.54716   0.00000  Uiso   1.00
Zn581  Zn    0.50000   0.49999   0.55104   0.00000  Uiso   1.00
Zn582  Zn    0.50000   0.50001   0.44896   0.00000  Uiso   1.00
N583   N     0.56442   0.37554   0.44471   0.00000  Uiso   1.00
H584   H     0.55304   0.36671   0.41056   0.00000  Uiso   1.00
H585   H     0.60299   0.36547   0.45475   0.00000  Uiso   1.00
N586   N     0.43558   0.62446   0.55529   0.00000  Uiso   1.00
H587   H     0.39700   0.63447   0.54519   0.00000  Uiso   1.00
H588   H     0.44689   0.63335   0.58942   0.00000  Uiso   1.00
C589   C     0.83411   0.42006   0.49999   0.00000  Uiso   1.00
C590   C     0.83256   0.57994   0.50001   0.00000  Uiso   1.00
C591   C     0.73370   0.49999   0.48802   0.00000  Uiso   1.00
C592   C     0.93296   0.50001   0.51198   0.00000  Uiso   1.00
C593   C     0.67865   0.50001   0.48159   0.00000  Uiso   1.00
C594   C     0.98802   0.49999   0.51841   0.00000  Uiso   1.00
C595   C     0.86464   0.35415   0.47198   0.00000  Uiso   1.00
C596   C     0.80203   0.64585   0.52802   0.00000  Uiso   1.00
C597   C     0.86311   0.64451   0.47218   0.00000  Uiso   1.00
C598   C     0.80355   0.35549   0.52781   0.00000  Uiso   1.00
C599   C     0.83223   0.62406   0.50013   0.00000  Uiso   1.00
C600   C     0.83444   0.37594   0.49987   0.00000  Uiso   1.00
C601   C     0.86509   0.52666   0.36156   0.00000  Uiso   1.00
C602   C     0.80158   0.47334   0.63844   0.00000  Uiso   1.00
C603   C     0.86507   0.52666   0.64696   0.00000  Uiso   1.00
C604   C     0.80160   0.47334   0.35304   0.00000  Uiso   1.00
H605   H     0.99133   0.50005   0.44666   0.00000  Uiso   1.00
H606   H     0.67534   0.49995   0.55334   0.00000  Uiso   1.00
H607   H     0.88673   0.62713   0.45124   0.00000  Uiso   1.00
H608   H     0.77993   0.37287   0.54875   0.00000  Uiso   1.00
H609   H     0.89050   0.54799   0.38310   0.00000  Uiso   1.00
H610   H     0.77616   0.45201   0.61690   0.00000  Uiso   1.00
H611   H     0.89045   0.54798   0.63223   0.00000  Uiso   1.00
H612   H     0.77622   0.45202   0.36777   0.00000  Uiso   1.00
N613   N     0.83332   0.49999   0.61907   0.00000  Uiso   1.00
N614   N     0.83335   0.50001   0.38093   0.00000  Uiso   1.00
O615   O     0.83333   0.43892   0.53821   0.00000  Uiso   1.00
O616   O     0.83334   0.56108   0.46179   0.00000  Uiso   1.00
O617   O     0.83333   0.43893   0.46176   0.00000  Uiso   1.00
O618   O     0.83334   0.56107   0.53824   0.00000  Uiso   1.00
O619   O     0.75725   0.50000   0.52928   0.00000  Uiso   1.00
O620   O     0.90942   0.50000   0.47072   0.00000  Uiso   1.00
O621   O     0.75725   0.50000   0.45284   0.00000  Uiso   1.00
O622   O     0.90942   0.50000   0.54716   0.00000  Uiso   1.00
Zn623  Zn    0.83333   0.49999   0.55104   0.00000  Uiso   1.00
Zn624  Zn    0.83333   0.50001   0.44896   0.00000  Uiso   1.00
N625   N     0.89776   0.37554   0.44471   0.00000  Uiso   1.00
H626   H     0.88638   0.36671   0.41056   0.00000  Uiso   1.00
H627   H     0.93633   0.36547   0.45475   0.00000  Uiso   1.00
N628   N     0.76892   0.62446   0.55529   0.00000  Uiso   1.00
H629   H     0.73033   0.63447   0.54519   0.00000  Uiso   1.00
H630   H     0.78022   0.63335   0.58942   0.00000  Uiso   1.00
C631   C     0.16744   0.75339   0.49999   0.00000  Uiso   1.00
C632   C     0.16589   0.91327   0.50001   0.00000  Uiso   1.00
C633   C     0.06704   0.83332   0.48802   0.00000  Uiso   1.00
C634   C     0.26630   0.83334   0.51198   0.00000  Uiso   1.00
C635   C     0.01198   0.83334   0.48159   0.00000  Uiso   1.00
C636   C     0.32135   0.83332   0.51841   0.00000  Uiso   1.00
C637   C     0.19797   0.68749   0.47198   0.00000  Uiso   1.00
C638   C     0.13536   0.97918   0.52802   0.00000  Uiso   1.00
C639   C     0.19645   0.97784   0.47218   0.00000  Uiso   1.00
C640   C     0.13688   0.68882   0.52781   0.00000  Uiso   1.00
C641   C     0.16556   0.95740   0.50013   0.00000  Uiso   1.00
C642   C     0.16777   0.70927   0.49987   0.00000  Uiso   1.00
C643   C     0.19842   0.85999   0.36156   0.00000  Uiso   1.00
C644   C     0.13491   0.80667   0.63844   0.00000  Uiso   1.00
C645   C     0.19840   0.85999   0.64696   0.00000  Uiso   1.00
C646   C     0.13493   0.80668   0.35304   0.00000  Uiso   1.00
H647   H     0.32466   0.83338   0.44666   0.00000  Uiso   1.00
H648   H     0.00867   0.83328   0.55334   0.00000  Uiso   1.00
H649   H     0.22007   0.96046   0.45124   0.00000  Uiso   1.00
H650   H     0.11326   0.70621   0.54875   0.00000  Uiso   1.00
H651   H     0.22384   0.88132   0.38310   0.00000  Uiso   1.00
H652   H     0.10950   0.78535   0.61690   0.00000  Uiso   1.00
H653   H     0.22378   0.88131   0.63223   0.00000  Uiso   1.00
H654   H     0.10955   0.78535   0.36777   0.00000  Uiso   1.00
N655   N     0.16665   0.83332   0.61907   0.00000  Uiso   1.00
N656   N     0.16668   0.83334   0.38093   0.00000  Uiso   1.00
O657   O     0.16666   0.77225   0.53821   0.00000  Uiso   1.00
O658   O     0.16667   0.89442   0.46179   0.00000  Uiso   1.00
O659   O     0.16666   0.77226   0.46176   0.00000  Uiso   1.00
O660   O     0.16667   0.89441   0.53824   0.00000  Uiso   1.00
O661   O     0.09058   0.83333   0.52928   0.00000  Uiso   1.00
O662   O     0.24275   0.83334   0.47072   0.00000  Uiso   1.00
O663   O     0.09058   0.83334   0.45284   0.00000  Uiso   1.00
O664   O     0.24275   0.83333   0.54716   0.00000  Uiso   1.00
Zn665  Zn    0.16667   0.83333   0.55104   0.00000  Uiso   1.00
Zn666  Zn    0.16667   0.83334   0.44896   0.00000  Uiso   1.00
N667   N     0.23109   0.70888   0.44471   0.00000  Uiso   1.00
H668   H     0.21971   0.70005   0.41056   0.00000  Uiso   1.00
H669   H     0.26966   0.69880   0.45475   0.00000  Uiso   1.00
N670   N     0.10225   0.95779   0.55529   0.00000  Uiso   1.00
H671   H     0.06367   0.96780   0.54519   0.00000  Uiso   1.00
H672   H     0.11356   0.96668   0.58942   0.00000  Uiso   1.00
C673   C     0.50078   0.75339   0.49999   0.00000  Uiso   1.00
C674   C     0.49922   0.91327   0.50001   0.00000  Uiso   1.00
C675   C     0.40037   0.83332   0.48802   0.00000  Uiso   1.00
C676   C     0.59963   0.83334   0.51198   0.00000  Uiso   1.00
C677   C     0.34532   0.83334   0.48159   0.00000  Uiso   1.00
C678   C     0.65468   0.83332   0.51841   0.00000  Uiso   1.00
C679   C     0.53131   0.68749   0.47198   0.00000  Uiso   1.00
C680   C     0.46870   0.97918   0.52802   0.00000  Uiso   1.00
C681   C     0.52978   0.97784   0.47218   0.00000  Uiso   1.00
C682   C     0.47022   0.68882   0.52781   0.00000  Uiso   1.00
C683   C     0.49890   0.95740   0.50013   0.00000  Uiso   1.00
C684   C     0.50111   0.70927   0.49987   0.00000  Uiso   1.00
C685   C     0.53176   0.85999   0.36156   0.00000  Uiso   1.00
C686   C     0.46824   0.80667   0.63844   0.00000  Uiso   1.00
C687   C     0.53173   0.85999   0.64696   0.00000  Uiso   1.00
C688   C     0.46827   0.80668   0.35304   0.00000  Uiso   1.00
H689   H     0.65799   0.83338   0.44666   0.00000  Uiso   1.00
H690   H     0.34201   0.83328   0.55334   0.00000  Uiso   1.00
H691   H     0.55340   0.96046   0.45124   0.00000  Uiso   1.00
H692   H     0.44660   0.70621   0.54875   0.00000  Uiso   1.00
H693   H     0.55717   0.88132   0.38310   0.00000  Uiso   1.00
H694   H     0.44283   0.78535   0.61690   0.00000  Uiso   1.00
H695   H     0.55712   0.88131   0.63223   0.00000  Uiso   1.00
H696   H     0.44288   0.78535   0.36777   0.00000  Uiso   1.00
N697   N     0.49999   0.83332   0.61907   0.00000  Uiso   1.00
N698   N     0.50001   0.83334   0.38093   0.00000  Uiso   1.00
O699   O     0.50000   0.77225   0.53821   0.00000  Uiso   1.00
O700   O     0.50000   0.89442   0.46179   0.00000  Uiso   1.00
O701   O     0.50000   0.77226   0.46176   0.00000  Uiso   1.00
O702   O     0.50000   0.89441   0.53824   0.00000  Uiso   1.00
O703   O     0.42392   0.83333   0.52928   0.00000  Uiso   1.00
O704   O     0.57608   0.83334   0.47072   0.00000  Uiso   1.00
O705   O     0.42392   0.83334   0.45284   0.00000  Uiso   1.00
O706   O     0.57608   0.83333   0.54716   0.00000  Uiso   1.00
Zn707  Zn    0.50000   0.83333   0.55104   0.00000  Uiso   1.00
Zn708  Zn    0.50000   0.83334   0.44896   0.00000  Uiso   1.00
N709   N     0.56442   0.70888   0.44471   0.00000  Uiso   1.00
H710   H     0.55304   0.70005   0.41056   0.00000  Uiso   1.00
H711   H     0.60299   0.69880   0.45475   0.00000  Uiso   1.00
N712   N     0.43558   0.95779   0.55529   0.00000  Uiso   1.00
H713   H     0.39700   0.96780   0.54519   0.00000  Uiso   1.00
H714   H     0.44689   0.96668   0.58942   0.00000  Uiso   1.00
C715   C     0.83411   0.75339   0.49999   0.00000  Uiso   1.00
C716   C     0.83256   0.91327   0.50001   0.00000  Uiso   1.00
C717   C     0.73370   0.83332   0.48802   0.00000  Uiso   1.00
C718   C     0.93296   0.83334   0.51198   0.00000  Uiso   1.00
C719   C     0.67865   0.83334   0.48159   0.00000  Uiso   1.00
C720   C     0.98802   0.83332   0.51841   0.00000  Uiso   1.00
C721   C     0.86464   0.68749   0.47198   0.00000  Uiso   1.00
C722   C     0.80203   0.97918   0.52802   0.00000  Uiso   1.00
C723   C     0.86311   0.97784   0.47218   0.00000  Uiso   1.00
C724   C     0.80355   0.68882   0.52781   0.00000  Uiso   1.00
C725   C     0.83223   0.95740   0.50013   0.00000  Uiso   1.00
C726   C     0.83444   0.70927   0.49987   0.00000  Uiso   1.00
C727   C     0.86509   0.85999   0.36156   0.00000  Uiso   1.00
C728   C     0.80158   0.80667   0.63844   0.00000  Uiso   1.00
C729   C     0.86507   0.85999   0.64696   0.00000  Uiso   1.00
C730   C     0.80160   0.80668   0.35304   0.00000  Uiso   1.00
H731   H     0.99133   0.83338   0.44666   0.00000  Uiso   1.00
H732   H     0.67534   0.83328   0.55334   0.00000  Uiso   1.00
H733   H     0.88673   0.96046   0.45124   0.00000  Uiso   1.00
H734   H     0.77993   0.70621   0.54875   0.00000  Uiso   1.00
H735   H     0.89050   0.88132   0.38310   0.00000  Uiso   1.00
H736   H     0.77616   0.78535   0.61690   0.00000  Uiso   1.00
H737   H     0.89045   0.88131   0.63223   0.00000  Uiso   1.00
H738   H     0.77622   0.78535   0.36777   0.00000  Uiso   1.00
N739   N     0.83332   0.83332   0.61907   0.00000  Uiso   1.00
N740   N     0.83335   0.83334   0.38093   0.00000  Uiso   1.00
O741   O     0.83333   0.77225   0.53821   0.00000  Uiso   1.00
O742   O     0.83334   0.89442   0.46179   0.00000  Uiso   1.00
O743   O     0.83333   0.77226   0.46176   0.00000  Uiso   1.00
O744   O     0.83334   0.89441   0.53824   0.00000  Uiso   1.00
O745   O     0.75725   0.83333   0.52928   0.00000  Uiso   1.00
O746   O     0.90942   0.83334   0.47072   0.00000  Uiso   1.00
O747   O     0.75725   0.83334   0.45284   0.00000  Uiso   1.00
O748   O     0.90942   0.83333   0.54716   0.00000  Uiso   1.00
Zn749  Zn    0.83333   0.83333   0.55104   0.00000  Uiso   1.00
Zn750  Zn    0.83333   0.83334   0.44896   0.00000  Uiso   1.00
N751   N     0.89776   0.70888   0.44471   0.00000  Uiso   1.00
H752   H     0.88638   0.70005   0.41056   0.00000  Uiso   1.00
H753   H     0.93633   0.69880   0.45475   0.00000  Uiso   1.00
N754   N     0.76892   0.95779   0.55529   0.00000  Uiso   1.00
H755   H     0.73033   0.96780   0.54519   0.00000  Uiso   1.00
H756   H     0.78022   0.96668   0.58942   0.00000  Uiso   1.00
C757   C     0.16744   0.08673   0.83332   0.00000  Uiso   1.00
C758   C     0.16589   0.24661   0.83334   0.00000  Uiso   1.00
C759   C     0.06704   0.16665   0.82135   0.00000  Uiso   1.00
C760   C     0.26630   0.16668   0.84531   0.00000  Uiso   1.00
C761   C     0.01198   0.16668   0.81492   0.00000  Uiso   1.00
C762   C     0.32135   0.16666   0.85175   0.00000  Uiso   1.00
C763   C     0.19797   0.02082   0.80531   0.00000  Uiso   1.00
C764   C     0.13536   0.31251   0.86135   0.00000  Uiso   1.00
C765   C     0.19645   0.31118   0.80552   0.00000  Uiso   1.00
C766   C     0.13688   0.02216   0.86114   0.00000  Uiso   1.00
C767   C     0.16556   0.29073   0.83347   0.00000  Uiso   1.00
C768   C     0.16777   0.04260   0.83320   0.00000  Uiso   1.00
C769   C     0.19842   0.19333   0.69489   0.00000  Uiso   1.00
C770   C     0.13491   0.14001   0.97177   0.00000  Uiso   1.00
C771   C     0.19840   0.19332   0.98029   0.00000  Uiso   1.00
C772   C     0.13493   0.14001   0.68638   0.00000  Uiso   1.00
H773   H     0.32466   0.16672   0.77999   0.00000  Uiso   1.00
H774   H     0.00867   0.16662   0.88667   0.00000  Uiso   1.00
H775   H     0.22007   0.29379   0.78457   0.00000  Uiso   1.00
H776   H     0.11326   0.03954   0.88209   0.00000  Uiso   1.00
H777   H     0.22384   0.21465   0.71643   0.00000  Uiso   1.00
H778   H     0.10950   0.11868   0.95023   0.00000  Uiso   1.00
H779   H     0.22378   0.21465   0.96556   0.00000  Uiso   1.00
H780   H     0.10955   0.11869   0.70110   0.00000  Uiso   1.00
N781   N     0.16665   0.16666   0.95240   0.00000  Uiso   1.00
N782   N     0.16668   0.16668   0.71427   0.00000  Uiso   1.00
O783   O     0.16666   0.10558   0.87154   0.00000  Uiso   1.00
O784   O     0.16667   0.22775   0.79513   0.00000  Uiso   1.00
O785   O     0.16666   0.10559   0.79510   0.00000  Uiso   1.00
O786   O     0.16667   0.22774   0.87157   0.00000  Uiso   1.00
O787   O     0.09058   0.16666   0.86261   0.00000  Uiso   1.00
O788   O     0.24275   0.16667   0.80405   0.00000  Uiso   1.00
O789   O     0.09058   0.16667   0.78617   0.00000  Uiso   1.00
O790   O     0.24275   0.16666   0.88050   0.00000  Uiso   1.00
Zn791  Zn    0.16667   0.16666   0.88437   0.00000  Uiso   1.00
Zn792  Zn    0.16667   0.16667   0.78229   0.00000  Uiso   1.00
N793   N     0.23109   0.04221   0.77804   0.00000  Uiso   1.00
H794   H     0.21971   0.03338   0.74389   0.00000  Uiso   1.00
H795   H     0.26966   0.03214   0.78808   0.00000  Uiso   1.00
N796   N     0.10225   0.29113   0.88863   0.00000  Uiso   1.00
H797   H     0.06367   0.30114   0.87852   0.00000  Uiso   1.00
H798   H     0.11356   0.30002   0.92276   0.00000  Uiso   1.00
C799   C     0.50078   0.08673   0.83332   0.00000  Uiso   1.00
C800   C     0.49922   0.24661   0.83334   0.00000  Uiso   1.00
C801   C     0.40037   0.16665   0.82135   0.00000  Uiso   1.00
C802   C     0.59963   0.16668   0.84531   0.00000  Uiso   1.00
C803   C     0.34532   0.16668   0.81492   0.00000  Uiso   1.00
C804   C     0.65468   0.16666   0.85175   0.00000  Uiso   1.00
C805   C     0.53131   0.02082   0.80531   0.00000  Uiso   1.00
C806   C     0.46870   0.31251   0.86135   0.00000  Uiso   1.00
C807   C     0.52978   0.31118   0.80552   0.00000  Uiso   1.00
C808   C     0.47022   0.02216   0.86114   0.00000  Uiso   1.00
C809   C     0.49890   0.29073   0.83347   0.00000  Uiso   1.00
C810   C     0.50111   0.04260   0.83320   0.00000  Uiso   1.00
C811   C     0.53176   0.19333   0.69489   0.00000  Uiso   1.00
C812   C     0.46824   0.14001   0.97177   0.00000  Uiso   1.00
C813   C     0.53173   0.19332   0.98029   0.00000  Uiso   1.00
C814   C     0.46827   0.14001   0.68638   0.00000  Uiso   1.00
H815   H     0.65799   0.16672   0.77999   0.00000  Uiso   1.00
H816   H     0.34201   0.16662   0.88667   0.00000  Uiso   1.00
H817   H     0.55340   0.29379   0.78457   0.00000  Uiso   1.00
H818   H     0.44660   0.03954   0.88209   0.00000  Uiso   1.00
H819   H     0.55717   0.21465   0.71643   0.00000  Uiso   1.00
H820   H     0.44283   0.11868   0.95023   0.00000  Uiso   1.00
H821   H     0.55712   0.21465   0.96556   0.00000  Uiso   1.00
H822   H     0.44288   0.11869   0.70110   0.00000  Uiso   1.00
N823   N     0.49999   0.16666   0.95240   0.00000  Uiso   1.00
N824   N     0.50001   0.16668   0.71427   0.00000  Uiso   1.00
O825   O     0.50000   0.10558   0.87154   0.00000  Uiso   1.00
O826   O     0.50000   0.22775   0.79513   0.00000  Uiso   1.00
O827   O     0.50000   0.10559   0.79510   0.00000  Uiso   1.00
O828   O     0.50000   0.22774   0.87157   0.00000  Uiso   1.00
O829   O     0.42392   0.16666   0.86261   0.00000  Uiso   1.00
O830   O     0.57608   0.16667   0.80405   0.00000  Uiso   1.00
O831   O     0.42392   0.16667   0.78617   0.00000  Uiso   1.00
O832   O     0.57608   0.16666   0.88050   0.00000  Uiso   1.00
Zn833  Zn    0.50000   0.16666   0.88437   0.00000  Uiso   1.00
Zn834  Zn    0.50000   0.16667   0.78229   0.00000  Uiso   1.00
N835   N     0.56442   0.04221   0.77804   0.00000  Uiso   1.00
H836   H     0.55304   0.03338   0.74389   0.00000  Uiso   1.00
H837   H     0.60299   0.03214   0.78808   0.00000  Uiso   1.00
N838   N     0.43558   0.29113   0.88863   0.00000  Uiso   1.00
H839   H     0.39700   0.30114   0.87852   0.00000  Uiso   1.00
H840   H     0.44689   0.30002   0.92276   0.00000  Uiso   1.00
C841   C     0.83411   0.08673   0.83332   0.00000  Uiso   1.00
C842   C     0.83256   0.24661   0.83334   0.00000  Uiso   1.00
C843   C     0.73370   0.16665   0.82135   0.00000  Uiso   1.00
C844   C     0.93296   0.16668   0.84531   0.00000  Uiso   1.00
C845   C     0.67865   0.16668   0.81492   0.00000  Uiso   1.00
C846   C     0.98802   0.16666   0.85175   0.00000  Uiso   1.00
C847   C     0.86464   0.02082   0.80531   0.00000  Uiso   1.00
C848   C     0.80203   0.31251   0.86135   0.00000  Uiso   1.00
C849   C     0.86311   0.31118   0.80552   0.00000  Uiso   1.00
C850   C     0.80355   0.02216   0.86114   0.00000  Uiso   1.00
C851   C     0.83223   0.29073   0.83347   0.00000  Uiso   1.00
C852   C     0.83444   0.04260   0.83320   0.00000  Uiso   1.00
C853   C     0.86509   0.19333   0.69489   0.00000  Uiso   1.00
C854   C     0.80158   0.14001   0.97177   0.00000  Uiso   1.00
C855   C     0.86507   0.19332   0.98029   0.00000  Uiso   1.00
C856   C     0.80160   0.14001   0.68638   0.00000  Uiso   1.00
H857   H     0.99133   0.16672   0.77999   0.00000  Uiso   1.00
H858   H     0.67534   0.16662   0.88667   0.00000  Uiso   1.00
H859   H     0.88673   0.29379   0.78457   0.00000  Uiso   1.00
H860   H     0.77993   0.03954   0.88209   0.00000  Uiso   1.00
H861   H     0.89050   0.21465   0.71643   0.00000  Uiso   1.00
H862   H     0.77616   0.11868   0.95023   0.00000  Uiso   1.00
H863   H     0.89045   0.21465   0.96556   0.00000  Uiso   1.00
H864   H     0.77622   0.11869   0.70110   0.00000  Uiso   1.00
N865   N     0.83332   0.16666   0.95240   0.00000  Uiso   1.00
N866   N     0.83335   0.16668   0.71427   0.00000  Uiso   1.00
O867   O     0.83333   0.10558   0.87154   0.00000  Uiso   1.00
O868   O     0.83334   0.22775   0.79513   0.00000  Uiso   1.00
O869   O     0.83333   0.10559   0.79510   0.00000  Uiso   1.00
O870   O     0.83334   0.22774   0.87157   0.00000  Uiso   1.00
O871   O     0.75725   0.16666   0.86261   0.00000  Uiso   1.00
O872   O     0.90942   0.16667   0.80405   0.00000  Uiso   1.00
O873   O     0.75725   0.16667   0.78617   0.00000  Uiso   1.00
O874   O     0.90942   0.16666   0.88050   0.00000  Uiso   1.00
Zn875  Zn    0.83333   0.16666   0.88437   0.00000  Uiso   1.00
Zn876  Zn    0.83333   0.16667   0.78229   0.00000  Uiso   1.00
N877   N     0.89776   0.04221   0.77804   0.00000  Uiso   1.00
H878   H     0.88638   0.03338   0.74389   0.00000  Uiso   1.00
H879   H     0.93633   0.03214   0.78808   0.00000  Uiso   1.00
N880   N     0.76892   0.29113   0.88863   0.00000  Uiso   1.00
H881   H     0.73033   0.30114   0.87852   0.00000  Uiso   1.00
H882   H     0.78022   0.30002   0.92276   0.00000  Uiso   1.00
C883   C     0.16744   0.42006   0.83332   0.00000  Uiso   1.00
C884   C     0.16589   0.57994   0.83334   0.00000  Uiso   1.00
C885   C     0.06704   0.49999   0.82135   0.00000  Uiso   1.00
C886   C     0.26630   0.50001   0.84531   0.00000  Uiso   1.00
C887   C     0.01198   0.50001   0.81492   0.00000  Uiso   1.00
C888   C     0.32135   0.49999   0.85175   0.00000  Uiso   1.00
C889   C     0.19797   0.35415   0.80531   0.00000  Uiso   1.00
C890   C     0.13536   0.64585   0.86135   0.00000  Uiso   1.00
C891   C     0.19645   0.64451   0.80552   0.00000  Uiso   1.00
C892   C     0.13688   0.35549   0.86114   0.00000  Uiso   1.00
C893   C     0.16556   0.62406   0.83347   0.00000  Uiso   1.00
C894   C     0.16777   0.37594   0.83320   0.00000  Uiso   1.00
C895   C     0.19842   0.52666   0.69489   0.00000  Uiso   1.00
C896   C     0.13491   0.47334   0.97177   0.00000  Uiso   1.00
C897   C     0.19840   0.52666   0.98029   0.00000  Uiso   1.00
C898   C     0.13493   0.47334   0.68638   0.00000  Uiso   1.00
H899   H     0.32466   0.50005   0.77999   0.00000  Uiso   1.00
H900   H     0.00867   0.49995   0.88667   0.00000  Uiso   1.00
H901   H     0.22007   0.62713   0.78457   0.00000  Uiso   1.00
H902   H     0.11326   0.37287   0.88209   0.00000  Uiso   1.00
H903   H     0.22384   0.54799   0.71643   0.00000  Uiso   1.00
H904   H     0.10950   0.45201   0.95023   0.00000  Uiso   1.00
H905   H     0.22378   0.54798   0.96556   0.00000  Uiso   1.00
H906   H     0.10955   0.45202   0.70110   0.00000  Uiso   1.00
N907   N     0.16665   0.49999   0.95240   0.00000  Uiso   1.00
N908   N     0.16668   0.50001   0.71427   0.00000  Uiso   1.00
O909   O     0.16666   0.43892   0.87154   0.00000  Uiso   1.00
O910   O     0.16667   0.56108   0.79513   0.00000  Uiso   1.00
O911   O     0.16666   0.43893   0.79510   0.00000  Uiso   1.00
O912   O     0.16667   0.56107   0.87157   0.00000  Uiso   1.00
O913   O     0.09058   0.50000   0.86261   0.00000  Uiso   1.00
O914   O     0.24275   0.50000   0.80405   0.00000  Uiso   1.00
O915   O     0.09058   0.50000   0.78617   0.00000  Uiso   1.00
O916   O     0.24275   0.50000   0.88050   0.00000  Uiso   1.00
Zn917  Zn    0.16667   0.49999   0.88437   0.00000  Uiso   1.00
Zn918  Zn    0.16667   0.50001   0.78229   0.00000  Uiso   1.00
N919   N     0.23109   0.37554   0.77804   0.00000  Uiso   1.00
H920   H     0.21971   0.36671   0.74389   0.00000  Uiso   1.00
H921   H     0.26966   0.36547   0.78808   0.00000  Uiso   1.00
N922   N     0.10225   0.62446   0.88863   0.00000  Uiso   1.00
H923   H     0.06367   0.63447   0.87852   0.00000  Uiso   1.00
H924   H     0.11356   0.63335   0.92276   0.00000  Uiso   1.00
C925   C     0.50078   0.42006   0.83332   0.00000  Uiso   1.00
C926   C     0.49922   0.57994   0.83334   0.00000  Uiso   1.00
C927   C     0.40037   0.49999   0.82135   0.00000  Uiso   1.00
C928   C     0.59963   0.50001   0.84531   0.00000  Uiso   1.00
C929   C     0.34532   0.50001   0.81492   0.00000  Uiso   1.00
C930   C     0.65468   0.49999   0.85175   0.00000  Uiso   1.00
C931   C     0.53131   0.35415   0.80531   0.00000  Uiso   1.00
C932   C     0.46870   0.64585   0.86135   0.00000  Uiso   1.00
C933   C     0.52978   0.64451   0.80552   0.00000  Uiso   1.00
C934   C     0.47022   0.35549   0.86114   0.00000  Uiso   1.00
C935   C     0.49890   0.62406   0.83347   0.00000  Uiso   1.00
C936   C     0.50111   0.37594   0.83320   0.00000  Uiso   1.00
C937   C     0.53176   0.52666   0.69489   0.00000  Uiso   1.00
C938   C     0.46824   0.47334   0.97177   0.00000  Uiso   1.00
C939   C     0.53173   0.52666   0.98029   0.00000  Uiso   1.00
C940   C     0.46827   0.47334   0.68638   0.00000  Uiso   1.00
H941   H     0.65799   0.50005   0.77999   0.00000  Uiso   1.00
H942   H     0.34201   0.49995   0.88667   0.00000  Uiso   1.00
H943   H     0.55340   0.62713   0.78457   0.00000  Uiso   1.00
H944   H     0.44660   0.37287   0.88209   0.00000  Uiso   1.00
H945   H     0.55717   0.54799   0.71643   0.00000  Uiso   1.00
H946   H     0.44283   0.45201   0.95023   0.00000  Uiso   1.00
H947   H     0.55712   0.54798   0.96556   0.00000  Uiso   1.00
H948   H     0.44288   0.45202   0.70110   0.00000  Uiso   1.00
N949   N     0.49999   0.49999   0.95240   0.00000  Uiso   1.00
N950   N     0.50001   0.50001   0.71427   0.00000  Uiso   1.00
O951   O     0.50000   0.43892   0.87154   0.00000  Uiso   1.00
O952   O     0.50000   0.56108   0.79513   0.00000  Uiso   1.00
O953   O     0.50000   0.43893   0.79510   0.00000  Uiso   1.00
O954   O     0.50000   0.56107   0.87157   0.00000  Uiso   1.00
O955   O     0.42392   0.50000   0.86261   0.00000  Uiso   1.00
O956   O     0.57608   0.50000   0.80405   0.00000  Uiso   1.00
O957   O     0.42392   0.50000   0.78617   0.00000  Uiso   1.00
O958   O     0.57608   0.50000   0.88050   0.00000  Uiso   1.00
Zn959  Zn    0.50000   0.49999   0.88437   0.00000  Uiso   1.00
Zn960  Zn    0.50000   0.50001   0.78229   0.00000  Uiso   1.00
N961   N     0.56442   0.37554   0.77804   0.00000  Uiso   1.00
H962   H     0.55304   0.36671   0.74389   0.00000  Uiso   1.00
H963   H     0.60299   0.36547   0.78808   0.00000  Uiso   1.00
N964   N     0.43558   0.62446   0.88863   0.00000  Uiso   1.00
H965   H     0.39700   0.63447   0.87852   0.00000  Uiso   1.00
H966   H     0.44689   0.63335   0.92276   0.00000  Uiso   1.00
C967   C     0.83411   0.42006   0.83332   0.00000  Uiso   1.00
C968   C     0.83256   0.57994   0.83334   0.00000  Uiso   1.00
C969   C     0.73370   0.49999   0.82135   0.00000  Uiso   1.00
C970   C     0.93296   0.50001   0.84531   0.00000  Uiso   1.00
C971   C     0.67865   0.50001   0.81492   0.00000  Uiso   1.00
C972   C     0.98802   0.49999   0.85175   0.00000  Uiso   1.00
C973   C     0.86464   0.35415   0.80531   0.00000  Uiso   1.00
C974   C     0.80203   0.64585   0.86135   0.00000  Uiso   1.00
C975   C     0.86311   0.64451   0.80552   0.00000  Uiso   1.00
C976   C     0.80355   0.35549   0.86114   0.00000  Uiso   1.00
C977   C     0.83223   0.62406   0.83347   0.00000  Uiso   1.00
C978   C     0.83444   0.37594   0.83320   0.00000  Uiso   1.00
C979   C     0.86509   0.52666   0.69489   0.00000  Uiso   1.00
C980   C     0.80158   0.47334   0.97177   0.00000  Uiso   1.00
C981   C     0.86507   0.52666   0.98029   0.00000  Uiso   1.00
C982   C     0.80160   0.47334   0.68638   0.00000  Uiso   1.00
H983   H     0.99133   0.50005   0.77999   0.00000  Uiso   1.00
H984   H     0.67534   0.49995   0.88667   0.00000  Uiso   1.00
H985   H     0.88673   0.62713   0.78457   0.00000  Uiso   1.00
H986   H     0.77993   0.37287   0.88209   0.00000  Uiso   1.00
H987   H     0.89050   0.54799   0.71643   0.00000  Uiso   1.00
H988   H     0.77616   0.45201   0.95023   0.00000  Uiso   1.00
H989   H     0.89045   0.54798   0.96556   0.00000  Uiso   1.00
H990   H     0.77622   0.45202   0.70110   0.00000  Uiso   1.00
N991   N     0.83332   0.49999   0.95240   0.00000  Uiso   1.00
N992   N     0.83335   0.50001   0.71427   0.00000  Uiso   1.00
O993   O     0.83333   0.43892   0.87154   0.00000  Uiso   1.00
O994   O     0.83334   0.56108   0.79513   0.00000  Uiso   1.00
O995   O     0.83333   0.43893   0.79510   0.00000  Uiso   1.00
O996   O     0.83334   0.56107   0.87157   0.00000  Uiso   1.00
O997   O     0.75725   0.50000   0.86261   0.00000  Uiso   1.00
O998   O     0.90942   0.50000   0.80405   0.00000  Uiso   1.00
O999   O     0.75725   0.50000   0.78617   0.00000  Uiso   1.00
O1000  O     0.90942   0.50000   0.88050   0.00000  Uiso   1.00
Zn1001 Zn    0.83333   0.49999   0.88437   0.00000  Uiso   1.00
Zn1002 Zn    0.83333   0.50001   0.78229   0.00000  Uiso   1.00
N1003  N     0.89776   0.37554   0.77804   0.00000  Uiso   1.00
H1004  H     0.88638   0.36671   0.74389   0.00000  Uiso   1.00
H1005  H     0.93633   0.36547   0.78808   0.00000  Uiso   1.00
N1006  N     0.76892   0.62446   0.88863   0.00000  Uiso   1.00
H1007  H     0.73033   0.63447   0.87852   0.00000  Uiso   1.00
H1008  H     0.78022   0.63335   0.92276   0.00000  Uiso   1.00
C1009  C     0.16744   0.75339   0.83332   0.00000  Uiso   1.00
C1010  C     0.16589   0.91327   0.83334   0.00000  Uiso   1.00
C1011  C     0.06704   0.83332   0.82135   0.00000  Uiso   1.00
C1012  C     0.26630   0.83334   0.84531   0.00000  Uiso   1.00
C1013  C     0.01198   0.83334   0.81492   0.00000  Uiso   1.00
C1014  C     0.32135   0.83332   0.85175   0.00000  Uiso   1.00
C1015  C     0.19797   0.68749   0.80531   0.00000  Uiso   1.00
C1016  C     0.13536   0.97918   0.86135   0.00000  Uiso   1.00
C1017  C     0.19645   0.97784   0.80552   0.00000  Uiso   1.00
C1018  C     0.13688   0.68882   0.86114   0.00000  Uiso   1.00
C1019  C     0.16556   0.95740   0.83347   0.00000  Uiso   1.00
C1020  C     0.16777   0.70927   0.83320   0.00000  Uiso   1.00
C1021  C     0.19842   0.85999   0.69489   0.00000  Uiso   1.00
C1022  C     0.13491   0.80667   0.97177   0.00000  Uiso   1.00
C1023  C     0.19840   0.85999   0.98029   0.00000  Uiso   1.00
C1024  C     0.13493   0.80668   0.68638   0.00000  Uiso   1.00
H1025  H     0.32466   0.83338   0.77999   0.00000  Uiso   1.00
H1026  H     0.00867   0.83328   0.88667   0.00000  Uiso   1.00
H1027  H     0.22007   0.96046   0.78457   0.00000  Uiso   1.00
H1028  H     0.11326   0.70621   0.88209   0.00000  Uiso   1.00
H1029  H     0.22384   0.88132   0.71643   0.00000  Uiso   1.00
H1030  H     0.10950   0.78535   0.95023   0.00000  Uiso   1.00
H1031  H     0.22378   0.88131   0.96556   0.00000  Uiso   1.00
H1032  H     0.10955   0.78535   0.70110   0.00000  Uiso   1.00
N1033  N     0.16665   0.83332   0.95240   0.00000  Uiso   1.00
N1034  N     0.16668   0.83334   0.71427   0.00000  Uiso   1.00
O1035  O     0.16666   0.77225   0.87154   0.00000  Uiso   1.00
O1036  O     0.16667   0.89442   0.79513   0.00000  Uiso   1.00
O1037  O     0.16666   0.77226   0.79510   0.00000  Uiso   1.00
O1038  O     0.16667   0.89441   0.87157   0.00000  Uiso   1.00
O1039  O     0.09058   0.83333   0.86261   0.00000  Uiso   1.00
O1040  O     0.24275   0.83334   0.80405   0.00000  Uiso   1.00
O1041  O     0.09058   0.83334   0.78617   0.00000  Uiso   1.00
O1042  O     0.24275   0.83333   0.88050   0.00000  Uiso   1.00
Zn1043 Zn    0.16667   0.83333   0.88437   0.00000  Uiso   1.00
Zn1044 Zn    0.16667   0.83334   0.78229   0.00000  Uiso   1.00
N1045  N     0.23109   0.70888   0.77804   0.00000  Uiso   1.00
H1046  H     0.21971   0.70005   0.74389   0.00000  Uiso   1.00
H1047  H     0.26966   0.69880   0.78808   0.00000  Uiso   1.00
N1048  N     0.10225   0.95779   0.88863   0.00000  Uiso   1.00
H1049  H     0.06367   0.96780   0.87852   0.00000  Uiso   1.00
H1050  H     0.11356   0.96668   0.92276   0.00000  Uiso   1.00
C1051  C     0.50078   0.75339   0.83332   0.00000  Uiso   1.00
C1052  C     0.49922   0.91327   0.83334   0.00000  Uiso   1.00
C1053  C     0.40037   0.83332   0.82135   0.00000  Uiso   1.00
C1054  C     0.59963   0.83334   0.84531   0.00000  Uiso   1.00
C1055  C     0.34532   0.83334   0.81492   0.00000  Uiso   1.00
C1056  C     0.65468   0.83332   0.85175   0.00000  Uiso   1.00
C1057  C     0.53131   0.68749   0.80531   0.00000  Uiso   1.00
C1058  C     0.46870   0.97918   0.86135   0.00000  Uiso   1.00
C1059  C     0.52978   0.97784   0.80552   0.00000  Uiso   1.00
C1060  C     0.47022   0.68882   0.86114   0.00000  Uiso   1.00
C1061  C     0.49890   0.95740   0.83347   0.00000  Uiso   1.00
C1062  C     0.50111   0.70927   0.83320   0.00000  Uiso   1.00
C1063  C     0.53176   0.85999   0.69489   0.00000  Uiso   1.00
C1064  C     0.46824   0.80667   0.97177   0.00000  Uiso   1.00
C1065  C     0.53173   0.85999   0.98029   0.00000  Uiso   1.00
C1066  C     0.46827   0.80668   0.68638   0.00000  Uiso   1.00
H1067  H     0.65799   0.83338   0.77999   0.00000  Uiso   1.00
H1068  H     0.34201   0.83328   0.88667   0.00000  Uiso   1.00
H1069  H     0.55340   0.96046   0.78457   0.00000  Uiso   1.00
H1070  H     0.44660   0.70621   0.88209   0.00000  Uiso   1.00
H1071  H     0.55717   0.88132   0.71643   0.00000  Uiso   1.00
H1072  H     0.44283   0.78535   0.95023   0.00000  Uiso   1.00
H1073  H     0.55712   0.88131   0.96556   0.00000  Uiso   1.00
H1074  H     0.44288   0.78535   0.70110   0.00000  Uiso   1.00
N1075  N     0.49999   0.83332   0.95240   0.00000  Uiso   1.00
N1076  N     0.50001   0.83334   0.71427   0.00000  Uiso   1.00
O1077  O     0.50000   0.77225   0.87154   0.00000  Uiso   1.00
O1078  O     0.50000   0.89442   0.79513   0.00000  Uiso   1.00
O1079  O     0.50000   0.77226   0.79510   0.00000  Uiso   1.00
O1080  O     0.50000   0.89441   0.87157   0.00000  Uiso   1.00
O1081  O     0.42392   0.83333   0.86261   0.00000  Uiso   1.00
O1082  O     0.57608   0.83334   0.80405   0.00000  Uiso   1.00
O1083  O     0.42392   0.83334   0.78617   0.00000  Uiso   1.00
O1084  O     0.57608   0.83333   0.88050   0.00000  Uiso   1.00
Zn1085 Zn    0.50000   0.83333   0.88437   0.00000  Uiso   1.00
Zn1086 Zn    0.50000   0.83334   0.78229   0.00000  Uiso   1.00
N1087  N     0.56442   0.70888   0.77804   0.00000  Uiso   1.00
H1088  H     0.55304   0.70005   0.74389   0.00000  Uiso   1.00
H1089  H     0.60299   0.69880   0.78808   0.00000  Uiso   1.00
N1090  N     0.43558   0.95779   0.88863   0.00000  Uiso   1.00
H1091  H     0.39700   0.96780   0.87852   0.00000  Uiso   1.00
H1092  H     0.44689   0.96668   0.92276   0.00000  Uiso   1.00
C1093  C     0.83411   0.75339   0.83332   0.00000  Uiso   1.00
C1094  C     0.83256   0.91327   0.83334   0.00000  Uiso   1.00
C1095  C     0.73370   0.83332   0.82135   0.00000  Uiso   1.00
C1096  C     0.93296   0.83334   0.84531   0.00000  Uiso   1.00
C1097  C     0.67865   0.83334   0.81492   0.00000  Uiso   1.00
C1098  C     0.98802   0.83332   0.85175   0.00000  Uiso   1.00
C1099  C     0.86464   0.68749   0.80531   0.00000  Uiso   1.00
C1100  C     0.80203   0.97918   0.86135   0.00000  Uiso   1.00
C1101  C     0.86311   0.97784   0.80552   0.00000  Uiso   1.00
C1102  C     0.80355   0.68882   0.86114   0.00000  Uiso   1.00
C1103  C     0.83223   0.95740   0.83347   0.00000  Uiso   1.00
C1104  C     0.83444   0.70927   0.83320   0.00000  Uiso   1.00
C1105  C     0.86509   0.85999   0.69489   0.00000  Uiso   1.00
C1106  C     0.80158   0.80667   0.97177   0.00000  Uiso   1.00
C1107  C     0.86507   0.85999   0.98029   0.00000  Uiso   1.00
C1108  C     0.80160   0.80668   0.68638   0.00000  Uiso   1.00
H1109  H     0.99133   0.83338   0.77999   0.00000  Uiso   1.00
H1110  H     0.67534   0.83328   0.88667   0.00000  Uiso   1.00
H1111  H     0.88673   0.96046   0.78457   0.00000  Uiso   1.00
H1112  H     0.77993   0.70621   0.88209   0.00000  Uiso   1.00
H1113  H     0.89050   0.88132   0.71643   0.00000  Uiso   1.00
H1114  H     0.77616   0.78535   0.95023   0.00000  Uiso   1.00
H1115  H     0.89045   0.88131   0.96556   0.00000  Uiso   1.00
H1116  H     0.77622   0.78535   0.70110   0.00000  Uiso   1.00
N1117  N     0.83332   0.83332   0.95240   0.00000  Uiso   1.00
N1118  N     0.83335   0.83334   0.71427   0.00000  Uiso   1.00
O1119  O     0.83333   0.77225   0.87154   0.00000  Uiso   1.00
O1120  O     0.83334   0.89442   0.79513   0.00000  Uiso   1.00
O1121  O     0.83333   0.77226   0.79510   0.00000  Uiso   1.00
O1122  O     0.83334   0.89441   0.87157   0.00000  Uiso   1.00
O1123  O     0.75725   0.83333   0.86261   0.00000  Uiso   1.00
O1124  O     0.90942   0.83334   0.80405   0.00000  Uiso   1.00
O1125  O     0.75725   0.83334   0.78617   0.00000  Uiso   1.00
O1126  O     0.90942   0.83333   0.88050   0.00000  Uiso   1.00
Zn1127 Zn    0.83333   0.83333   0.88437   0.00000  Uiso   1.00
Zn1128 Zn    0.83333   0.83334   0.78229   0.00000  Uiso   1.00
N1129  N     0.89776   0.70888   0.77804   0.00000  Uiso   1.00
H1130  H     0.88638   0.70005   0.74389   0.00000  Uiso   1.00
H1131  H     0.93633   0.69880   0.78808   0.00000  Uiso   1.00
N1132  N     0.76892   0.95779   0.88863   0.00000  Uiso   1.00
H1133  H     0.73033   0.96780   0.87852   0.00000  Uiso   1.00
H1134  H     0.78022   0.96668   0.92276   0.00000  Uiso   1.00
loop_
_geom_bond_atom_site_label_1
_geom_bond_atom_site_label_2
_geom_bond_distance
_geom_bond_site_symmetry_2
_ccdc_geom_bond_type
C1     O29     1.281   .     A
C1     C12     1.413   .     S
C1     O27     1.282   .     A
C2     O30     1.281   .     A
C2     C11     1.413   .     S
C2     O28     1.282   .     A
C3     O31     1.278   .     A
C3     O33     1.281   .     A
C3     C5      1.403   .     S
C4     O34     1.281   .     A
C4     O32     1.278   .     A
C4     C6      1.403   .     S
C5     C90     1.331   1_455 S
C5     H101    1.088   1_455 S
C6     C47     1.331   .     S
C6     H60     1.088   .     S
C7     N37     1.434   .     S
C7     C12     1.402   .     A
C7     C261    1.377   1_545 S
C8     C11     1.402   .     A
C8     N40     1.434   .     S
C8     C136    1.377   .     S
C9     C11     1.395   .     A
C9     H19     1.085   .     S
C9     C133    1.377   .     S
C10    C12     1.395   .     A
C10    H20     1.085   .     S
C10    C260    1.377   1_545 S
C13    H21     1.082   .     S
C13    N26     1.367   .     A
C13    C771    1.417   1_554 S
C14    H22     1.082   .     S
C14    N25     1.367   .     A
C14    C394    1.417   .     S
C15    H23     1.082   .     S
C15    N25     1.367   .     A
C15    C391    1.417   .     S
C16    H24     1.082   .     S
C16    N26     1.367   .     A
C16    C770    1.417   1_554 S
H17    C47     1.088   .     S
H18    C90     1.088   1_455 S
N25    Zn35    2.011   .     S
N26    Zn36    2.011   .     S
O27    Zn35    1.991   .     S
O28    Zn36    1.991   .     S
O29    Zn36    1.994   .     S
O30    Zn35    1.994   .     S
O31    Zn35    1.969   .     S
O32    Zn36    1.969   .     S
O33    Zn36    1.982   .     S
O34    Zn35    1.982   .     S
N37    H38     1.046   .     S
N37    H39     1.046   .     S
N40    H41     1.046   .     S
N40    H42     1.046   .     S
C43    O71     1.281   .     A
C43    C54     1.413   .     S
C43    O69     1.282   .     A
C44    O72     1.281   .     A
C44    C53     1.413   .     S
C44    O70     1.282   .     A
C45    O73     1.278   .     A
C45    O75     1.281   .     A
C45    C47     1.403   .     S
C46    O76     1.281   .     A
C46    O74     1.278   .     A
C46    C48     1.403   .     S
C48    C89     1.331   .     S
C48    H102    1.088   .     S
C49    N79     1.434   .     S
C49    C54     1.402   .     A
C49    C303    1.377   1_545 S
C50    C53     1.402   .     A
C50    N82     1.434   .     S
C50    C178    1.377   .     S
C51    C53     1.395   .     A
C51    H61     1.085   .     S
C51    C175    1.377   .     S
C52    C54     1.395   .     A
C52    H62     1.085   .     S
C52    C302    1.377   1_545 S
C55    H63     1.082   .     S
C55    N68     1.367   .     A
C55    C813    1.417   1_554 S
C56    H64     1.082   .     S
C56    N67     1.367   .     A
C56    C436    1.417   .     S
C57    H65     1.082   .     S
C57    N67     1.367   .     A
C57    C433    1.417   .     S
C58    H66     1.082   .     S
C58    N68     1.367   .     A
C58    C812    1.417   1_554 S
H59    C89     1.088   .     S
N67    Zn77    2.011   .     S
N68    Zn78    2.011   .     S
O69    Zn77    1.991   .     S
O70    Zn78    1.991   .     S
O71    Zn78    1.994   .     S
O72    Zn77    1.994   .     S
O73    Zn77    1.969   .     S
O74    Zn78    1.969   .     S
O75    Zn78    1.982   .     S
O76    Zn77    1.982   .     S
N79    H80     1.046   .     S
N79    H81     1.046   .     S
N82    H83     1.046   .     S
N82    H84     1.046   .     S
C85    O113    1.281   .     A
C85    C96     1.413   .     S
C85    O111    1.282   .     A
C86    O114    1.281   .     A
C86    C95     1.413   .     S
C86    O112    1.282   .     A
C87    O115    1.278   .     A
C87    O117    1.281   .     A
C87    C89     1.403   .     S
C88    O118    1.281   .     A
C88    O116    1.278   .     A
C88    C90     1.403   .     S
C90    C5      1.331   1_655 S
C90    H18     1.088   1_655 S
C91    N121    1.434   .     S
C91    C96     1.402   .     A
C91    C345    1.377   1_545 S
C92    C95     1.402   .     A
C92    N124    1.434   .     S
C92    C220    1.377   .     S
C93    C95     1.395   .     A
C93    H103    1.085   .     S
C93    C217    1.377   .     S
C94    C96     1.395   .     A
C94    H104    1.085   .     S
C94    C344    1.377   1_545 S
C97    H105    1.082   .     S
C97    N110    1.367   .     A
C97    C855    1.417   1_554 S
C98    H106    1.082   .     S
C98    N109    1.367   .     A
C98    C478    1.417   .     S
C99    H107    1.082   .     S
C99    N109    1.367   .     A
C99    C475    1.417   .     S
C100   H108    1.082   .     S
C100   N110    1.367   .     A
C100   C854    1.417   1_554 S
H101   C5      1.088   1_655 S
N109   Zn119   2.011   .     S
N110   Zn120   2.011   .     S
O111   Zn119   1.991   .     S
O112   Zn120   1.991   .     S
O113   Zn120   1.994   .     S
O114   Zn119   1.994   .     S
O115   Zn119   1.969   .     S
O116   Zn120   1.969   .     S
O117   Zn120   1.982   .     S
O118   Zn119   1.982   .     S
N121   H122    1.046   .     S
N121   H123    1.046   .     S
N124   H125    1.046   .     S
N124   H126    1.046   .     S
C127   O155    1.281   .     A
C127   C138    1.413   .     S
C127   O153    1.282   .     A
C128   O156    1.281   .     A
C128   C137    1.413   .     S
C128   O154    1.282   .     A
C129   O157    1.278   .     A
C129   O159    1.281   .     A
C129   C131    1.403   .     S
C130   O160    1.281   .     A
C130   O158    1.278   .     A
C130   C132    1.403   .     S
C131   C216    1.331   1_455 S
C131   H227    1.088   1_455 S
C132   C173    1.331   .     S
C132   H186    1.088   .     S
C133   N163    1.434   .     S
C133   C138    1.402   .     A
C134   C137    1.402   .     A
C134   N166    1.434   .     S
C134   C262    1.377   .     S
C135   C137    1.395   .     A
C135   H145    1.085   .     S
C135   C259    1.377   .     S
C136   C138    1.395   .     A
C136   H146    1.085   .     S
C139   H147    1.082   .     S
C139   N152    1.367   .     A
C139   C897    1.417   1_554 S
C140   H148    1.082   .     S
C140   N151    1.367   .     A
C140   C520    1.417   .     S
C141   H149    1.082   .     S
C141   N151    1.367   .     A
C141   C517    1.417   .     S
C142   H150    1.082   .     S
C142   N152    1.367   .     A
C142   C896    1.417   1_554 S
H143   C173    1.088   .     S
H144   C216    1.088   1_455 S
N151   Zn161   2.011   .     S
N152   Zn162   2.011   .     S
O153   Zn161   1.991   .     S
O154   Zn162   1.991   .     S
O155   Zn162   1.994   .     S
O156   Zn161   1.994   .     S
O157   Zn161   1.969   .     S
O158   Zn162   1.969   .     S
O159   Zn162   1.982   .     S
O160   Zn161   1.982   .     S
N163   H164    1.046   .     S
N163   H165    1.046   .     S
N166   H167    1.046   .     S
N166   H168    1.046   .     S
C169   O197    1.281   .     A
C169   C180    1.413   .     S
C169   O195    1.282   .     A
C170   O198    1.281   .     A
C170   C179    1.413   .     S
C170   O196    1.282   .     A
C171   O199    1.278   .     A
C171   O201    1.281   .     A
C171   C173    1.403   .     S
C172   O202    1.281   .     A
C172   O200    1.278   .     A
C172   C174    1.403   .     S
C174   C215    1.331   .     S
C174   H228    1.088   .     S
C175   N205    1.434   .     S
C175   C180    1.402   .     A
C176   C179    1.402   .     A
C176   N208    1.434   .     S
C176   C304    1.377   .     S
C177   C179    1.395   .     A
C177   H187    1.085   .     S
C177   C301    1.377   .     S
C178   C180    1.395   .     A
C178   H188    1.085   .     S
C181   H189    1.082   .     S
C181   N194    1.367   .     A
C181   C939    1.417   1_554 S
C182   H190    1.082   .     S
C182   N193    1.367   .     A
C182   C562    1.417   .     S
C183   H191    1.082   .     S
C183   N193    1.367   .     A
C183   C559    1.417   .     S
C184   H192    1.082   .     S
C184   N194    1.367   .     A
C184   C938    1.417   1_554 S
H185   C215    1.088   .     S
N193   Zn203   2.011   .     S
N194   Zn204   2.011   .     S
O195   Zn203   1.991   .     S
O196   Zn204   1.991   .     S
O197   Zn204   1.994   .     S
O198   Zn203   1.994   .     S
O199   Zn203   1.969   .     S
O200   Zn204   1.969   .     S
O201   Zn204   1.982   .     S
O202   Zn203   1.982   .     S
N205   H206    1.046   .     S
N205   H207    1.046   .     S
N208   H209    1.046   .     S
N208   H210    1.046   .     S
C211   O239    1.281   .     A
C211   C222    1.413   .     S
C211   O237    1.282   .     A
C212   O240    1.281   .     A
C212   C221    1.413   .     S
C212   O238    1.282   .     A
C213   O241    1.278   .     A
C213   O243    1.281   .     A
C213   C215    1.403   .     S
C214   O244    1.281   .     A
C214   O242    1.278   .     A
C214   C216    1.403   .     S
C216   C131    1.331   1_655 S
C216   H144    1.088   1_655 S
C217   N247    1.434   .     S
C217   C222    1.402   .     A
C218   C221    1.402   .     A
C218   N250    1.434   .     S
C218   C346    1.377   .     S
C219   C221    1.395   .     A
C219   H229    1.085   .     S
C219   C343    1.377   .     S
C220   C222    1.395   .     A
C220   H230    1.085   .     S
C223   H231    1.082   .     S
C223   N236    1.367   .     A
C223   C981    1.417   1_554 S
C224   H232    1.082   .     S
C224   N235    1.367   .     A
C224   C604    1.417   .     S
C225   H233    1.082   .     S
C225   N235    1.367   .     A
C225   C601    1.417   .     S
C226   H234    1.082   .     S
C226   N236    1.367   .     A
C226   C980    1.417   1_554 S
H227   C131    1.088   1_655 S
N235   Zn245   2.011   .     S
N236   Zn246   2.011   .     S
O237   Zn245   1.991   .     S
O238   Zn246   1.991   .     S
O239   Zn246   1.994   .     S
O240   Zn245   1.994   .     S
O241   Zn245   1.969   .     S
O242   Zn246   1.969   .     S
O243   Zn246   1.982   .     S
O244   Zn245   1.982   .     S
N247   H248    1.046   .     S
N247   H249    1.046   .     S
N250   H251    1.046   .     S
N250   H252    1.046   .     S
C253   O281    1.281   .     A
C253   C264    1.413   .     S
C253   O279    1.282   .     A
C254   O282    1.281   .     A
C254   C263    1.413   .     S
C254   O280    1.282   .     A
C255   O283    1.278   .     A
C255   O285    1.281   .     A
C255   C257    1.403   .     S
C256   O286    1.281   .     A
C256   O284    1.278   .     A
C256   C258    1.403   .     S
C257   C342    1.331   1_455 S
C257   H353    1.088   1_455 S
C258   C299    1.331   .     S
C258   H312    1.088   .     S
C259   N289    1.434   .     S
C259   C264    1.402   .     A
C260   C263    1.402   .     A
C260   N292    1.434   .     S
C260   C10     1.377   1_565 S
C261   C263    1.395   .     A
C261   H271    1.085   .     S
C261   C7      1.377   1_565 S
C262   C264    1.395   .     A
C262   H272    1.085   .     S
C265   H273    1.082   .     S
C265   N278    1.367   .     A
C265   C1023   1.417   1_554 S
C266   H274    1.082   .     S
C266   N277    1.367   .     A
C266   C646    1.417   .     S
C267   H275    1.082   .     S
C267   N277    1.367   .     A
C267   C643    1.417   .     S
C268   H276    1.082   .     S
C268   N278    1.367   .     A
C268   C1022   1.417   1_554 S
H269   C299    1.088   .     S
H270   C342    1.088   1_455 S
N277   Zn287   2.011   .     S
N278   Zn288   2.011   .     S
O279   Zn287   1.991   .     S
O280   Zn288   1.991   .     S
O281   Zn288   1.994   .     S
O282   Zn287   1.994   .     S
O283   Zn287   1.969   .     S
O284   Zn288   1.969   .     S
O285   Zn288   1.982   .     S
O286   Zn287   1.982   .     S
N289   H290    1.046   .     S
N289   H291    1.046   .     S
N292   H293    1.046   .     S
N292   H294    1.046   .     S
C295   O323    1.281   .     A
C295   C306    1.413   .     S
C295   O321    1.282   .     A
C296   O324    1.281   .     A
C296   C305    1.413   .     S
C296   O322    1.282   .     A
C297   O325    1.278   .     A
C297   O327    1.281   .     A
C297   C299    1.403   .     S
C298   O328    1.281   .     A
C298   O326    1.278   .     A
C298   C300    1.403   .     S
C300   C341    1.331   .     S
C300   H354    1.088   .     S
C301   N331    1.434   .     S
C301   C306    1.402   .     A
C302   C305    1.402   .     A
C302   N334    1.434   .     S
C302   C52     1.377   1_565 S
C303   C305    1.395   .     A
C303   H313    1.085   .     S
C303   C49     1.377   1_565 S
C304   C306    1.395   .     A
C304   H314    1.085   .     S
C307   H315    1.082   .     S
C307   N320    1.367   .     A
C307   C1065   1.417   1_554 S
C308   H316    1.082   .     S
C308   N319    1.367   .     A
C308   C688    1.417   .     S
C309   H317    1.082   .     S
C309   N319    1.367   .     A
C309   C685    1.417   .     S
C310   H318    1.082   .     S
C310   N320    1.367   .     A
C310   C1064   1.417   1_554 S
H311   C341    1.088   .     S
N319   Zn329   2.011   .     S
N320   Zn330   2.011   .     S
O321   Zn329   1.991   .     S
O322   Zn330   1.991   .     S
O323   Zn330   1.994   .     S
O324   Zn329   1.994   .     S
O325   Zn329   1.969   .     S
O326   Zn330   1.969   .     S
O327   Zn330   1.982   .     S
O328   Zn329   1.982   .     S
N331   H332    1.046   .     S
N331   H333    1.046   .     S
N334   H335    1.046   .     S
N334   H336    1.046   .     S
C337   O365    1.281   .     A
C337   C348    1.413   .     S
C337   O363    1.282   .     A
C338   O366    1.281   .     A
C338   C347    1.413   .     S
C338   O364    1.282   .     A
C339   O367    1.278   .     A
C339   O369    1.281   .     A
C339   C341    1.403   .     S
C340   O370    1.281   .     A
C340   O368    1.278   .     A
C340   C342    1.403   .     S
C342   C257    1.331   1_655 S
C342   H270    1.088   1_655 S
C343   N373    1.434   .     S
C343   C348    1.402   .     A
C344   C347    1.402   .     A
C344   N376    1.434   .     S
C344   C94     1.377   1_565 S
C345   C347    1.395   .     A
C345   H355    1.085   .     S
C345   C91     1.377   1_565 S
C346   C348    1.395   .     A
C346   H356    1.085   .     S
C349   H357    1.082   .     S
C349   N362    1.367   .     A
C349   C1107   1.417   1_554 S
C350   H358    1.082   .     S
C350   N361    1.367   .     A
C350   C730    1.417   .     S
C351   H359    1.082   .     S
C351   N361    1.367   .     A
C351   C727    1.417   .     S
C352   H360    1.082   .     S
C352   N362    1.367   .     A
C352   C1106   1.417   1_554 S
H353   C257    1.088   1_655 S
N361   Zn371   2.011   .     S
N362   Zn372   2.011   .     S
O363   Zn371   1.991   .     S
O364   Zn372   1.991   .     S
O365   Zn372   1.994   .     S
O366   Zn371   1.994   .     S
O367   Zn371   1.969   .     S
O368   Zn372   1.969   .     S
O369   Zn372   1.982   .     S
O370   Zn371   1.982   .     S
N373   H374    1.046   .     S
N373   H375    1.046   .     S
N376   H377    1.046   .     S
N376   H378    1.046   .     S
C379   O407    1.281   .     A
C379   C390    1.413   .     S
C379   O405    1.282   .     A
C380   O408    1.281   .     A
C380   C389    1.413   .     S
C380   O406    1.282   .     A
C381   O409    1.278   .     A
C381   O411    1.281   .     A
C381   C383    1.403   .     S
C382   O412    1.281   .     A
C382   O410    1.278   .     A
C382   C384    1.403   .     S
C383   C468    1.331   1_455 S
C383   H479    1.088   1_455 S
C384   C425    1.331   .     S
C384   H438    1.088   .     S
C385   N415    1.434   .     S
C385   C390    1.402   .     A
C385   C639    1.377   1_545 S
C386   C389    1.402   .     A
C386   N418    1.434   .     S
C386   C514    1.377   .     S
C387   C389    1.395   .     A
C387   H397    1.085   .     S
C387   C511    1.377   .     S
C388   C390    1.395   .     A
C388   H398    1.085   .     S
C388   C638    1.377   1_545 S
C391   H399    1.082   .     S
C391   N404    1.367   .     A
C392   H400    1.082   .     S
C392   N403    1.367   .     A
C392   C772    1.417   .     S
C393   H401    1.082   .     S
C393   N403    1.367   .     A
C393   C769    1.417   .     S
C394   H402    1.082   .     S
C394   N404    1.367   .     A
H395   C425    1.088   .     S
H396   C468    1.088   1_455 S
N403   Zn413   2.011   .     S
N404   Zn414   2.011   .     S
O405   Zn413   1.991   .     S
O406   Zn414   1.991   .     S
O407   Zn414   1.994   .     S
O408   Zn413   1.994   .     S
O409   Zn413   1.969   .     S
O410   Zn414   1.969   .     S
O411   Zn414   1.982   .     S
O412   Zn413   1.982   .     S
N415   H416    1.046   .     S
N415   H417    1.046   .     S
N418   H419    1.046   .     S
N418   H420    1.046   .     S
C421   O449    1.281   .     A
C421   C432    1.413   .     S
C421   O447    1.282   .     A
C422   O450    1.281   .     A
C422   C431    1.413   .     S
C422   O448    1.282   .     A
C423   O451    1.278   .     A
C423   O453    1.281   .     A
C423   C425    1.403   .     S
C424   O454    1.281   .     A
C424   O452    1.278   .     A
C424   C426    1.403   .     S
C426   C467    1.331   .     S
C426   H480    1.088   .     S
C427   N457    1.434   .     S
C427   C432    1.402   .     A
C427   C681    1.377   1_545 S
C428   C431    1.402   .     A
C428   N460    1.434   .     S
C428   C556    1.377   .     S
C429   C431    1.395   .     A
C429   H439    1.085   .     S
C429   C553    1.377   .     S
C430   C432    1.395   .     A
C430   H440    1.085   .     S
C430   C680    1.377   1_545 S
C433   H441    1.082   .     S
C433   N446    1.367   .     A
C434   H442    1.082   .     S
C434   N445    1.367   .     A
C434   C814    1.417   .     S
C435   H443    1.082   .     S
C435   N445    1.367   .     A
C435   C811    1.417   .     S
C436   H444    1.082   .     S
C436   N446    1.367   .     A
H437   C467    1.088   .     S
N445   Zn455   2.011   .     S
N446   Zn456   2.011   .     S
O447   Zn455   1.991   .     S
O448   Zn456   1.991   .     S
O449   Zn456   1.994   .     S
O450   Zn455   1.994   .     S
O451   Zn455   1.969   .     S
O452   Zn456   1.969   .     S
O453   Zn456   1.982   .     S
O454   Zn455   1.982   .     S
N457   H458    1.046   .     S
N457   H459    1.046   .     S
N460   H461    1.046   .     S
N460   H462    1.046   .     S
C463   O491    1.281   .     A
C463   C474    1.413   .     S
C463   O489    1.282   .     A
C464   O492    1.281   .     A
C464   C473    1.413   .     S
C464   O490    1.282   .     A
C465   O493    1.278   .     A
C465   O495    1.281   .     A
C465   C467    1.403   .     S
C466   O496    1.281   .     A
C466   O494    1.278   .     A
C466   C468    1.403   .     S
C468   C383    1.331   1_655 S
C468   H396    1.088   1_655 S
C469   N499    1.434   .     S
C469   C474    1.402   .     A
C469   C723    1.377   1_545 S
C470   C473    1.402   .     A
C470   N502    1.434   .     S
C470   C598    1.377   .     S
C471   C473    1.395   .     A
C471   H481    1.085   .     S
C471   C595    1.377   .     S
C472   C474    1.395   .     A
C472   H482    1.085   .     S
C472   C722    1.377   1_545 S
C475   H483    1.082   .     S
C475   N488    1.367   .     A
C476   H484    1.082   .     S
C476   N487    1.367   .     A
C476   C856    1.417   .     S
C477   H485    1.082   .     S
C477   N487    1.367   .     A
C477   C853    1.417   .     S
C478   H486    1.082   .     S
C478   N488    1.367   .     A
H479   C383    1.088   1_655 S
N487   Zn497   2.011   .     S
N488   Zn498   2.011   .     S
O489   Zn497   1.991   .     S
O490   Zn498   1.991   .     S
O491   Zn498   1.994   .     S
O492   Zn497   1.994   .     S
O493   Zn497   1.969   .     S
O494   Zn498   1.969   .     S
O495   Zn498   1.982   .     S
O496   Zn497   1.982   .     S
N499   H500    1.046   .     S
N499   H501    1.046   .     S
N502   H503    1.046   .     S
N502   H504    1.046   .     S
C505   O533    1.281   .     A
C505   C516    1.413   .     S
C505   O531    1.282   .     A
C506   O534    1.281   .     A
C506   C515    1.413   .     S
C506   O532    1.282   .     A
C507   O535    1.278   .     A
C507   O537    1.281   .     A
C507   C509    1.403   .     S
C508   O538    1.281   .     A
C508   O536    1.278   .     A
C508   C510    1.403   .     S
C509   C594    1.331   1_455 S
C509   H605    1.088   1_455 S
C510   C551    1.331   .     S
C510   H564    1.088   .     S
C511   N541    1.434   .     S
C511   C516    1.402   .     A
C512   C515    1.402   .     A
C512   N544    1.434   .     S
C512   C640    1.377   .     S
C513   C515    1.395   .     A
C513   H523    1.085   .     S
C513   C637    1.377   .     S
C514   C516    1.395   .     A
C514   H524    1.085   .     S
C517   H525    1.082   .     S
C517   N530    1.367   .     A
C518   H526    1.082   .     S
C518   N529    1.367   .     A
C518   C898    1.417   .     S
C519   H527    1.082   .     S
C519   N529    1.367   .     A
C519   C895    1.417   .     S
C520   H528    1.082   .     S
C520   N530    1.367   .     A
H521   C551    1.088   .     S
H522   C594    1.088   1_455 S
N529   Zn539   2.011   .     S
N530   Zn540   2.011   .     S
O531   Zn539   1.991   .     S
O532   Zn540   1.991   .     S
O533   Zn540   1.994   .     S
O534   Zn539   1.994   .     S
O535   Zn539   1.969   .     S
O536   Zn540   1.969   .     S
O537   Zn540   1.982   .     S
O538   Zn539   1.982   .     S
N541   H542    1.046   .     S
N541   H543    1.046   .     S
N544   H545    1.046   .     S
N544   H546    1.046   .     S
C547   O575    1.281   .     A
C547   C558    1.413   .     S
C547   O573    1.282   .     A
C548   O576    1.281   .     A
C548   C557    1.413   .     S
C548   O574    1.282   .     A
C549   O577    1.278   .     A
C549   O579    1.281   .     A
C549   C551    1.403   .     S
C550   O580    1.281   .     A
C550   O578    1.278   .     A
C550   C552    1.403   .     S
C552   C593    1.331   .     S
C552   H606    1.088   .     S
C553   N583    1.434   .     S
C553   C558    1.402   .     A
C554   C557    1.402   .     A
C554   N586    1.434   .     S
C554   C682    1.377   .     S
C555   C557    1.395   .     A
C555   H565    1.085   .     S
C555   C679    1.377   .     S
C556   C558    1.395   .     A
C556   H566    1.085   .     S
C559   H567    1.082   .     S
C559   N572    1.367   .     A
C560   H568    1.082   .     S
C560   N571    1.367   .     A
C560   C940    1.417   .     S
C561   H569    1.082   .     S
C561   N571    1.367   .     A
C561   C937    1.417   .     S
C562   H570    1.082   .     S
C562   N572    1.367   .     A
H563   C593    1.088   .     S
N571   Zn581   2.011   .     S
N572   Zn582   2.011   .     S
O573   Zn581   1.991   .     S
O574   Zn582   1.991   .     S
O575   Zn582   1.994   .     S
O576   Zn581   1.994   .     S
O577   Zn581   1.969   .     S
O578   Zn582   1.969   .     S
O579   Zn582   1.982   .     S
O580   Zn581   1.982   .     S
N583   H584    1.046   .     S
N583   H585    1.046   .     S
N586   H587    1.046   .     S
N586   H588    1.046   .     S
C589   O617    1.281   .     A
C589   C600    1.413   .     S
C589   O615    1.282   .     A
C590   O618    1.281   .     A
C590   C599    1.413   .     S
C590   O616    1.282   .     A
C591   O619    1.278   .     A
C591   O621    1.281   .     A
C591   C593    1.403   .     S
C592   O622    1.281   .     A
C592   O620    1.278   .     A
C592   C594    1.403   .     S
C594   C509    1.331   1_655 S
C594   H522    1.088   1_655 S
C595   N625    1.434   .     S
C595   C600    1.402   .     A
C596   C599    1.402   .     A
C596   N628    1.434   .     S
C596   C724    1.377   .     S
C597   C599    1.395   .     A
C597   H607    1.085   .     S
C597   C721    1.377   .     S
C598   C600    1.395   .     A
C598   H608    1.085   .     S
C601   H609    1.082   .     S
C601   N614    1.367   .     A
C602   H610    1.082   .     S
C602   N613    1.367   .     A
C602   C982    1.417   .     S
C603   H611    1.082   .     S
C603   N613    1.367   .     A
C603   C979    1.417   .     S
C604   H612    1.082   .     S
C604   N614    1.367   .     A
H605   C509    1.088   1_655 S
N613   Zn623   2.011   .     S
N614   Zn624   2.011   .     S
O615   Zn623   1.991   .     S
O616   Zn624   1.991   .     S
O617   Zn624   1.994   .     S
O618   Zn623   1.994   .     S
O619   Zn623   1.969   .     S
O620   Zn624   1.969   .     S
O621   Zn624   1.982   .     S
O622   Zn623   1.982   .     S
N625   H626    1.046   .     S
N625   H627    1.046   .     S
N628   H629    1.046   .     S
N628   H630    1.046   .     S
C631   O659    1.281   .     A
C631   C642    1.413   .     S
C631   O657    1.282   .     A
C632   O660    1.281   .     A
C632   C641    1.413   .     S
C632   O658    1.282   .     A
C633   O661    1.278   .     A
C633   O663    1.281   .     A
C633   C635    1.403   .     S
C634   O664    1.281   .     A
C634   O662    1.278   .     A
C634   C636    1.403   .     S
C635   C720    1.331   1_455 S
C635   H731    1.088   1_455 S
C636   C677    1.331   .     S
C636   H690    1.088   .     S
C637   N667    1.434   .     S
C637   C642    1.402   .     A
C638   C641    1.402   .     A
C638   N670    1.434   .     S
C638   C388    1.377   1_565 S
C639   C641    1.395   .     A
C639   H649    1.085   .     S
C639   C385    1.377   1_565 S
C640   C642    1.395   .     A
C640   H650    1.085   .     S
C643   H651    1.082   .     S
C643   N656    1.367   .     A
C644   H652    1.082   .     S
C644   N655    1.367   .     A
C644   C1024   1.417   .     S
C645   H653    1.082   .     S
C645   N655    1.367   .     A
C645   C1021   1.417   .     S
C646   H654    1.082   .     S
C646   N656    1.367   .     A
H647   C677    1.088   .     S
H648   C720    1.088   1_455 S
N655   Zn665   2.011   .     S
N656   Zn666   2.011   .     S
O657   Zn665   1.991   .     S
O658   Zn666   1.991   .     S
O659   Zn666   1.994   .     S
O660   Zn665   1.994   .     S
O661   Zn665   1.969   .     S
O662   Zn666   1.969   .     S
O663   Zn666   1.982   .     S
O664   Zn665   1.982   .     S
N667   H668    1.046   .     S
N667   H669    1.046   .     S
N670   H671    1.046   .     S
N670   H672    1.046   .     S
C673   O701    1.281   .     A
C673   C684    1.413   .     S
C673   O699    1.282   .     A
C674   O702    1.281   .     A
C674   C683    1.413   .     S
C674   O700    1.282   .     A
C675   O703    1.278   .     A
C675   O705    1.281   .     A
C675   C677    1.403   .     S
C676   O706    1.281   .     A
C676   O704    1.278   .     A
C676   C678    1.403   .     S
C678   C719    1.331   .     S
C678   H732    1.088   .     S
C679   N709    1.434   .     S
C679   C684    1.402   .     A
C680   C683    1.402   .     A
C680   N712    1.434   .     S
C680   C430    1.377   1_565 S
C681   C683    1.395   .     A
C681   H691    1.085   .     S
C681   C427    1.377   1_565 S
C682   C684    1.395   .     A
C682   H692    1.085   .     S
C685   H693    1.082   .     S
C685   N698    1.367   .     A
C686   H694    1.082   .     S
C686   N697    1.367   .     A
C686   C1066   1.417   .     S
C687   H695    1.082   .     S
C687   N697    1.367   .     A
C687   C1063   1.417   .     S
C688   H696    1.082   .     S
C688   N698    1.367   .     A
H689   C719    1.088   .     S
N697   Zn707   2.011   .     S
N698   Zn708   2.011   .     S
O699   Zn707   1.991   .     S
O700   Zn708   1.991   .     S
O701   Zn708   1.994   .     S
O702   Zn707   1.994   .     S
O703   Zn707   1.969   .     S
O704   Zn708   1.969   .     S
O705   Zn708   1.982   .     S
O706   Zn707   1.982   .     S
N709   H710    1.046   .     S
N709   H711    1.046   .     S
N712   H713    1.046   .     S
N712   H714    1.046   .     S
C715   O743    1.281   .     A
C715   C726    1.413   .     S
C715   O741    1.282   .     A
C716   O744    1.281   .     A
C716   C725    1.413   .     S
C716   O742    1.282   .     A
C717   O745    1.278   .     A
C717   O747    1.281   .     A
C717   C719    1.403   .     S
C718   O748    1.281   .     A
C718   O746    1.278   .     A
C718   C720    1.403   .     S
C720   C635    1.331   1_655 S
C720   H648    1.088   1_655 S
C721   N751    1.434   .     S
C721   C726    1.402   .     A
C722   C725    1.402   .     A
C722   N754    1.434   .     S
C722   C472    1.377   1_565 S
C723   C725    1.395   .     A
C723   H733    1.085   .     S
C723   C469    1.377   1_565 S
C724   C726    1.395   .     A
C724   H734    1.085   .     S
C727   H735    1.082   .     S
C727   N740    1.367   .     A
C728   H736    1.082   .     S
C728   N739    1.367   .     A
C728   C1108   1.417   .     S
C729   H737    1.082   .     S
C729   N739    1.367   .     A
C729   C1105   1.417   .     S
C730   H738    1.082   .     S
C730   N740    1.367   .     A
H731   C635    1.088   1_655 S
N739   Zn749   2.011   .     S
N740   Zn750   2.011   .     S
O741   Zn749   1.991   .     S
O742   Zn750   1.991   .     S
O743   Zn750   1.994   .     S
O744   Zn749   1.994   .     S
O745   Zn749   1.969   .     S
O746   Zn750   1.969   .     S
O747   Zn750   1.982   .     S
O748   Zn749   1.982   .     S
N751   H752    1.046   .     S
N751   H753    1.046   .     S
N754   H755    1.046   .     S
N754   H756    1.046   .     S
C757   O785    1.281   .     A
C757   C768    1.413   .     S
C757   O783    1.282   .     A
C758   O786    1.281   .     A
C758   C767    1.413   .     S
C758   O784    1.282   .     A
C759   O787    1.278   .     A
C759   O789    1.281   .     A
C759   C761    1.403   .     S
C760   O790    1.281   .     A
C760   O788    1.278   .     A
C760   C762    1.403   .     S
C761   C846    1.331   1_455 S
C761   H857    1.088   1_455 S
C762   C803    1.331   .     S
C762   H816    1.088   .     S
C763   N793    1.434   .     S
C763   C768    1.402   .     A
C763   C1017   1.377   1_545 S
C764   C767    1.402   .     A
C764   N796    1.434   .     S
C764   C892    1.377   .     S
C765   C767    1.395   .     A
C765   H775    1.085   .     S
C765   C889    1.377   .     S
C766   C768    1.395   .     A
C766   H776    1.085   .     S
C766   C1016   1.377   1_545 S
C769   H777    1.082   .     S
C769   N782    1.367   .     A
C770   H778    1.082   .     S
C770   N781    1.367   .     A
C770   C16     1.417   1_556 S
C771   H779    1.082   .     S
C771   N781    1.367   .     A
C771   C13     1.417   1_556 S
C772   H780    1.082   .     S
C772   N782    1.367   .     A
H773   C803    1.088   .     S
H774   C846    1.088   1_455 S
N781   Zn791   2.011   .     S
N782   Zn792   2.011   .     S
O783   Zn791   1.991   .     S
O784   Zn792   1.991   .     S
O785   Zn792   1.994   .     S
O786   Zn791   1.994   .     S
O787   Zn791   1.969   .     S
O788   Zn792   1.969   .     S
O789   Zn792   1.982   .     S
O790   Zn791   1.982   .     S
N793   H794    1.046   .     S
N793   H795    1.046   .     S
N796   H797    1.046   .     S
N796   H798    1.046   .     S
C799   O827    1.281   .     A
C799   C810    1.413   .     S
C799   O825    1.282   .     A
C800   O828    1.281   .     A
C800   C809    1.413   .     S
C800   O826    1.282   .     A
C801   O829    1.278   .     A
C801   O831    1.281   .     A
C801   C803    1.403   .     S
C802   O832    1.281   .     A
C802   O830    1.278   .     A
C802   C804    1.403   .     S
C804   C845    1.331   .     S
C804   H858    1.088   .     S
C805   N835    1.434   .     S
C805   C810    1.402   .     A
C805   C1059   1.377   1_545 S
C806   C809    1.402   .     A
C806   N838    1.434   .     S
C806   C934    1.377   .     S
C807   C809    1.395   .     A
C807   H817    1.085   .     S
C807   C931    1.377   .     S
C808   C810    1.395   .     A
C808   H818    1.085   .     S
C808   C1058   1.377   1_545 S
C811   H819    1.082   .     S
C811   N824    1.367   .     A
C812   H820    1.082   .     S
C812   N823    1.367   .     A
C812   C58     1.417   1_556 S
C813   H821    1.082   .     S
C813   N823    1.367   .     A
C813   C55     1.417   1_556 S
C814   H822    1.082   .     S
C814   N824    1.367   .     A
H815   C845    1.088   .     S
N823   Zn833   2.011   .     S
N824   Zn834   2.011   .     S
O825   Zn833   1.991   .     S
O826   Zn834   1.991   .     S
O827   Zn834   1.994   .     S
O828   Zn833   1.994   .     S
O829   Zn833   1.969   .     S
O830   Zn834   1.969   .     S
O831   Zn834   1.982   .     S
O832   Zn833   1.982   .     S
N835   H836    1.046   .     S
N835   H837    1.046   .     S
N838   H839    1.046   .     S
N838   H840    1.046   .     S
C841   O869    1.281   .     A
C841   C852    1.413   .     S
C841   O867    1.282   .     A
C842   O870    1.281   .     A
C842   C851    1.413   .     S
C842   O868    1.282   .     A
C843   O871    1.278   .     A
C843   O873    1.281   .     A
C843   C845    1.403   .     S
C844   O874    1.281   .     A
C844   O872    1.278   .     A
C844   C846    1.403   .     S
C846   C761    1.331   1_655 S
C846   H774    1.088   1_655 S
C847   N877    1.434   .     S
C847   C852    1.402   .     A
C847   C1101   1.377   1_545 S
C848   C851    1.402   .     A
C848   N880    1.434   .     S
C848   C976    1.377   .     S
C849   C851    1.395   .     A
C849   H859    1.085   .     S
C849   C973    1.377   .     S
C850   C852    1.395   .     A
C850   H860    1.085   .     S
C850   C1100   1.377   1_545 S
C853   H861    1.082   .     S
C853   N866    1.367   .     A
C854   H862    1.082   .     S
C854   N865    1.367   .     A
C854   C100    1.417   1_556 S
C855   H863    1.082   .     S
C855   N865    1.367   .     A
C855   C97     1.417   1_556 S
C856   H864    1.082   .     S
C856   N866    1.367   .     A
H857   C761    1.088   1_655 S
N865   Zn875   2.011   .     S
N866   Zn876   2.011   .     S
O867   Zn875   1.991   .     S
O868   Zn876   1.991   .     S
O869   Zn876   1.994   .     S
O870   Zn875   1.994   .     S
O871   Zn875   1.969   .     S
O872   Zn876   1.969   .     S
O873   Zn876   1.982   .     S
O874   Zn875   1.982   .     S
N877   H878    1.046   .     S
N877   H879    1.046   .     S
N880   H881    1.046   .     S
N880   H882    1.046   .     S
C883   O911    1.281   .     A
C883   C894    1.413   .     S
C883   O909    1.282   .     A
C884   O912    1.281   .     A
C884   C893    1.413   .     S
C884   O910    1.282   .     A
C885   O913    1.278   .     A
C885   O915    1.281   .     A
C885   C887    1.403   .     S
C886   O916    1.281   .     A
C886   O914    1.278   .     A
C886   C888    1.403   .     S
C887   C972    1.331   1_455 S
C887   H983    1.088   1_455 S
C888   C929    1.331   .     S
C888   H942    1.088   .     S
C889   N919    1.434   .     S
C889   C894    1.402   .     A
C890   C893    1.402   .     A
C890   N922    1.434   .     S
C890   C1018   1.377   .     S
C891   C893    1.395   .     A
C891   H901    1.085   .     S
C891   C1015   1.377   .     S
C892   C894    1.395   .     A
C892   H902    1.085   .     S
C895   H903    1.082   .     S
C895   N908    1.367   .     A
C896   H904    1.082   .     S
C896   N907    1.367   .     A
C896   C142    1.417   1_556 S
C897   H905    1.082   .     S
C897   N907    1.367   .     A
C897   C139    1.417   1_556 S
C898   H906    1.082   .     S
C898   N908    1.367   .     A
H899   C929    1.088   .     S
H900   C972    1.088   1_455 S
N907   Zn917   2.011   .     S
N908   Zn918   2.011   .     S
O909   Zn917   1.991   .     S
O910   Zn918   1.991   .     S
O911   Zn918   1.994   .     S
O912   Zn917   1.994   .     S
O913   Zn917   1.969   .     S
O914   Zn918   1.969   .     S
O915   Zn918   1.982   .     S
O916   Zn917   1.982   .     S
N919   H920    1.046   .     S
N919   H921    1.046   .     S
N922   H923    1.046   .     S
N922   H924    1.046   .     S
C925   O953    1.281   .     A
C925   C936    1.413   .     S
C925   O951    1.282   .     A
C926   O954    1.281   .     A
C926   C935    1.413   .     S
C926   O952    1.282   .     A
C927   O955    1.278   .     A
C927   O957    1.281   .     A
C927   C929    1.403   .     S
C928   O958    1.281   .     A
C928   O956    1.278   .     A
C928   C930    1.403   .     S
C930   C971    1.331   .     S
C930   H984    1.088   .     S
C931   N961    1.434   .     S
C931   C936    1.402   .     A
C932   C935    1.402   .     A
C932   N964    1.434   .     S
C932   C1060   1.377   .     S
C933   C935    1.395   .     A
C933   H943    1.085   .     S
C933   C1057   1.377   .     S
C934   C936    1.395   .     A
C934   H944    1.085   .     S
C937   H945    1.082   .     S
C937   N950    1.367   .     A
C938   H946    1.082   .     S
C938   N949    1.367   .     A
C938   C184    1.417   1_556 S
C939   H947    1.082   .     S
C939   N949    1.367   .     A
C939   C181    1.417   1_556 S
C940   H948    1.082   .     S
C940   N950    1.367   .     A
H941   C971    1.088   .     S
N949   Zn959   2.011   .     S
N950   Zn960   2.011   .     S
O951   Zn959   1.991   .     S
O952   Zn960   1.991   .     S
O953   Zn960   1.994   .     S
O954   Zn959   1.994   .     S
O955   Zn959   1.969   .     S
O956   Zn960   1.969   .     S
O957   Zn960   1.982   .     S
O958   Zn959   1.982   .     S
N961   H962    1.046   .     S
N961   H963    1.046   .     S
N964   H965    1.046   .     S
N964   H966    1.046   .     S
C967   O995    1.281   .     A
C967   C978    1.413   .     S
C967   O993    1.282   .     A
C968   O996    1.281   .     A
C968   C977    1.413   .     S
C968   O994    1.282   .     A
C969   O997    1.278   .     A
C969   O999    1.281   .     A
C969   C971    1.403   .     S
C970   O1000   1.281   .     A
C970   O998    1.278   .     A
C970   C972    1.403   .     S
C972   C887    1.331   1_655 S
C972   H900    1.088   1_655 S
C973   N1003   1.434   .     S
C973   C978    1.402   .     A
C974   C977    1.402   .     A
C974   N1006   1.434   .     S
C974   C1102   1.377   .     S
C975   C977    1.395   .     A
C975   H985    1.085   .     S
C975   C1099   1.377   .     S
C976   C978    1.395   .     A
C976   H986    1.085   .     S
C979   H987    1.082   .     S
C979   N992    1.367   .     A
C980   H988    1.082   .     S
C980   N991    1.367   .     A
C980   C226    1.417   1_556 S
C981   H989    1.082   .     S
C981   N991    1.367   .     A
C981   C223    1.417   1_556 S
C982   H990    1.082   .     S
C982   N992    1.367   .     A
H983   C887    1.088   1_655 S
N991   Zn1001  2.011   .     S
N992   Zn1002  2.011   .     S
O993   Zn1001  1.991   .     S
O994   Zn1002  1.991   .     S
O995   Zn1002  1.994   .     S
O996   Zn1001  1.994   .     S
O997   Zn1001  1.969   .     S
O998   Zn1002  1.969   .     S
O999   Zn1002  1.982   .     S
O1000  Zn1001  1.982   .     S
N1003  H1004   1.046   .     S
N1003  H1005   1.046   .     S
N1006  H1007   1.046   .     S
N1006  H1008   1.046   .     S
C1009  O1037   1.281   .     A
C1009  C1020   1.413   .     S
C1009  O1035   1.282   .     A
C1010  O1038   1.281   .     A
C1010  C1019   1.413   .     S
C1010  O1036   1.282   .     A
C1011  O1039   1.278   .     A
C1011  O1041   1.281   .     A
C1011  C1013   1.403   .     S
C1012  O1042   1.281   .     A
C1012  O1040   1.278   .     A
C1012  C1014   1.403   .     S
C1013  C1098   1.331   1_455 S
C1013  H1109   1.088   1_455 S
C1014  C1055   1.331   .     S
C1014  H1068   1.088   .     S
C1015  N1045   1.434   .     S
C1015  C1020   1.402   .     A
C1016  C1019   1.402   .     A
C1016  N1048   1.434   .     S
C1016  C766    1.377   1_565 S
C1017  C1019   1.395   .     A
C1017  H1027   1.085   .     S
C1017  C763    1.377   1_565 S
C1018  C1020   1.395   .     A
C1018  H1028   1.085   .     S
C1021  H1029   1.082   .     S
C1021  N1034   1.367   .     A
C1022  H1030   1.082   .     S
C1022  N1033   1.367   .     A
C1022  C268    1.417   1_556 S
C1023  H1031   1.082   .     S
C1023  N1033   1.367   .     A
C1023  C265    1.417   1_556 S
C1024  H1032   1.082   .     S
C1024  N1034   1.367   .     A
H1025  C1055   1.088   .     S
H1026  C1098   1.088   1_455 S
N1033  Zn1043  2.011   .     S
N1034  Zn1044  2.011   .     S
O1035  Zn1043  1.991   .     S
O1036  Zn1044  1.991   .     S
O1037  Zn1044  1.994   .     S
O1038  Zn1043  1.994   .     S
O1039  Zn1043  1.969   .     S
O1040  Zn1044  1.969   .     S
O1041  Zn1044  1.982   .     S
O1042  Zn1043  1.982   .     S
N1045  H1046   1.046   .     S
N1045  H1047   1.046   .     S
N1048  H1049   1.046   .     S
N1048  H1050   1.046   .     S
C1051  O1079   1.281   .     A
C1051  C1062   1.413   .     S
C1051  O1077   1.282   .     A
C1052  O1080   1.281   .     A
C1052  C1061   1.413   .     S
C1052  O1078   1.282   .     A
C1053  O1081   1.278   .     A
C1053  O1083   1.281   .     A
C1053  C1055   1.403   .     S
C1054  O1084   1.281   .     A
C1054  O1082   1.278   .     A
C1054  C1056   1.403   .     S
C1056  C1097   1.331   .     S
C1056  H1110   1.088   .     S
C1057  N1087   1.434   .     S
C1057  C1062   1.402   .     A
C1058  C1061   1.402   .     A
C1058  N1090   1.434   .     S
C1058  C808    1.377   1_565 S
C1059  C1061   1.395   .     A
C1059  H1069   1.085   .     S
C1059  C805    1.377   1_565 S
C1060  C1062   1.395   .     A
C1060  H1070   1.085   .     S
C1063  H1071   1.082   .     S
C1063  N1076   1.367   .     A
C1064  H1072   1.082   .     S
C1064  N1075   1.367   .     A
C1064  C310    1.417   1_556 S
C1065  H1073   1.082   .     S
C1065  N1075   1.367   .     A
C1065  C307    1.417   1_556 S
C1066  H1074   1.082   .     S
C1066  N1076   1.367   .     A
H1067  C1097   1.088   .     S
N1075  Zn1085  2.011   .     S
N1076  Zn1086  2.011   .     S
O1077  Zn1085  1.991   .     S
O1078  Zn1086  1.991   .     S
O1079  Zn1086  1.994   .     S
O1080  Zn1085  1.994   .     S
O1081  Zn1085  1.969   .     S
O1082  Zn1086  1.969   .     S
O1083  Zn1086  1.982   .     S
O1084  Zn1085  1.982   .     S
N1087  H1088   1.046   .     S
N1087  H1089   1.046   .     S
N1090  H1091   1.046   .     S
N1090  H1092   1.046   .     S
C1093  O1121   1.281   .     A
C1093  C1104   1.413   .     S
C1093  O1119   1.282   .     A
C1094  O1122   1.281   .     A
C1094  C1103   1.413   .     S
C1094  O1120   1.282   .     A
C1095  O1123   1.278   .     A
C1095  O1125   1.281   .     A
C1095  C1097   1.403   .     S
C1096  O1126   1.281   .     A
C1096  O1124   1.278   .     A
C1096  C1098   1.403   .     S
C1098  C1013   1.331   1_655 S
C1098  H1026   1.088   1_655 S
C1099  N1129   1.434   .     S
C1099  C1104   1.402   .     A
C1100  C1103   1.402   .     A
C1100  N1132   1.434   .     S
C1100  C850    1.377   1_565 S
C1101  C1103   1.395   .     A
C1101  H1111   1.085   .     S
C1101  C847    1.377   1_565 S
C1102  C1104   1.395   .     A
C1102  H1112   1.085   .     S
C1105  H1113   1.082   .     S
C1105  N1118   1.367   .     A
C1106  H1114   1.082   .     S
C1106  N1117   1.367   .     A
C1106  C352    1.417   1_556 S
C1107  H1115   1.082   .     S
C1107  N1117   1.367   .     A
C1107  C349    1.417   1_556 S
C1108  H1116   1.082   .     S
C1108  N1118   1.367   .     A
H1109  C1013   1.088   1_655 S
N1117  Zn1127  2.011   .     S
N1118  Zn1128  2.011   .     S
O1119  Zn1127  1.991   .     S
O1120  Zn1128  1.991   .     S
O1121  Zn1128  1.994   .     S
O1122  Zn1127  1.994   .     S
O1123  Zn1127  1.969   .     S
O1124  Zn1128  1.969   .     S
O1125  Zn1128  1.982   .     S
O1126  Zn1127  1.982   .     S
N1129  H1130   1.046   .     S
N1129  H1131   1.046   .     S
N1132  H1133   1.046   .     S
N1132  H1134   1.046   .     S
